@<TRIPOS>MOLECULE
*****
 47 50 0 0 0
SMALL
GASTEIGER

@<TRIPOS>ATOM
      1 O           0.1754   -0.1290   -1.8934 O.2     1  UNL1       -0.2748
      2 C          -0.5203    0.2518   -0.8951 C.2     1  UNL1        0.2251
      3 N           0.0533    1.1160    0.0417 N.am    1  UNL1       -0.3089
      4 C           1.4157    1.5744   -0.1035 C.3     1  UNL1        0.0562
      5 C           2.3009    0.3587   -0.0725 C.ar    1  UNL1        0.0863
      6 N           1.8006   -0.8725    0.0761 N.ar    1  UNL1       -0.1737
      7 N           2.5184   -1.9698    0.1144 N.ar    1  UNL1       -0.2424
      8 C           3.8530   -1.8753   -0.0020 C.ar    1  UNL1        0.2725
      9 O           4.5166   -2.9486    0.0386 O.2     1  UNL1       -0.2658
     10 C           4.4379   -0.6348   -0.1583 C.ar    1  UNL1        0.0496
     11 C           5.8036   -0.5420   -0.2770 C.ar    1  UNL1       -0.0487
     12 C           6.3540    0.7061   -0.4312 C.ar    1  UNL1       -0.0610
     13 C           5.5801    1.8358   -0.4678 C.ar    1  UNL1       -0.0611
     14 C           4.1960    1.7584   -0.3489 C.ar    1  UNL1       -0.0520
     15 C           3.6584    0.5106   -0.1958 C.ar    1  UNL1        0.0118
     16 C          -1.8939   -0.2291   -0.7688 C.3     1  UNL1        0.0855
     17 C          -2.9108    0.8495   -0.6325 C.ar    1  UNL1       -0.0312
     18 C          -3.2061    1.4437    0.5796 C.ar    1  UNL1       -0.0575
     19 C          -4.1447    2.4487    0.6407 C.ar    1  UNL1       -0.0615
     20 C          -4.7989    2.8735   -0.4969 C.ar    1  UNL1       -0.0617
     21 C          -4.5226    2.2969   -1.7159 C.ar    1  UNL1       -0.0615
     22 C          -3.5922    1.3042   -1.7630 C.ar    1  UNL1       -0.0575
     23 C          -2.0862   -1.3177    0.2394 C.ar    1  UNL1       -0.0312
     24 C          -3.0933   -2.2658    0.0362 C.ar    1  UNL1       -0.0575
     25 C          -3.3435   -3.3021    0.9007 C.ar    1  UNL1       -0.0615
     26 C          -2.5567   -3.4172    2.0374 C.ar    1  UNL1       -0.0617
     27 C          -1.5500   -2.4990    2.2741 C.ar    1  UNL1       -0.0615
     28 C          -1.3367   -1.4683    1.3686 C.ar    1  UNL1       -0.0575
     29 H          -0.4963    1.4439    0.8488 H       1  UNL1        0.1491
     30 H           1.6970    2.2246    0.7400 H       1  UNL1        0.0528
     31 H           1.5042    2.0975   -1.0831 H       1  UNL1        0.0528
     32 H           2.0669   -2.9285    0.2352 H       1  UNL1        0.1921
     33 H           6.3689   -1.4524   -0.2428 H       1  UNL1        0.0625
     34 H           7.4281    0.7609   -0.5230 H       1  UNL1        0.0618
     35 H           6.0396    2.7888   -0.5887 H       1  UNL1        0.0618
     36 H           3.5669    2.6448   -0.3758 H       1  UNL1        0.0624
     37 H          -2.2073   -0.7602   -1.7480 H       1  UNL1        0.0492
     38 H          -2.7262    1.1355    1.4892 H       1  UNL1        0.0621
     39 H          -4.3741    2.9164    1.6062 H       1  UNL1        0.0618
     40 H          -5.5362    3.6598   -0.4625 H       1  UNL1        0.0618
     41 H          -5.0074    2.5924   -2.6409 H       1  UNL1        0.0618
     42 H          -3.3607    0.8337   -2.7312 H       1  UNL1        0.0621
     43 H          -3.6894   -2.1499   -0.8576 H       1  UNL1        0.0621
     44 H          -4.1415   -4.0351    0.7189 H       1  UNL1        0.0618
     45 H          -2.7383   -4.2327    2.7374 H       1  UNL1        0.0618
     46 H          -0.9497   -2.6087    3.1663 H       1  UNL1        0.0618
     47 H          -0.5522   -0.7879    1.5867 H       1  UNL1        0.0621
@<TRIPOS>BOND
     1     1     2    2
     2     2     3   am
     3     2    16    1
     4     3     4    1
     5     3    29    1
     6     4     5    1
     7     4    30    1
     8     4    31    1
     9     5     6   ar
    10     6     7   ar
    11     7     8   ar
    12     7    32    1
    13     8     9    2
    14     8    10   ar
    15    10    11   ar
    16    11    12   ar
    17    11    33    1
    18    12    13   ar
    19    12    34    1
    20    13    14   ar
    21    13    35    1
    22    14    15   ar
    23    14    36    1
    24    15     5   ar
    25    15    10   ar
    26    16    17    1
    27    16    23    1
    28    16    37    1
    29    17    18   ar
    30    18    19   ar
    31    18    38    1
    32    19    20   ar
    33    19    39    1
    34    20    21   ar
    35    20    40    1
    36    21    22   ar
    37    21    41    1
    38    22    17   ar
    39    22    42    1
    40    23    24   ar
    41    24    25   ar
    42    24    43    1
    43    25    26   ar
    44    25    44    1
    45    26    27   ar
    46    26    45    1
    47    27    28   ar
    48    27    46    1
    49    28    23   ar
    50    28    47    1
