@<TRIPOS>MOLECULE
*****
 33 35 0 0 0
SMALL
GASTEIGER

@<TRIPOS>ATOM
      1 O           5.3147   -0.6651   -1.1693 O.2     1  UNL1       -0.2451
      2 C           5.0472   -0.2412   -0.0213 C.2     1  UNL1        0.3368
      3 O           6.0601    0.0486    0.8460 O.3     1  UNL1       -0.4771
      4 C           3.6490   -0.0713    0.3495 C.ar    1  UNL1        0.0591
      5 C           3.2820    0.3962    1.6091 C.ar    1  UNL1       -0.0478
      6 C           1.9620    0.5569    1.9564 C.ar    1  UNL1       -0.0607
      7 C           0.9847    0.2394    1.0129 C.ar    1  UNL1       -0.0582
      8 C           1.2775   -0.2246   -0.2439 C.ar    1  UNL1       -0.0407
      9 C           0.2919   -0.5545   -1.3040 C.3     1  UNL1        0.0171
     10 C          -1.0262   -0.9578   -0.8603 C.ar    1  UNL1        0.0736
     11 N          -1.3928   -2.2417   -0.6894 N.ar    1  UNL1       -0.1750
     12 N          -2.5971   -2.5987   -0.2537 N.ar    1  UNL1       -0.2425
     13 C          -3.5364   -1.7155    0.0477 C.ar    1  UNL1        0.2725
     14 O          -4.6775   -2.0919    0.4621 O.2     1  UNL1       -0.2658
     15 C          -3.2612   -0.3752   -0.0938 C.ar    1  UNL1        0.0496
     16 C          -4.2335    0.5751    0.1963 C.ar    1  UNL1       -0.0487
     17 C          -3.9312    1.9110    0.0228 C.ar    1  UNL1       -0.0610
     18 C          -2.6909    2.3246   -0.4298 C.ar    1  UNL1       -0.0611
     19 C          -1.7743    1.3320   -0.6968 C.ar    1  UNL1       -0.0521
     20 C          -2.0026   -0.0016   -0.5490 C.ar    1  UNL1        0.0106
     21 C           2.6466   -0.3654   -0.5312 C.ar    1  UNL1       -0.0442
     22 H           6.9451    0.4415    0.5064 H       1  UNL1        0.2954
     23 H           4.0451    0.6321    2.3150 H       1  UNL1        0.0626
     24 H           1.6582    0.9220    2.9409 H       1  UNL1        0.0618
     25 H          -0.0737    0.3476    1.2742 H       1  UNL1        0.0620
     26 H           0.2759    0.2484   -2.0963 H       1  UNL1        0.0377
     27 H           0.7572   -1.4255   -1.8618 H       1  UNL1        0.0377
     28 H          -2.7709   -3.6371   -0.1578 H       1  UNL1        0.1921
     29 H          -5.2056    0.2312    0.5511 H       1  UNL1        0.0625
     30 H          -4.6782    2.6741    0.2415 H       1  UNL1        0.0618
     31 H          -2.4480    3.3871   -0.5692 H       1  UNL1        0.0618
     32 H          -0.7980    1.6288   -1.0493 H       1  UNL1        0.0624
     33 H           2.9007   -0.7293   -1.5156 H       1  UNL1        0.0628
@<TRIPOS>BOND
     1     1     2    2
     2     2     3    1
     3     2     4    1
     4     3    22    1
     5     4     5   ar
     6     5     6   ar
     7     5    23    1
     8     6     7   ar
     9     6    24    1
    10     7     8   ar
    11     7    25    1
    12     8     9    1
    13     8    21   ar
    14     9    10    1
    15     9    26    1
    16     9    27    1
    17    10    11   ar
    18    11    12   ar
    19    12    13   ar
    20    12    28    1
    21    13    14    2
    22    13    15   ar
    23    15    16   ar
    24    16    17   ar
    25    16    29    1
    26    17    18   ar
    27    17    30    1
    28    18    19   ar
    29    18    31    1
    30    19    20   ar
    31    19    32    1
    32    20    10   ar
    33    20    15   ar
    34    21     4   ar
    35    21    33    1
