@<TRIPOS>MOLECULE
*****
 59 63 0 0 0
SMALL
GASTEIGER

@<TRIPOS>ATOM
      1 N          -5.8655    0.5320    1.3335 N.pl3   1  UNL1       -0.2515
      2 C          -5.6351   -0.1960    0.1329 C.2     1  UNL1        0.2546
      3 C          -6.5114   -1.1057   -0.2366 C.2     1  UNL1        0.0151
      4 C          -7.7651   -1.8483   -0.0164 C.3     1  UNL1       -0.0202
      5 C          -6.9548   -2.1688   -1.2295 C.3     1  UNL1       -0.0202
      6 N          -4.4821    0.0725   -0.6350 N.pl3   1  UNL1       -0.2241
      7 C          -4.1680    1.4763   -0.9117 C.3     1  UNL1        0.0818
      8 C          -2.9412    1.8033   -0.0811 C.3     1  UNL1       -0.0009
      9 C          -1.7181    1.1073   -0.6109 C.3     1  UNL1        0.0185
     10 N          -1.6309   -0.1963   -0.0098 N.am    1  UNL1       -0.2937
     11 C          -0.4756   -0.4501    0.7517 C.2     1  UNL1        0.2495
     12 O          -0.2947   -1.5671    1.3261 O.2     1  UNL1       -0.2699
     13 C           0.6020    0.5279    0.9475 C.ar    1  UNL1        0.0723
     14 C           1.6854    0.5925    0.0580 C.ar    1  UNL1       -0.0433
     15 C           2.7064    1.4850    0.2147 C.ar    1  UNL1       -0.0406
     16 C           3.8309    1.5247   -0.7198 C.3     1  UNL1        0.0171
     17 C           5.1273    1.0685   -0.1857 C.ar    1  UNL1        0.0736
     18 N           6.0041    1.9790    0.3272 N.ar    1  UNL1       -0.1750
     19 N           7.1278    1.5721    0.8476 N.ar    1  UNL1       -0.2425
     20 C           7.5068    0.2972    0.9238 C.ar    1  UNL1        0.2725
     21 O           8.6161   -0.0757    1.4409 O.2     1  UNL1       -0.2658
     22 C           6.6722   -0.6611    0.4261 C.ar    1  UNL1        0.0496
     23 C           7.0358   -1.9895    0.4752 C.ar    1  UNL1       -0.0487
     24 C           6.1963   -2.9502   -0.0416 C.ar    1  UNL1       -0.0610
     25 C           4.9976   -2.5825   -0.6058 C.ar    1  UNL1       -0.0611
     26 C           4.6385   -1.2546   -0.6521 C.ar    1  UNL1       -0.0521
     27 C           5.4605   -0.2499   -0.1378 C.ar    1  UNL1        0.0106
     28 C           2.6238    2.3389    1.3081 C.ar    1  UNL1       -0.0555
     29 C           1.5657    2.2798    2.1818 C.ar    1  UNL1       -0.0254
     30 C           0.5334    1.3700    2.0153 C.ar    1  UNL1        0.1355
     31 F          -0.5107    1.3080    2.8727 F       1  UNL1       -0.2047
     32 C          -2.5740   -1.2789   -0.0925 C.3     1  UNL1        0.0510
     33 C          -3.6626   -1.0253   -1.1082 C.3     1  UNL1        0.0960
     34 H          -5.0999    0.6059    2.0644 H       1  UNL1        0.2881
     35 H          -6.7496    1.0195    1.5712 H       1  UNL1        0.2881
     36 H          -8.7462   -1.3541   -0.1814 H       1  UNL1        0.0316
     37 H          -7.7907   -2.6543    0.7512 H       1  UNL1        0.0316
     38 H          -6.3480   -3.1100   -1.2329 H       1  UNL1        0.0316
     39 H          -7.3308   -1.8088   -2.2117 H       1  UNL1        0.0316
     40 H          -4.9932    2.1081   -0.5337 H       1  UNL1        0.0726
     41 H          -3.9789    1.6580   -1.9848 H       1  UNL1        0.0726
     42 H          -3.1708    1.5379    0.9629 H       1  UNL1        0.0317
     43 H          -2.7610    2.8882   -0.1438 H       1  UNL1        0.0317
     44 H          -1.7820    0.9424   -1.7207 H       1  UNL1        0.0466
     45 H          -0.8177    1.7281   -0.4192 H       1  UNL1        0.0466
     46 H           1.6244   -0.1235   -0.7692 H       1  UNL1        0.0629
     47 H           3.9593    2.5863   -1.0948 H       1  UNL1        0.0377
     48 H           3.5801    0.9280   -1.6130 H       1  UNL1        0.0377
     49 H           7.8317    2.2665    1.2604 H       1  UNL1        0.1921
     50 H           7.9964   -2.2673    0.9289 H       1  UNL1        0.0625
     51 H           6.4773   -3.9751   -0.0034 H       1  UNL1        0.0618
     52 H           4.3432   -3.3381   -1.0096 H       1  UNL1        0.0618
     53 H           3.7192   -0.9677   -1.1067 H       1  UNL1        0.0624
     54 H           3.4144    3.0462    1.4483 H       1  UNL1        0.0621
     55 H           1.4918    2.9401    3.0355 H       1  UNL1        0.0646
     56 H          -2.0426   -2.2289   -0.3661 H       1  UNL1        0.0502
     57 H          -3.0899   -1.4455    0.8956 H       1  UNL1        0.0502
     58 H          -4.2759   -1.9430   -1.2001 H       1  UNL1        0.0742
     59 H          -3.2016   -0.7738   -2.1066 H       1  UNL1        0.0742
@<TRIPOS>BOND
     1     1     2    1
     2     1    34    1
     3     1    35    1
     4     2     3    2
     5     2     6    1
     6     3     4    1
     7     4     5    1
     8     4    36    1
     9     4    37    1
    10     5     3    1
    11     5    38    1
    12     5    39    1
    13     6     7    1
    14     7     8    1
    15     7    40    1
    16     7    41    1
    17     8     9    1
    18     8    42    1
    19     8    43    1
    20     9    10    1
    21     9    44    1
    22     9    45    1
    23    10    11   am
    24    10    32    1
    25    11    12    2
    26    11    13    1
    27    13    14   ar
    28    14    15   ar
    29    14    46    1
    30    15    16    1
    31    15    28   ar
    32    16    17    1
    33    16    47    1
    34    16    48    1
    35    17    18   ar
    36    18    19   ar
    37    19    20   ar
    38    19    49    1
    39    20    21    2
    40    20    22   ar
    41    22    23   ar
    42    23    24   ar
    43    23    50    1
    44    24    25   ar
    45    24    51    1
    46    25    26   ar
    47    25    52    1
    48    26    27   ar
    49    26    53    1
    50    27    17   ar
    51    27    22   ar
    52    28    29   ar
    53    28    54    1
    54    29    30   ar
    55    29    55    1
    56    30    31    1
    57    30    13   ar
    58    32    33    1
    59    32    56    1
    60    32    57    1
    61    33     6    1
    62    33    58    1
    63    33    59    1
