@<TRIPOS>MOLECULE
*****
 34 35 0 0 0
SMALL
GASTEIGER

@<TRIPOS>ATOM
      1 N           4.9399    0.6123    2.3702 N.3     1  UNL1       -0.1906
      2 S           4.4998    1.0789    0.7680 S.O2    1  UNL1        0.1067
      3 O           5.0369    2.4518    0.4844 O.2     1  UNL1       -0.1383
      4 O           5.1574    0.1517   -0.2408 O.2     1  UNL1       -0.1383
      5 N           2.7914    1.0747    0.5845 N.pl3   1  UNL1       -0.2067
      6 C           2.0509   -0.0621    0.1592 C.ar    1  UNL1        0.0508
      7 C           2.2596   -1.3327    0.6467 C.ar    1  UNL1       -0.0392
      8 C           1.4953   -2.3835    0.1793 C.ar    1  UNL1       -0.0582
      9 C           0.5038   -2.2165   -0.7804 C.ar    1  UNL1       -0.0392
     10 C           0.2992   -0.9414   -1.2652 C.ar    1  UNL1        0.0498
     11 N          -0.7176   -0.7288   -2.2590 N.pl3   1  UNL1       -0.2160
     12 S          -1.8248    0.5652   -2.1401 S.O2    1  UNL1        0.0780
     13 O          -1.1029    1.9101   -2.1635 O.2     1  UNL1       -0.1498
     14 O          -2.6657    0.5749   -3.4008 O.2     1  UNL1       -0.1498
     15 C          -2.8299    0.4924   -0.7166 C.ar    1  UNL1        0.1843
     16 C          -4.0275   -0.1966   -0.7338 C.ar    1  UNL1        0.1907
     17 F          -4.3750   -0.8107   -1.9020 F       1  UNL1       -0.2002
     18 C          -4.8431   -0.2614    0.3904 C.ar    1  UNL1        0.1983
     19 F          -6.0031   -0.9461    0.3252 F       1  UNL1       -0.1993
     20 C          -4.4872    0.3607    1.5678 C.ar    1  UNL1        0.1992
     21 F          -5.2960    0.2940    2.6756 F       1  UNL1       -0.1993
     22 C          -3.2953    1.0493    1.5924 C.ar    1  UNL1        0.1983
     23 F          -2.8960    1.6761    2.7131 F       1  UNL1       -0.1993
     24 C          -2.4851    1.1094    0.4634 C.ar    1  UNL1        0.1907
     25 F          -1.3075    1.7941    0.4840 F       1  UNL1       -0.2002
     26 C           1.0582    0.1051   -0.8018 C.ar    1  UNL1       -0.0169
     27 H           5.2618   -0.3829    2.3150 H       1  UNL1        0.1456
     28 H           5.7856    1.1726    2.6370 H       1  UNL1        0.1456
     29 H           2.2983    1.9867    0.8098 H       1  UNL1        0.1747
     30 H           3.0301   -1.4534    1.3905 H       1  UNL1        0.0636
     31 H           1.6463   -3.3793    0.5498 H       1  UNL1        0.0619
     32 H          -0.0633   -3.0778   -1.1083 H       1  UNL1        0.0636
     33 H          -0.7808   -1.3808   -3.0718 H       1  UNL1        0.1737
     34 H           0.8865    1.0942   -1.1899 H       1  UNL1        0.0655
@<TRIPOS>BOND
     1     1     2    1
     2     1    27    1
     3     1    28    1
     4     2     3    2
     5     2     4    2
     6     2     5    1
     7     5     6    1
     8     5    29    1
     9     6     7   ar
    10     7     8   ar
    11     7    30    1
    12     8     9   ar
    13     8    31    1
    14     9    10   ar
    15     9    32    1
    16    10    11    1
    17    10    26   ar
    18    11    12    1
    19    11    33    1
    20    12    13    2
    21    12    14    2
    22    12    15    1
    23    15    16   ar
    24    16    17    1
    25    16    18   ar
    26    18    19    1
    27    18    20   ar
    28    20    21    1
    29    20    22   ar
    30    22    23    1
    31    22    24   ar
    32    24    25    1
    33    24    15   ar
    34    26     6   ar
    35    26    34    1
