@<TRIPOS>MOLECULE
*****
 49 51 0 0 0
SMALL
GASTEIGER

@<TRIPOS>ATOM
      1 O           1.1205    0.8032   -0.7074 O.2     1  UNL1       -0.2687
      2 C           1.3246   -0.0559    0.2041 C.2     1  UNL1        0.2602
      3 N           2.6085   -0.1296    0.7544 N.am    1  UNL1       -0.2301
      4 N           3.7062    0.6866    0.3740 N.am    1  UNL1       -0.2300
      5 C           4.8619    0.1392   -0.2129 C.2     1  UNL1        0.2637
      6 O           4.8465   -1.1172   -0.3735 O.2     1  UNL1       -0.2685
      7 C           5.9796    0.9963   -0.5936 C.ar    1  UNL1        0.0795
      8 C           5.9389    2.3555   -0.4128 C.ar    1  UNL1       -0.0460
      9 C           6.9628    3.2047   -0.7633 C.ar    1  UNL1       -0.0608
     10 C           8.0926    2.6910   -1.3243 C.ar    1  UNL1       -0.0583
     11 C           8.1895    1.3442   -1.5282 C.ar    1  UNL1       -0.0194
     12 C           7.1452    0.4745   -1.1706 C.ar    1  UNL1        0.1290
     13 O           7.3220   -0.8453   -1.4050 O.3     1  UNL1       -0.5060
     14 C           0.2305   -0.9314    0.6477 C.ar    1  UNL1        0.0400
     15 C           0.3225   -1.6964    1.7869 C.ar    1  UNL1       -0.0495
     16 C          -0.7007   -2.5389    2.2165 C.ar    1  UNL1       -0.0592
     17 C          -1.8632   -2.6279    1.4858 C.ar    1  UNL1       -0.0353
     18 C          -1.9589   -1.8535    0.3307 C.ar    1  UNL1        0.1062
     19 S          -3.4492   -1.9812   -0.5892 S.O2    1  UNL1        0.0609
     20 O          -3.9473   -3.4072   -0.4059 O.2     1  UNL1       -0.1528
     21 O          -3.1651   -1.8508   -2.0674 O.2     1  UNL1       -0.1528
     22 N          -4.6274   -0.9032   -0.1407 N.3     1  UNL1       -0.1766
     23 C          -4.2947    0.4488   -0.3066 C.3     1  UNL1        0.0205
     24 C          -5.1509    1.4461    0.4045 C.3     1  UNL1       -0.0385
     25 C          -6.5995    1.1200    0.4113 C.3     1  UNL1       -0.0506
     26 C          -6.9219   -0.1030   -0.3731 C.3     1  UNL1       -0.0385
     27 C          -5.9696   -1.2609   -0.0349 C.3     1  UNL1        0.0205
     28 C          -0.9322   -1.0176   -0.0853 C.ar    1  UNL1       -0.0232
     29 H           2.8110   -0.8309    1.5037 H       1  UNL1        0.1731
     30 H           3.5689    1.6917    0.5651 H       1  UNL1        0.1731
     31 H           5.0735    2.8045    0.0243 H       1  UNL1        0.0626
     32 H           6.8479    4.2678   -0.5867 H       1  UNL1        0.0618
     33 H           8.8901    3.3859   -1.5946 H       1  UNL1        0.0619
     34 H           9.1068    0.9777   -1.9760 H       1  UNL1        0.0654
     35 H           6.8074   -1.6558   -1.2753 H       1  UNL1        0.2922
     36 H           1.2176   -1.6403    2.3763 H       1  UNL1        0.0625
     37 H          -0.6092   -3.1284    3.1130 H       1  UNL1        0.0618
     38 H          -2.6931   -3.2561    1.7583 H       1  UNL1        0.0637
     39 H          -4.3970    0.6908   -1.4108 H       1  UNL1        0.0444
     40 H          -3.2422    0.6583    0.0111 H       1  UNL1        0.0444
     41 H          -5.0376    2.4294   -0.1467 H       1  UNL1        0.0278
     42 H          -4.7720    1.6862    1.4271 H       1  UNL1        0.0278
     43 H          -7.2427    1.9405    0.0059 H       1  UNL1        0.0266
     44 H          -6.9208    1.0139    1.4714 H       1  UNL1        0.0266
     45 H          -7.9375   -0.4612   -0.0234 H       1  UNL1        0.0278
     46 H          -7.0134    0.0451   -1.4557 H       1  UNL1        0.0278
     47 H          -6.2347   -1.4956    1.0434 H       1  UNL1        0.0444
     48 H          -6.2594   -2.0934   -0.6995 H       1  UNL1        0.0444
     49 H          -1.0351   -0.4198   -0.9948 H       1  UNL1        0.0644
@<TRIPOS>BOND
     1     1     2    2
     2     2     3   am
     3     2    14    1
     4     3     4    1
     5     3    29    1
     6     4     5   am
     7     4    30    1
     8     5     6    2
     9     5     7    1
    10     7     8   ar
    11     8     9   ar
    12     8    31    1
    13     9    10   ar
    14     9    32    1
    15    10    11   ar
    16    10    33    1
    17    11    12   ar
    18    11    34    1
    19    12    13    1
    20    12     7   ar
    21    13    35    1
    22    14    15   ar
    23    15    16   ar
    24    15    36    1
    25    16    17   ar
    26    16    37    1
    27    17    18   ar
    28    17    38    1
    29    18    19    1
    30    18    28   ar
    31    19    20    2
    32    19    21    2
    33    19    22    1
    34    22    23    1
    35    23    24    1
    36    23    39    1
    37    23    40    1
    38    24    25    1
    39    24    41    1
    40    24    42    1
    41    25    26    1
    42    25    43    1
    43    25    44    1
    44    26    27    1
    45    26    45    1
    46    26    46    1
    47    27    22    1
    48    27    47    1
    49    27    48    1
    50    28    14   ar
    51    28    49    1
