@<TRIPOS>MOLECULE
*****
 37 39 0 0 0
SMALL
GASTEIGER

@<TRIPOS>ATOM
      1 O          -0.2161    0.4645    0.0228 O.2     1  UNL1       -0.2754
      2 C          -0.2340   -0.4035   -0.8823 C.2     1  UNL1        0.2192
      3 C           0.8792   -1.3689   -0.9523 C.3     1  UNL1        0.0685
      4 C           1.8971   -1.1513    0.1033 C.ar    1  UNL1        0.0780
      5 N           1.9505   -1.9679    1.1718 N.ar    1  UNL1       -0.1748
      6 N           2.8548   -1.8022    2.1391 N.ar    1  UNL1       -0.2425
      7 C           3.7734   -0.8214    2.1276 C.ar    1  UNL1        0.2725
      8 O           4.6226   -0.6761    3.0489 O.2     1  UNL1       -0.2658
      9 C           3.7709    0.0494    1.0586 C.ar    1  UNL1        0.0496
     10 C           4.6912    1.0771    0.9923 C.ar    1  UNL1       -0.0487
     11 C           4.6666    1.9360   -0.0904 C.ar    1  UNL1       -0.0610
     12 C           3.7161    1.7344   -1.0739 C.ar    1  UNL1       -0.0611
     13 C           2.7909    0.7091   -1.0166 C.ar    1  UNL1       -0.0521
     14 C           2.8168   -0.1342    0.0487 C.ar    1  UNL1        0.0108
     15 N          -1.2999   -0.4526   -1.8140 N.am    1  UNL1       -0.3109
     16 C          -2.3615    0.4926   -1.7245 C.3     1  UNL1        0.0369
     17 C          -3.3302    0.2488   -0.6564 C.ar    1  UNL1       -0.0289
     18 C          -4.4245    1.1018   -0.5929 C.ar    1  UNL1       -0.0570
     19 C          -5.4070    0.9851    0.3584 C.ar    1  UNL1       -0.0601
     20 C          -5.3282   -0.0011    1.2909 C.ar    1  UNL1       -0.0434
     21 C          -4.2415   -0.8674    1.2473 C.ar    1  UNL1        0.0413
     22 CL         -4.1391   -2.1416    2.4525 Cl      1  UNL1       -0.0835
     23 C          -3.2582   -0.7435    0.2879 C.ar    1  UNL1       -0.0387
     24 H           0.4348   -2.3909   -0.8688 H       1  UNL1        0.0423
     25 H           1.3538   -1.3641   -1.9767 H       1  UNL1        0.0423
     26 H           2.8646   -2.4551    2.9511 H       1  UNL1        0.1921
     27 H           5.4400    1.2472    1.7516 H       1  UNL1        0.0625
     28 H           5.3941    2.7519   -0.1474 H       1  UNL1        0.0618
     29 H           3.7074    2.4236   -1.9285 H       1  UNL1        0.0618
     30 H           2.0718    0.5893   -1.7998 H       1  UNL1        0.0624
     31 H          -1.3154   -1.1817   -2.5729 H       1  UNL1        0.1490
     32 H          -2.9315    0.5073   -2.6907 H       1  UNL1        0.0512
     33 H          -1.8993    1.5154   -1.6085 H       1  UNL1        0.0512
     34 H          -4.5338    1.9016   -1.3103 H       1  UNL1        0.0621
     35 H          -6.2478    1.6857    0.3611 H       1  UNL1        0.0618
     36 H          -6.1062   -0.0870    2.0381 H       1  UNL1        0.0632
     37 H          -2.4226   -1.4101    0.2551 H       1  UNL1        0.0635
@<TRIPOS>BOND
     1     1     2    2
     2     2     3    1
     3     2    15   am
     4     3     4    1
     5     3    24    1
     6     3    25    1
     7     4     5   ar
     8     5     6   ar
     9     6     7   ar
    10     6    26    1
    11     7     8    2
    12     7     9   ar
    13     9    10   ar
    14    10    11   ar
    15    10    27    1
    16    11    12   ar
    17    11    28    1
    18    12    13   ar
    19    12    29    1
    20    13    14   ar
    21    13    30    1
    22    14     4   ar
    23    14     9   ar
    24    15    16    1
    25    15    31    1
    26    16    17    1
    27    16    32    1
    28    16    33    1
    29    17    18   ar
    30    18    19   ar
    31    18    34    1
    32    19    20   ar
    33    19    35    1
    34    20    21   ar
    35    20    36    1
    36    21    22    1
    37    21    23   ar
    38    23    17   ar
    39    23    37    1
