@<TRIPOS>MOLECULE
*****
 43 47 0 0 0
SMALL
GASTEIGER

@<TRIPOS>ATOM
      1 N          -3.4342   -0.8121   -2.3490 N.2     1  UNL1       -0.2917
      2 C          -3.6957   -0.1525   -1.2454 C.2     1  UNL1        0.2504
      3 C          -5.1014    0.1461   -0.8878 C.3     1  UNL1        0.0478
      4 C          -5.1807    0.6419    0.5326 C.3     1  UNL1       -0.0318
      5 C          -4.2834    1.8309    0.7984 C.3     1  UNL1        0.0484
      6 C          -2.8957    1.5013    0.3303 C.2     1  UNL1        0.3083
      7 O          -1.9565    2.3122    0.5586 O.2     1  UNL1       -0.2471
      8 N          -2.6615    0.2716   -0.3694 N.am    1  UNL1       -0.1261
      9 C          -1.4808   -0.4848   -0.1950 C.ar    1  UNL1        0.1718
     10 C          -1.0425   -1.5268   -0.9722 C.ar    1  UNL1        0.0312
     11 C          -0.3681   -2.6250   -1.6029 C.ar    1  UNL1       -0.0418
     12 C           0.1897   -2.0249   -0.4420 C.ar    1  UNL1       -0.0068
     13 C           0.4534   -1.2326    0.6731 C.ar    1  UNL1        0.0055
     14 C           1.6473   -1.4818    1.5224 C.3     1  UNL1        0.0205
     15 C           2.8491   -1.2061    0.7471 C.ar    1  UNL1        0.0737
     16 N           3.4896   -2.2751    0.1731 N.ar    1  UNL1       -0.1750
     17 N           4.5501   -2.1208   -0.5770 N.ar    1  UNL1       -0.2425
     18 C           5.0688   -0.9301   -0.8283 C.ar    1  UNL1        0.2725
     19 O           6.0985   -0.8384   -1.5614 O.2     1  UNL1       -0.2658
     20 C           4.5067    0.2168   -0.3041 C.ar    1  UNL1        0.0496
     21 C           5.0396    1.4524   -0.5525 C.ar    1  UNL1       -0.0487
     22 C           4.4473    2.5635    0.0031 C.ar    1  UNL1       -0.0610
     23 C           3.3263    2.4100    0.7994 C.ar    1  UNL1       -0.0611
     24 C           2.8069    1.1564    1.0356 C.ar    1  UNL1       -0.0521
     25 C           3.3645    0.0281    0.5029 C.ar    1  UNL1        0.0106
     26 C          -0.5378   -0.3171    0.8245 C.ar    1  UNL1        0.1730
     27 F          -0.6239    0.6166    1.8349 F       1  UNL1       -0.2009
     28 H          -4.2585   -1.0955   -2.9245 H       1  UNL1        0.3006
     29 H          -2.4884   -1.0470   -2.6869 H       1  UNL1        0.3006
     30 H          -5.6970   -0.8015   -0.9298 H       1  UNL1        0.0386
     31 H          -5.5713    0.8561   -1.6067 H       1  UNL1        0.0386
     32 H          -6.2351    0.8513    0.7979 H       1  UNL1        0.0276
     33 H          -4.7864   -0.1978    1.1834 H       1  UNL1        0.0276
     34 H          -4.2713    1.9687    1.9177 H       1  UNL1        0.0382
     35 H          -4.6485    2.7738    0.3890 H       1  UNL1        0.0382
     36 H          -0.3421   -3.3439   -2.3853 H       1  UNL1        0.0631
     37 H           1.5910   -0.9027    2.4755 H       1  UNL1        0.0378
     38 H           1.6122   -2.5505    1.8205 H       1  UNL1        0.0378
     39 H           4.9942   -2.9914   -0.9835 H       1  UNL1        0.1921
     40 H           5.8991    1.5556   -1.1701 H       1  UNL1        0.0625
     41 H           4.8577    3.5376   -0.1880 H       1  UNL1        0.0618
     42 H           2.8387    3.2615    1.2519 H       1  UNL1        0.0618
     43 H           1.9299    1.0058    1.6706 H       1  UNL1        0.0624
@<TRIPOS>UNITY_ATOM_ATTR
1 1
charge 1
@<TRIPOS>BOND
     1     1     2    2
     2     1    28    1
     3     1    29    1
     4     2     3    1
     5     3     4    1
     6     3    30    1
     7     3    31    1
     8     4     5    1
     9     4    32    1
    10     4    33    1
    11     5     6    1
    12     5    34    1
    13     5    35    1
    14     6     7    2
    15     6     8   am
    16     8     9    1
    17     8     2    1
    18     9    10   ar
    19    10    11   ar
    20    11    12   ar
    21    11    36    1
    22    12    13   ar
    23    12    10    1
    24    13    14    1
    25    13    26   ar
    26    14    15    1
    27    14    37    1
    28    14    38    1
    29    15    16   ar
    30    16    17   ar
    31    17    18   ar
    32    17    39    1
    33    18    19    2
    34    18    20   ar
    35    20    21   ar
    36    21    22   ar
    37    21    40    1
    38    22    23   ar
    39    22    41    1
    40    23    24   ar
    41    23    42    1
    42    24    25   ar
    43    24    43    1
    44    25    15   ar
    45    25    20   ar
    46    26    27    1
    47    26     9   ar
