@<TRIPOS>MOLECULE
*****
 42 44 0 0 0
SMALL
GASTEIGER

@<TRIPOS>ATOM
      1 N           8.7840    2.1182    1.5282 N.2     1  UNL1       -0.2986
      2 C           7.7738    2.5763    1.0490 C.2     1  UNL1        0.0685
      3 C           6.4999    1.6650    0.7984 C.1     1  UNL1       -0.0535
      4 C           5.5886    1.0171    0.6371 C.1     1  UNL1       -0.0771
      5 C           4.4427    0.2151    0.4583 C.3     1  UNL1        0.0742
      6 N           3.2582    0.9414    0.0305 N.am    1  UNL1       -0.3004
      7 C           2.0656    0.0992   -0.0123 C.2     1  UNL1        0.2476
      8 O           2.1333   -1.0666    0.2755 O.2     1  UNL1       -0.2701
      9 C           0.8085    0.7632   -0.4153 C.ar    1  UNL1        0.0721
     10 C          -0.0737   -0.0241   -1.1381 C.ar    1  UNL1       -0.0433
     11 C          -1.2999    0.5119   -1.6153 C.ar    1  UNL1       -0.0406
     12 C          -2.2592   -0.4364   -2.3522 C.3     1  UNL1        0.0171
     13 C          -2.5666   -1.4818   -1.3113 C.ar    1  UNL1        0.0736
     14 N          -1.7456   -2.5268   -1.2589 N.ar    1  UNL1       -0.1750
     15 N          -1.7078   -3.3874   -0.2670 N.ar    1  UNL1       -0.2425
     16 C          -2.5534   -3.2183    0.8008 C.ar    1  UNL1        0.2725
     17 O          -2.5316   -4.0171    1.7736 O.2     1  UNL1       -0.2658
     18 C          -3.4166   -2.1814    0.8234 C.ar    1  UNL1        0.0496
     19 C          -4.2979   -1.8986    1.8498 C.ar    1  UNL1       -0.0487
     20 C          -5.1528   -0.8570    1.8833 C.ar    1  UNL1       -0.0610
     21 C          -5.1907    0.0676    0.7589 C.ar    1  UNL1       -0.0611
     22 C          -4.2960   -0.2635   -0.2197 C.ar    1  UNL1       -0.0521
     23 C          -3.4306   -1.2735   -0.2862 C.ar    1  UNL1        0.0106
     24 C          -1.5217    1.8179   -1.3242 C.ar    1  UNL1       -0.0555
     25 C          -0.6641    2.5840   -0.6168 C.ar    1  UNL1       -0.0254
     26 C           0.5482    2.0610   -0.1383 C.ar    1  UNL1        0.1355
     27 F           1.3977    2.8168    0.6113 F       1  UNL1       -0.2047
     28 H           8.9545    1.1107    1.8311 H       1  UNL1        0.1867
     29 H           7.5712    3.5733    0.7388 H       1  UNL1        0.0919
     30 H           4.1451   -0.3186    1.4417 H       1  UNL1        0.0599
     31 H           4.6724   -0.6647   -0.2297 H       1  UNL1        0.0599
     32 H           3.2351    1.9093   -0.2435 H       1  UNL1        0.1499
     33 H           0.1321   -1.0617   -1.3322 H       1  UNL1        0.0629
     34 H          -1.6370   -0.9359   -3.1020 H       1  UNL1        0.0377
     35 H          -3.0859    0.0523   -2.8162 H       1  UNL1        0.0377
     36 H          -1.0436   -4.1460   -0.3070 H       1  UNL1        0.1921
     37 H          -4.2472   -2.6230    2.6872 H       1  UNL1        0.0625
     38 H          -5.7986   -0.6687    2.7270 H       1  UNL1        0.0618
     39 H          -5.8583    0.8602    0.8220 H       1  UNL1        0.0618
     40 H          -4.3053    0.3913   -1.1241 H       1  UNL1        0.0624
     41 H          -2.4451    2.2783   -1.6885 H       1  UNL1        0.0621
     42 H          -0.8819    3.6211   -0.3805 H       1  UNL1        0.0646
@<TRIPOS>BOND
     1     1     2    2
     2     1    28    1
     3     2     3    1
     4     2    29    1
     5     3     4    3
     6     4     5    1
     7     5     6    1
     8     5    30    1
     9     5    31    1
    10     6     7   am
    11     6    32    1
    12     7     8    2
    13     7     9    1
    14     9    10   ar
    15    10    11   ar
    16    10    33    1
    17    11    12    1
    18    11    24   ar
    19    12    13    1
    20    12    34    1
    21    12    35    1
    22    13    14   ar
    23    14    15   ar
    24    15    16   ar
    25    15    36    1
    26    16    17    2
    27    16    18   ar
    28    18    19   ar
    29    19    20   ar
    30    19    37    1
    31    20    21   ar
    32    20    38    1
    33    21    22   ar
    34    21    39    1
    35    22    23   ar
    36    22    40    1
    37    23    13   ar
    38    23    18   ar
    39    24    25   ar
    40    24    41    1
    41    25    26   ar
    42    25    42    1
    43    26    27    1
    44    26     9   ar
