@<TRIPOS>MOLECULE
*****
 40 43 0 0 0
SMALL
GASTEIGER

@<TRIPOS>ATOM
      1 O           3.4235    0.9856   -2.3010 O.2     1  UNL1       -0.2666
      2 C           3.3898    0.6774   -1.0871 C.2     1  UNL1        0.2652
      3 C           2.2905    1.1756   -0.2895 C.ar    1  UNL1        0.0752
      4 C           0.9708    1.0090   -0.7399 C.ar    1  UNL1       -0.0431
      5 C          -0.1132    1.4847   -0.0486 C.ar    1  UNL1       -0.0406
      6 C          -1.5104    1.3321   -0.5163 C.3     1  UNL1        0.0171
      7 C          -2.0703    0.0598    0.0044 C.ar    1  UNL1        0.0736
      8 N          -1.3561   -0.7595    0.7926 N.ar    1  UNL1       -0.1750
      9 N          -1.8378   -1.8989    1.2688 N.ar    1  UNL1       -0.2425
     10 C          -3.0982   -2.2241    0.9330 C.ar    1  UNL1        0.2725
     11 O          -3.5508   -3.3103    1.3895 O.2     1  UNL1       -0.2658
     12 C          -3.8880   -1.4402    0.1342 C.ar    1  UNL1        0.0496
     13 C          -5.1904   -1.7774   -0.2133 C.ar    1  UNL1       -0.0487
     14 C          -5.9358   -0.9486   -1.0212 C.ar    1  UNL1       -0.0610
     15 C          -5.4450    0.2380   -1.5219 C.ar    1  UNL1       -0.0611
     16 C          -4.1425    0.5616   -1.1664 C.ar    1  UNL1       -0.0521
     17 C          -3.3842   -0.2602   -0.3570 C.ar    1  UNL1        0.0106
     18 C           0.1182    2.1564    1.1445 C.ar    1  UNL1       -0.0555
     19 C           1.3829    2.3508    1.6353 C.ar    1  UNL1       -0.0254
     20 C           2.4481    1.8595    0.9128 C.ar    1  UNL1        0.1357
     21 F           3.7403    2.0620    1.3421 F       1  UNL1       -0.2047
     22 N           4.3997   -0.1303   -0.5393 N.ar    1  UNL1       -0.2903
     23 C           5.4579   -0.5850   -1.2659 C.ar    1  UNL1        0.0127
     24 C           6.2721   -1.3716   -0.4995 C.ar    1  UNL1       -0.0437
     25 C           5.7089   -1.4121    0.7426 C.ar    1  UNL1       -0.0437
     26 C           4.5594   -0.6393    0.6845 C.ar    1  UNL1        0.0127
     27 H           0.8173    0.4805   -1.6727 H       1  UNL1        0.0629
     28 H          -2.0964    2.1987   -0.0919 H       1  UNL1        0.0377
     29 H          -1.5732    1.3896   -1.6229 H       1  UNL1        0.0377
     30 H          -1.2069   -2.4630    1.8698 H       1  UNL1        0.1921
     31 H          -5.5817   -2.6995    0.1723 H       1  UNL1        0.0625
     32 H          -6.9477   -1.2131   -1.2902 H       1  UNL1        0.0618
     33 H          -6.0144    0.9016   -2.1571 H       1  UNL1        0.0618
     34 H          -3.6906    1.4766   -1.5224 H       1  UNL1        0.0624
     35 H          -0.7169    2.5376    1.7047 H       1  UNL1        0.0621
     36 H           1.5736    2.8675    2.5536 H       1  UNL1        0.0646
     37 H           5.6452   -0.3630   -2.3111 H       1  UNL1        0.0814
     38 H           7.1850   -1.8723   -0.7975 H       1  UNL1        0.0633
     39 H           6.0673   -1.9344    1.6164 H       1  UNL1        0.0633
     40 H           3.9000   -0.5020    1.5208 H       1  UNL1        0.0814
@<TRIPOS>BOND
     1     1     2    2
     2     2     3    1
     3     2    22   am
     4     3     4   ar
     5     4     5   ar
     6     4    27    1
     7     5     6    1
     8     5    18   ar
     9     6     7    1
    10     6    28    1
    11     6    29    1
    12     7     8   ar
    13     8     9   ar
    14     9    10   ar
    15     9    30    1
    16    10    11    2
    17    10    12   ar
    18    12    13   ar
    19    13    14   ar
    20    13    31    1
    21    14    15   ar
    22    14    32    1
    23    15    16   ar
    24    15    33    1
    25    16    17   ar
    26    16    34    1
    27    17     7   ar
    28    17    12   ar
    29    18    19   ar
    30    18    35    1
    31    19    20   ar
    32    19    36    1
    33    20    21    1
    34    20     3   ar
    35    22    23   ar
    36    23    24   ar
    37    23    37    1
    38    24    25   ar
    39    24    38    1
    40    25    26   ar
    41    25    39    1
    42    26    22   ar
    43    26    40    1
