@<TRIPOS>MOLECULE
*****
 37 39 0 0 0
SMALL
GASTEIGER

@<TRIPOS>ATOM
      1 O           5.2239    2.4762   -1.4316 O.2     1  UNL1       -0.2451
      2 C           5.4669    1.6770   -0.5048 C.2     1  UNL1        0.3369
      3 O           6.7055    1.6510    0.0634 O.3     1  UNL1       -0.4771
      4 C           4.4097    0.7622   -0.0384 C.ar    1  UNL1        0.0606
      5 C           4.7117   -0.1823    0.9195 C.ar    1  UNL1       -0.0477
      6 C           3.7608   -1.0606    1.3798 C.ar    1  UNL1       -0.0592
      7 C           2.4934   -0.9925    0.8849 C.ar    1  UNL1       -0.0408
      8 C           2.1229   -0.0429   -0.1002 C.ar    1  UNL1        0.0282
      9 N           0.7606    0.0264   -0.5047 N.pl3   1  UNL1       -0.3396
     10 C          -0.3195    0.0915    0.5096 C.3     1  UNL1        0.0384
     11 C          -1.5683   -0.4565   -0.0231 C.ar    1  UNL1        0.0186
     12 C          -1.5564   -1.7871   -0.4737 C.ar    1  UNL1        0.1221
     13 O          -0.3412   -2.4432   -0.4757 O.3     1  UNL1       -0.5064
     14 C          -2.6942   -2.4204   -0.8985 C.ar    1  UNL1       -0.0193
     15 C          -3.8610   -1.7271   -0.8757 C.ar    1  UNL1       -0.0506
     16 C          -3.9154   -0.4122   -0.4367 C.ar    1  UNL1       -0.0173
     17 C          -5.1442    0.2035   -0.4179 C.ar    1  UNL1       -0.0540
     18 C          -5.2545    1.4814    0.0435 C.ar    1  UNL1       -0.0612
     19 C          -4.1306    2.1592    0.4876 C.ar    1  UNL1       -0.0612
     20 C          -2.9084    1.5150    0.4515 C.ar    1  UNL1       -0.0536
     21 C          -2.7487    0.2239   -0.0073 C.ar    1  UNL1       -0.0097
     22 C           3.1247    0.8049   -0.5193 C.ar    1  UNL1       -0.0269
     23 H           7.5811    1.7897   -0.4600 H       1  UNL1        0.2954
     24 H           5.7059   -0.2443    1.3217 H       1  UNL1        0.0626
     25 H           4.0652   -1.8069    2.1280 H       1  UNL1        0.0618
     26 H           1.7257   -1.6571    1.1816 H       1  UNL1        0.0636
     27 H           0.5097    0.0437   -1.4912 H       1  UNL1        0.1464
     28 H          -0.5021    1.2385    0.6195 H       1  UNL1        0.0512
     29 H           0.0144   -0.3278    1.4433 H       1  UNL1        0.0512
     30 H          -0.2420   -3.3837   -0.8158 H       1  UNL1        0.2921
     31 H          -2.6800   -3.4230   -1.2300 H       1  UNL1        0.0654
     32 H          -4.8082   -2.2018   -1.2043 H       1  UNL1        0.0625
     33 H          -6.0336   -0.3295   -0.7671 H       1  UNL1        0.0624
     34 H          -6.2000    2.0017    0.0670 H       1  UNL1        0.0618
     35 H          -4.2843    3.1478    0.8699 H       1  UNL1        0.0618
     36 H          -2.0569    2.0641    0.7999 H       1  UNL1        0.0624
     37 H           2.8674    1.5409   -1.2591 H       1  UNL1        0.0644
@<TRIPOS>BOND
     1     1     2    2
     2     2     3    1
     3     2     4    1
     4     3    23    1
     5     4     5   ar
     6     5     6   ar
     7     5    24    1
     8     6     7   ar
     9     6    25    1
    10     7     8   ar
    11     7    26    1
    12     8     9    1
    13     8    22   ar
    14     9    10    1
    15     9    27    1
    16    10    11    1
    17    10    28    1
    18    10    29    1
    19    11    12   ar
    20    12    13    1
    21    12    14   ar
    22    13    30    1
    23    14    15   ar
    24    14    31    1
    25    15    16   ar
    26    15    32    1
    27    16    17   ar
    28    17    18   ar
    29    17    33    1
    30    18    19   ar
    31    18    34    1
    32    19    20   ar
    33    19    35    1
    34    20    21   ar
    35    20    36    1
    36    21    11   ar
    37    21    16   ar
    38    22     4   ar
    39    22    37    1
