@<TRIPOS>MOLECULE
*****
 28 30 0 0 0
SMALL
GASTEIGER

@<TRIPOS>ATOM
      1 O          -0.9675    1.3204    3.0823 O.2     1  UNL1       -0.1499
      2 S          -0.2911    0.4568    2.0526 S.O2    1  UNL1        0.0746
      3 O           0.4364   -0.6504    2.7892 O.2     1  UNL1       -0.1499
      4 N           0.9089    1.3693    1.2169 N.pl3   1  UNL1       -0.2134
      5 C           1.7794    0.8074    0.2476 C.ar    1  UNL1        0.0832
      6 C           1.8253   -0.5500    0.0089 C.ar    1  UNL1       -0.0365
      7 C           2.7002   -1.0522   -0.9521 C.ar    1  UNL1       -0.0598
      8 C           3.5359   -0.2322   -1.6863 C.ar    1  UNL1       -0.0589
      9 C           3.4919    1.1235   -1.4497 C.ar    1  UNL1       -0.0246
     10 C           2.6288    1.6193   -0.5016 C.ar    1  UNL1        0.1456
     11 F           2.6218    2.9556   -0.3054 F       1  UNL1       -0.2035
     12 C          -1.4848   -0.2260    0.9903 C.ar    1  UNL1        0.1392
     13 C          -1.6512   -1.5879    0.9634 C.ar    1  UNL1       -0.0327
     14 C          -2.5793   -2.2040    0.1511 C.ar    1  UNL1       -0.0577
     15 C          -3.3794   -1.4177   -0.6740 C.ar    1  UNL1       -0.0307
     16 C          -3.2278   -0.0475   -0.6618 C.ar    1  UNL1        0.1361
     17 N          -3.8135    0.9540   -1.3064 N.ar    1  UNL1       -0.0489
     18 O          -3.2797    2.0712   -0.9115 O.2     1  UNL1       -0.2415
     19 N          -2.3560    1.8565   -0.0246 N.ar    1  UNL1       -0.0469
     20 C          -2.2813    0.5428    0.1701 C.ar    1  UNL1        0.1606
     21 H           1.0079    2.3849    1.4272 H       1  UNL1        0.1738
     22 H           1.1802   -1.2045    0.5753 H       1  UNL1        0.0637
     23 H           2.7342   -2.1195   -1.1377 H       1  UNL1        0.0618
     24 H           4.1966   -0.6676   -2.4199 H       1  UNL1        0.0618
     25 H           4.1485    1.7843   -2.0240 H       1  UNL1        0.0647
     26 H          -1.0271   -2.1890    1.6059 H       1  UNL1        0.0638
     27 H          -2.7312   -3.2731    0.1101 H       1  UNL1        0.0619
     28 H          -4.1263   -1.8244   -1.3361 H       1  UNL1        0.0640
@<TRIPOS>BOND
     1     1     2    2
     2     2     3    2
     3     2     4    1
     4     2    12    1
     5     4     5    1
     6     4    21    1
     7     5     6   ar
     8     6     7   ar
     9     6    22    1
    10     7     8   ar
    11     7    23    1
    12     8     9   ar
    13     8    24    1
    14     9    10   ar
    15     9    25    1
    16    10    11    1
    17    10     5   ar
    18    12    13   ar
    19    13    14   ar
    20    13    26    1
    21    14    15   ar
    22    14    27    1
    23    15    16   ar
    24    15    28    1
    25    16    17   ar
    26    17    18   ar
    27    18    19   ar
    28    19    20   ar
    29    20    12   ar
    30    20    16   ar
