@<TRIPOS>MOLECULE
*****
 45 47 0 0 0
SMALL
GASTEIGER

@<TRIPOS>ATOM
      1 N          -7.2071   -1.8737   -0.5996 N.pl3   1  UNL1       -0.3580
      2 C          -6.0391   -1.1536   -0.2507 C.ar    1  UNL1        0.0246
      3 C          -4.8309   -1.5227   -0.7844 C.ar    1  UNL1       -0.0403
      4 C          -3.6760   -0.8055   -0.4353 C.ar    1  UNL1       -0.0479
      5 C          -3.7382    0.2535    0.4273 C.ar    1  UNL1        0.0370
      6 C          -2.5864    1.0277    0.8228 C.2     1  UNL1        0.2480
      7 O          -2.7330    2.0018    1.6379 O.2     1  UNL1       -0.2700
      8 N          -1.2610    0.7875    0.3651 N.am    1  UNL1       -0.2709
      9 C          -0.1190    1.5854    0.7816 C.3     1  UNL1        0.0458
     10 N           0.8305    0.8500    1.5679 N.4     1  UNL1        0.2344
     11 C           0.4574    2.2604   -0.4157 C.3     1  UNL1        0.0149
     12 C           0.9585    1.4037   -1.5121 C.3     1  UNL1        0.0123
     13 C           2.0684    0.4912   -1.1725 C.ar    1  UNL1        0.1106
     14 N           3.3401    0.9442   -1.2693 N.ar    1  UNL1       -0.2337
     15 C           4.3715    0.1318   -0.9857 C.ar    1  UNL1        0.0781
     16 C           5.6795    0.6228   -1.0929 C.ar    1  UNL1       -0.0355
     17 C           6.7046   -0.2452   -0.7924 C.ar    1  UNL1       -0.0597
     18 C           6.4824   -1.5459   -0.4006 C.ar    1  UNL1       -0.0609
     19 C           5.1949   -2.0292   -0.2951 C.ar    1  UNL1       -0.0474
     20 C           4.1374   -1.1680   -0.5945 C.ar    1  UNL1        0.0647
     21 C           2.8272   -1.6031   -0.5046 C.ar    1  UNL1        0.2592
     22 O           2.6186   -2.8082   -0.1416 O.2     1  UNL1       -0.2672
     23 N           1.8116   -0.7679   -0.7947 N.ar    1  UNL1       -0.3103
     24 C          -4.9703    0.5921    0.9413 C.ar    1  UNL1       -0.0479
     25 C          -6.1228   -0.1066    0.6065 C.ar    1  UNL1       -0.0403
     26 H          -8.1040   -1.3255   -0.6640 H       1  UNL1        0.1423
     27 H          -7.1762   -2.9074   -0.7850 H       1  UNL1        0.1423
     28 H          -4.7528   -2.3552   -1.4684 H       1  UNL1        0.0636
     29 H          -2.7234   -1.0873   -0.8487 H       1  UNL1        0.0626
     30 H          -1.1453   -0.0029   -0.3000 H       1  UNL1        0.1543
     31 H          -0.5685    2.3729    1.4612 H       1  UNL1        0.1077
     32 H           0.7566    1.1858    2.5734 H       1  UNL1        0.2013
     33 H           0.6247   -0.1725    1.6386 H       1  UNL1        0.2013
     34 H           1.7994    1.0800    1.2781 H       1  UNL1        0.2013
     35 H           1.3010    2.9322   -0.0863 H       1  UNL1        0.0342
     36 H          -0.2945    2.9742   -0.8698 H       1  UNL1        0.0342
     37 H           1.3606    2.0979   -2.3110 H       1  UNL1        0.0346
     38 H           0.1443    0.8515   -2.0480 H       1  UNL1        0.0346
     39 H           5.8493    1.6436   -1.4006 H       1  UNL1        0.0639
     40 H           7.7179    0.1654   -0.8848 H       1  UNL1        0.0618
     41 H           7.3367   -2.1888   -0.1749 H       1  UNL1        0.0618
     42 H           4.9834   -3.0443    0.0095 H       1  UNL1        0.0626
     43 H           0.8540   -1.1563   -0.7110 H       1  UNL1        0.1700
     44 H          -5.0910    1.4179    1.6282 H       1  UNL1        0.0626
     45 H          -7.0710    0.1963    1.0360 H       1  UNL1        0.0636
@<TRIPOS>UNITY_ATOM_ATTR
10 1
charge 1
@<TRIPOS>BOND
     1     1     2    1
     2     1    26    1
     3     1    27    1
     4     2     3   ar
     5     3     4   ar
     6     3    28    1
     7     4     5   ar
     8     4    29    1
     9     5     6    1
    10     5    24   ar
    11     6     7    2
    12     6     8   am
    13     8     9    1
    14     8    30    1
    15     9    10    1
    16     9    11    1
    17     9    31    1
    18    10    32    1
    19    10    33    1
    20    10    34    1
    21    11    12    1
    22    11    35    1
    23    11    36    1
    24    12    13    1
    25    12    37    1
    26    12    38    1
    27    13    14   ar
    28    14    15   ar
    29    15    16   ar
    30    16    17   ar
    31    16    39    1
    32    17    18   ar
    33    17    40    1
    34    18    19   ar
    35    18    41    1
    36    19    20   ar
    37    19    42    1
    38    20    21   ar
    39    20    15   ar
    40    21    22    2
    41    21    23   ar
    42    23    13   ar
    43    23    43    1
    44    24    25   ar
    45    24    44    1
    46    25     2   ar
    47    25    45    1
