@<TRIPOS>MOLECULE
*****
 34 36 0 0 0
SMALL
GASTEIGER

@<TRIPOS>ATOM
      1 N           4.0317   -0.4174    2.4101 N.2     1  UNL1       -0.2466
      2 S           5.0950   -0.0243    1.3268 S.3     1  UNL1        0.0680
      3 O           4.5766   -0.4321   -0.2435 O.3     1  UNL1       -0.4186
      4 C           3.5153    0.1568   -0.8959 C.ar    1  UNL1        0.1393
      5 C           3.6648    1.2724   -1.6897 C.ar    1  UNL1       -0.0184
      6 C           2.5591    1.8094   -2.3129 C.ar    1  UNL1       -0.0580
      7 C           1.2900    1.2663   -2.1713 C.ar    1  UNL1       -0.0580
      8 C           1.1502    0.1530   -1.3772 C.ar    1  UNL1       -0.0380
      9 C          -0.1517   -0.4857   -1.1717 C.3     1  UNL1        0.0172
     10 C          -0.9011    0.0486   -0.0132 C.ar    1  UNL1        0.0736
     11 N          -0.4482    1.0251    0.7849 N.ar    1  UNL1       -0.1750
     12 N          -1.1606    1.4735    1.8176 N.ar    1  UNL1       -0.2425
     13 C          -2.3734    0.9401    2.0805 C.ar    1  UNL1        0.2725
     14 O          -3.0642    1.3481    3.0510 O.2     1  UNL1       -0.2658
     15 C          -2.8855   -0.0630    1.2946 C.ar    1  UNL1        0.0496
     16 C          -4.1244   -0.6039    1.5677 C.ar    1  UNL1       -0.0487
     17 C          -4.6095   -1.6048    0.7648 C.ar    1  UNL1       -0.0610
     18 C          -3.8677   -2.0546   -0.2908 C.ar    1  UNL1       -0.0611
     19 C          -2.6439   -1.5163   -0.5559 C.ar    1  UNL1       -0.0521
     20 C          -2.1388   -0.5083    0.2407 C.ar    1  UNL1        0.0106
     21 C           2.2594   -0.3768   -0.7586 C.ar    1  UNL1       -0.0149
     22 H           3.1612   -0.8608    2.1170 H       1  UNL1        0.1976
     23 H           5.3379    1.3553    1.3531 H       1  UNL1        0.1591
     24 H           4.6655    1.7121   -1.8099 H       1  UNL1        0.0654
     25 H           2.6862    2.6947   -2.9411 H       1  UNL1        0.0619
     26 H           0.4400    1.7280   -2.6865 H       1  UNL1        0.0620
     27 H          -0.7602   -0.4079   -2.1136 H       1  UNL1        0.0377
     28 H          -0.0094   -1.5815   -0.9766 H       1  UNL1        0.0377
     29 H          -0.8252    2.2235    2.4396 H       1  UNL1        0.1921
     30 H          -4.6973   -0.2287    2.4150 H       1  UNL1        0.0625
     31 H          -5.5873   -2.0191    0.9950 H       1  UNL1        0.0618
     32 H          -4.2519   -2.8454   -0.9245 H       1  UNL1        0.0618
     33 H          -2.0830   -1.9076   -1.4131 H       1  UNL1        0.0624
     34 H           2.1505   -1.2685   -0.1220 H       1  UNL1        0.0657
@<TRIPOS>BOND
     1     1     2    2
     2     1    22    1
     3     2     3    1
     4     2    23    1
     5     3     4    1
     6     4     5   ar
     7     5     6   ar
     8     5    24    1
     9     6     7   ar
    10     6    25    1
    11     7     8   ar
    12     7    26    1
    13     8     9    1
    14     8    21   ar
    15     9    10    1
    16     9    27    1
    17     9    28    1
    18    10    11   ar
    19    11    12   ar
    20    12    13   ar
    21    12    29    1
    22    13    14    2
    23    13    15   ar
    24    15    16   ar
    25    16    17   ar
    26    16    30    1
    27    17    18   ar
    28    17    31    1
    29    18    19   ar
    30    18    32    1
    31    19    20   ar
    32    19    33    1
    33    20    10   ar
    34    20    15   ar
    35    21     4   ar
    36    21    34    1
