@<TRIPOS>MOLECULE
*****
 40 43 0 0 0
SMALL
GASTEIGER

@<TRIPOS>ATOM
      1 O           0.6766    0.0379    1.9567 O.2     1  UNL1       -0.2702
      2 C           1.0650    0.0856    0.6898 C.2     1  UNL1        0.2450
      3 N           0.0185   -0.3897   -0.1984 N.am    1  UNL1       -0.3057
      4 C          -1.1740   -0.6558    0.5335 C.3     1  UNL1        0.0565
      5 C          -2.4275   -1.2311    0.1578 C.ar    1  UNL1        0.0863
      6 N          -2.7290   -2.5280    0.2065 N.ar    1  UNL1       -0.1737
      7 N          -3.9812   -2.9511    0.2106 N.ar    1  UNL1       -0.2424
      8 C          -5.0362   -2.1172    0.1646 C.ar    1  UNL1        0.2725
      9 O          -6.2015   -2.5635    0.1859 O.2     1  UNL1       -0.2658
     10 C          -4.8372   -0.7533    0.0997 C.ar    1  UNL1        0.0496
     11 C          -5.9087    0.1228   -0.0437 C.ar    1  UNL1       -0.0487
     12 C          -5.6063    1.4655   -0.2024 C.ar    1  UNL1       -0.0610
     13 C          -4.2888    1.8722   -0.2035 C.ar    1  UNL1       -0.0611
     14 C          -3.2363    1.0004   -0.0537 C.ar    1  UNL1       -0.0520
     15 C          -3.5356   -0.3336    0.0978 C.ar    1  UNL1        0.0118
     16 C           2.3547    0.5989    0.4787 C.ar    1  UNL1        0.0444
     17 C           2.4499    1.9853    0.9256 C.ar    1  UNL1       -0.0490
     18 C           3.5787    2.7092    0.8626 C.ar    1  UNL1       -0.0605
     19 C           4.7172    2.1277    0.3625 C.ar    1  UNL1       -0.0540
     20 C           4.6597    0.8288   -0.0601 C.ar    1  UNL1       -0.0172
     21 C           5.8321    0.2889   -0.5085 C.ar    1  UNL1       -0.0540
     22 C           5.8828   -1.0078   -0.9157 C.ar    1  UNL1       -0.0612
     23 C           4.6975   -1.7476   -0.8559 C.ar    1  UNL1       -0.0611
     24 C           3.4990   -1.2840   -0.4295 C.ar    1  UNL1       -0.0533
     25 C           3.4921    0.0655   -0.0117 C.ar    1  UNL1       -0.0058
     26 H           0.2575   -0.4347   -1.1816 H       1  UNL1        0.1494
     27 H          -0.7658   -1.4491    1.3348 H       1  UNL1        0.0528
     28 H          -1.3423    0.2120    1.3048 H       1  UNL1        0.0528
     29 H          -4.2074   -3.9546    0.2702 H       1  UNL1        0.1921
     30 H          -6.9202   -0.2019   -0.0237 H       1  UNL1        0.0625
     31 H          -6.3836    2.2372   -0.3469 H       1  UNL1        0.0618
     32 H          -4.0054    2.9297   -0.3408 H       1  UNL1        0.0618
     33 H          -2.2184    1.3040   -0.0728 H       1  UNL1        0.0624
     34 H           1.5484    2.4085    1.2978 H       1  UNL1        0.0625
     35 H           3.6330    3.7535    1.1928 H       1  UNL1        0.0618
     36 H           5.6234    2.7144    0.3086 H       1  UNL1        0.0624
     37 H           6.7462    0.9006   -0.5355 H       1  UNL1        0.0624
     38 H           6.7687   -1.4553   -1.2496 H       1  UNL1        0.0618
     39 H           4.7446   -2.7822   -1.1951 H       1  UNL1        0.0618
     40 H           2.5598   -1.8083   -0.3609 H       1  UNL1        0.0624
@<TRIPOS>BOND
     1     1     2    2
     2     2     3   am
     3     2    16    1
     4     3     4    1
     5     3    26    1
     6     4     5    1
     7     4    27    1
     8     4    28    1
     9     5     6   ar
    10     6     7   ar
    11     7     8   ar
    12     7    29    1
    13     8     9    2
    14     8    10   ar
    15    10    11   ar
    16    11    12   ar
    17    11    30    1
    18    12    13   ar
    19    12    31    1
    20    13    14   ar
    21    13    32    1
    22    14    15   ar
    23    14    33    1
    24    15     5   ar
    25    15    10   ar
    26    16    17   ar
    27    17    18   ar
    28    17    34    1
    29    18    19   ar
    30    18    35    1
    31    19    20   ar
    32    19    36    1
    33    20    21   ar
    34    21    22   ar
    35    21    37    1
    36    22    23   ar
    37    22    38    1
    38    23    24   ar
    39    23    39    1
    40    24    25   ar
    41    24    40    1
    42    25    16   ar
    43    25    20   ar
