@<TRIPOS>MOLECULE
*****
 39 42 0 0 0
SMALL
GASTEIGER

@<TRIPOS>ATOM
      1 O          -3.9012    1.7217    2.8932 O.2     1  UNL1       -0.2658
      2 C          -3.2329    0.8977    2.2167 C.ar    1  UNL1        0.2725
      3 N          -2.1264    0.3253    2.7120 N.ar    1  UNL1       -0.2425
      4 N          -1.4618   -0.5166    1.9884 N.ar    1  UNL1       -0.1750
      5 C          -1.7780   -0.9053    0.7143 C.ar    1  UNL1        0.0736
      6 C          -0.8741   -1.8207   -0.0254 C.3     1  UNL1        0.0171
      7 C           0.1694   -1.1553   -0.8164 C.ar    1  UNL1       -0.0408
      8 C           0.0458   -0.8909   -2.1405 C.ar    1  UNL1       -0.0555
      9 C           1.0623   -0.2468   -2.8716 C.ar    1  UNL1       -0.0256
     10 C           2.2166    0.1324   -2.2528 C.ar    1  UNL1        0.1311
     11 F           3.2155    0.7574   -2.9462 F       1  UNL1       -0.2049
     12 C           2.3870   -0.1157   -0.9080 C.ar    1  UNL1        0.0177
     13 C           3.6222    0.2903   -0.2320 C.ar    1  UNL1       -0.0123
     14 C           4.1700    1.5381   -0.3909 C.ar    1  UNL1       -0.0358
     15 C           5.3467    1.9021    0.2628 C.ar    1  UNL1        0.0281
     16 N           5.9515    1.0053    1.0638 N.ar    1  UNL1       -0.2632
     17 C           5.4468   -0.2250    1.2452 C.ar    1  UNL1        0.0281
     18 C           4.2646   -0.6017    0.5933 C.ar    1  UNL1       -0.0358
     19 C           1.3764   -0.7435   -0.2325 C.ar    1  UNL1       -0.0477
     20 C          -2.9071   -0.3444    0.1672 C.ar    1  UNL1        0.0106
     21 C          -3.3110   -0.7004   -1.0976 C.ar    1  UNL1       -0.0521
     22 C          -4.4560   -0.1359   -1.6057 C.ar    1  UNL1       -0.0611
     23 C          -5.1849    0.7673   -0.8630 C.ar    1  UNL1       -0.0610
     24 C          -4.7840    1.1251    0.4064 C.ar    1  UNL1       -0.0487
     25 C          -3.6390    0.5611    0.9177 C.ar    1  UNL1        0.0496
     26 H          -1.8431    0.6019    3.7013 H       1  UNL1        0.1921
     27 H          -1.4220   -2.6046   -0.5842 H       1  UNL1        0.0377
     28 H          -0.3272   -2.4057    0.7739 H       1  UNL1        0.0377
     29 H          -0.7988   -1.1482   -2.7213 H       1  UNL1        0.0621
     30 H           0.9256   -0.0481   -3.9466 H       1  UNL1        0.0646
     31 H           3.7164    2.2811   -1.0242 H       1  UNL1        0.0639
     32 H           5.8032    2.8706    0.1601 H       1  UNL1        0.0830
     33 H           5.9791   -0.8955    1.9007 H       1  UNL1        0.0830
     34 H           3.8769   -1.5968    0.7510 H       1  UNL1        0.0639
     35 H           1.4877   -0.9495    0.8226 H       1  UNL1        0.0627
     36 H          -2.7639   -1.4062   -1.6563 H       1  UNL1        0.0624
     37 H          -4.8441   -0.3614   -2.5951 H       1  UNL1        0.0618
     38 H          -6.0871    1.2158   -1.2554 H       1  UNL1        0.0618
     39 H          -5.3209    1.8251    1.0275 H       1  UNL1        0.0625
@<TRIPOS>BOND
     1     1     2    2
     2     2     3   ar
     3     3     4   ar
     4     3    26    1
     5     4     5   ar
     6     5     6    1
     7     5    20   ar
     8     6     7    1
     9     6    27    1
    10     6    28    1
    11     7     8   ar
    12     8     9   ar
    13     8    29    1
    14     9    10   ar
    15     9    30    1
    16    10    11    1
    17    10    12   ar
    18    12    13    1
    19    12    19   ar
    20    13    14   ar
    21    14    15   ar
    22    14    31    1
    23    15    16   ar
    24    15    32    1
    25    16    17   ar
    26    17    18   ar
    27    17    33    1
    28    18    13   ar
    29    18    34    1
    30    19     7   ar
    31    19    35    1
    32    20    21   ar
    33    21    22   ar
    34    21    36    1
    35    22    23   ar
    36    22    37    1
    37    23    24   ar
    38    23    38    1
    39    24    25   ar
    40    24    39    1
    41    25     2   ar
    42    25    20   ar
