@<TRIPOS>MOLECULE
*****
 48 51 0 0 0
SMALL
GASTEIGER

@<TRIPOS>ATOM
      1 O           2.9045   -0.4237    1.1566 O.2     1  UNL1       -0.2698
      2 C           3.4865    0.1136    0.1752 C.2     1  UNL1        0.2484
      3 N           2.8213    0.0968   -1.0685 N.am    1  UNL1       -0.2815
      4 C           1.5671   -0.4482   -1.3757 C.ar    1  UNL1        0.0339
      5 C           1.1538   -0.4418   -2.7065 C.ar    1  UNL1       -0.0405
      6 C          -0.0439   -0.9374   -3.1141 C.ar    1  UNL1       -0.0597
      7 C          -0.9305   -1.4878   -2.1871 C.ar    1  UNL1       -0.0581
      8 C          -0.5675   -1.5120   -0.8858 C.ar    1  UNL1       -0.0398
      9 C          -1.4257   -2.0526    0.2017 C.3     1  UNL1        0.0168
     10 C          -2.0919   -1.0070    1.0010 C.ar    1  UNL1        0.0693
     11 N          -1.4409   -0.5347    2.1140 N.ar    1  UNL1       -0.1753
     12 N          -1.9318    0.4498    2.8407 N.ar    1  UNL1       -0.2427
     13 C          -3.1046    1.0607    2.5435 C.ar    1  UNL1        0.2682
     14 O          -3.5448    2.0087    3.2698 O.2     1  UNL1       -0.2661
     15 C          -3.8186    0.6257    1.4221 C.ar    1  UNL1        0.0232
     16 C          -3.2662   -0.4125    0.6875 C.ar    1  UNL1       -0.0158
     17 C          -4.0797   -0.8807   -0.4575 C.3     1  UNL1       -0.0255
     18 C          -4.4336    0.4092   -1.2194 C.3     1  UNL1       -0.0487
     19 C          -5.4430    1.1134   -0.3554 C.3     1  UNL1       -0.0486
     20 C          -5.0918    1.2600    1.0716 C.3     1  UNL1       -0.0222
     21 C           0.6881   -0.9885   -0.4874 C.ar    1  UNL1       -0.0369
     22 C           4.7960    0.7038    0.4135 C.ar    1  UNL1        0.0424
     23 C           5.5703    1.1207   -0.6293 C.ar    1  UNL1       -0.0142
     24 C           6.8194    1.6875   -0.4222 C.ar    1  UNL1        0.1268
     25 F           7.5714    2.0917   -1.4770 F       1  UNL1       -0.2054
     26 C           7.2563    1.8179    0.8718 C.ar    1  UNL1        0.0088
     27 C           6.5153    1.4153    1.9412 C.ar    1  UNL1        0.1268
     28 F           7.0333    1.5860    3.1776 F       1  UNL1       -0.2054
     29 C           5.2898    0.8611    1.6984 C.ar    1  UNL1       -0.0142
     30 H           3.3741    0.5756   -1.8526 H       1  UNL1        0.1551
     31 H           1.8234   -0.0184   -3.4545 H       1  UNL1        0.0636
     32 H          -0.3731   -0.9335   -4.1516 H       1  UNL1        0.0618
     33 H          -1.8738   -1.8835   -2.5710 H       1  UNL1        0.0620
     34 H          -2.1586   -2.7681   -0.2264 H       1  UNL1        0.0377
     35 H          -0.7364   -2.6281    0.8878 H       1  UNL1        0.0377
     36 H          -1.3859    0.7675    3.6813 H       1  UNL1        0.1921
     37 H          -3.6038   -1.5664   -1.1415 H       1  UNL1        0.0314
     38 H          -5.0437   -1.3338   -0.0695 H       1  UNL1        0.0314
     39 H          -3.5093    1.0042   -1.2928 H       1  UNL1        0.0268
     40 H          -4.8850    0.1615   -2.1987 H       1  UNL1        0.0268
     41 H          -5.5785    2.1265   -0.8193 H       1  UNL1        0.0269
     42 H          -6.4137    0.5836   -0.5274 H       1  UNL1        0.0269
     43 H          -5.8823    0.6977    1.6688 H       1  UNL1        0.0315
     44 H          -5.1052    2.3309    1.4168 H       1  UNL1        0.0315
     45 H           0.9168   -1.0346    0.5497 H       1  UNL1        0.0639
     46 H           5.2698    1.0347   -1.6611 H       1  UNL1        0.0654
     47 H           8.2327    2.2608    1.0389 H       1  UNL1        0.0675
     48 H           4.6734    0.5301    2.5227 H       1  UNL1        0.0654
@<TRIPOS>BOND
     1     1     2    2
     2     2     3   am
     3     2    22    1
     4     3     4    1
     5     3    30    1
     6     4     5   ar
     7     5     6   ar
     8     5    31    1
     9     6     7   ar
    10     6    32    1
    11     7     8   ar
    12     7    33    1
    13     8     9    1
    14     8    21   ar
    15     9    10    1
    16     9    34    1
    17     9    35    1
    18    10    11   ar
    19    11    12   ar
    20    12    13   ar
    21    12    36    1
    22    13    14    2
    23    13    15   ar
    24    15    16   ar
    25    16    17    1
    26    16    10   ar
    27    17    18    1
    28    17    37    1
    29    17    38    1
    30    18    19    1
    31    18    39    1
    32    18    40    1
    33    19    20    1
    34    19    41    1
    35    19    42    1
    36    20    15    1
    37    20    43    1
    38    20    44    1
    39    21     4   ar
    40    21    45    1
    41    22    23   ar
    42    23    24   ar
    43    23    46    1
    44    24    25    1
    45    24    26   ar
    46    26    27   ar
    47    26    47    1
    48    27    28    1
    49    27    29   ar
    50    29    22   ar
    51    29    48    1
