@<TRIPOS>MOLECULE
*****
 48 52 0 0 0
SMALL
GASTEIGER

@<TRIPOS>ATOM
      1 O           1.7839   -1.9291   -2.1235 O.2     1  UNL1       -0.2698
      2 C           2.4915   -1.3317   -1.2817 C.2     1  UNL1        0.2511
      3 C           3.9651   -1.1900   -1.3022 C.2     1  UNL1        0.0138
      4 C           4.3637   -0.4977   -0.2538 C.2     1  UNL1        0.0497
      5 C           5.7696   -0.1783    0.0233 C.ar    1  UNL1       -0.0127
      6 C           6.7546   -0.5755   -0.8523 C.ar    1  UNL1       -0.0539
      7 C           8.0723   -0.2892   -0.5747 C.ar    1  UNL1       -0.0612
      8 C           8.4688    0.3900    0.5606 C.ar    1  UNL1       -0.0617
      9 C           7.4922    0.7914    1.4416 C.ar    1  UNL1       -0.0612
     10 C           6.1722    0.5015    1.1568 C.ar    1  UNL1       -0.0539
     11 C           3.1764   -0.1469    0.5106 C.2     1  UNL1        0.2582
     12 O           3.1537    0.5159    1.5788 O.2     1  UNL1       -0.2692
     13 N           2.0116   -0.6638   -0.1247 N.am    1  UNL1       -0.2028
     14 C           0.6390   -0.5555    0.3044 C.ar    1  UNL1        0.0448
     15 C           0.2956   -0.3611    1.6231 C.ar    1  UNL1       -0.0398
     16 C          -0.9969   -0.2670    2.0830 C.ar    1  UNL1       -0.0597
     17 C          -2.0029   -0.3841    1.0930 C.ar    1  UNL1       -0.0581
     18 C          -1.7051   -0.5779   -0.2210 C.ar    1  UNL1       -0.0397
     19 C          -2.7504   -0.7436   -1.2551 C.3     1  UNL1        0.0172
     20 C          -3.7651    0.3242   -1.1952 C.ar    1  UNL1        0.0736
     21 N          -3.5114    1.4776   -1.8815 N.ar    1  UNL1       -0.1750
     22 N          -4.3390    2.4890   -1.8177 N.ar    1  UNL1       -0.2425
     23 C          -5.4585    2.4424   -1.0873 C.ar    1  UNL1        0.2725
     24 O          -6.2613    3.4362   -1.0304 O.2     1  UNL1       -0.2658
     25 C          -5.7766    1.3048   -0.3704 C.ar    1  UNL1        0.0496
     26 C          -6.9309    1.2215    0.3694 C.ar    1  UNL1       -0.0487
     27 C          -7.2232    0.0490    1.0539 C.ar    1  UNL1       -0.0610
     28 C          -6.3492   -1.0294    0.9860 C.ar    1  UNL1       -0.0611
     29 C          -5.1949   -0.9531    0.2521 C.ar    1  UNL1       -0.0521
     30 C          -4.8999    0.2253   -0.4345 C.ar    1  UNL1        0.0106
     31 C          -0.3485   -0.6637   -0.6207 C.ar    1  UNL1       -0.0363
     32 H           4.5628   -1.6243   -2.1068 H       1  UNL1        0.0677
     33 H           6.4571   -1.1117   -1.7564 H       1  UNL1        0.0624
     34 H           8.8273   -0.6080   -1.2679 H       1  UNL1        0.0618
     35 H           9.5387    0.5898    0.7356 H       1  UNL1        0.0618
     36 H           7.7495    1.3251    2.3524 H       1  UNL1        0.0618
     37 H           5.3964    0.8140    1.8514 H       1  UNL1        0.0624
     38 H           1.1124   -0.2732    2.3414 H       1  UNL1        0.0636
     39 H          -1.2460   -0.1111    3.1285 H       1  UNL1        0.0618
     40 H          -2.9915   -0.2910    1.5130 H       1  UNL1        0.0620
     41 H          -2.2189   -0.6616   -2.2527 H       1  UNL1        0.0377
     42 H          -3.1988   -1.7386   -1.1483 H       1  UNL1        0.0377
     43 H          -4.1358    3.3711   -2.3504 H       1  UNL1        0.1921
     44 H          -7.5897    2.0825    0.3990 H       1  UNL1        0.0625
     45 H          -8.1323   -0.0072    1.6362 H       1  UNL1        0.0618
     46 H          -6.5718   -1.9621    1.5232 H       1  UNL1        0.0618
     47 H          -4.5147   -1.8160    0.2147 H       1  UNL1        0.0624
     48 H          -0.1412   -0.8092   -1.6618 H       1  UNL1        0.0639
@<TRIPOS>BOND
     1     1     2    2
     2     2     3    1
     3     3     4    2
     4     3    32    1
     5     4     5    1
     6     4    11    1
     7     5     6   ar
     8     6     7   ar
     9     6    33    1
    10     7     8   ar
    11     7    34    1
    12     8     9   ar
    13     8    35    1
    14     9    10   ar
    15     9    36    1
    16    10     5   ar
    17    10    37    1
    18    11    12    2
    19    11    13   am
    20    13    14    1
    21    13     2   am
    22    14    15   ar
    23    15    16   ar
    24    15    38    1
    25    16    17   ar
    26    16    39    1
    27    17    18   ar
    28    17    40    1
    29    18    19    1
    30    18    31   ar
    31    19    20    1
    32    19    41    1
    33    19    42    1
    34    20    21   ar
    35    21    22   ar
    36    22    23   ar
    37    22    43    1
    38    23    24    2
    39    23    25   ar
    40    25    26   ar
    41    26    27   ar
    42    26    44    1
    43    27    28   ar
    44    27    45    1
    45    28    29   ar
    46    28    46    1
    47    29    30   ar
    48    29    47    1
    49    30    20   ar
    50    30    25   ar
    51    31    14   ar
    52    31    48    1
