@<TRIPOS>MOLECULE
*****
 31 33 0 0 0
SMALL
GASTEIGER

@<TRIPOS>ATOM
      1 N          -0.0229    3.0825    0.4710 N.pl3   1  UNL1       -0.3510
      2 C          -0.9419    2.0045    0.4458 C.ar    1  UNL1        0.1323
      3 C          -0.6602    0.8566   -0.2640 C.ar    1  UNL1        0.0701
      4 N           0.5345    0.6772   -0.9985 N.pl3   1  UNL1       -0.3123
      5 C           1.7164    0.1224   -0.4801 C.ar    1  UNL1        0.0314
      6 C           1.8369   -0.3125    0.8218 C.ar    1  UNL1       -0.0405
      7 C           3.0452   -0.8553    1.2712 C.ar    1  UNL1       -0.0600
      8 C           4.1263   -0.9650    0.4326 C.ar    1  UNL1       -0.0616
      9 C           4.0117   -0.5331   -0.8655 C.ar    1  UNL1       -0.0600
     10 C           2.8196   -0.0050   -1.2845 C.ar    1  UNL1       -0.0405
     11 C          -1.5953   -0.1604   -0.2508 C.ar    1  UNL1        0.0405
     12 C          -1.3962   -1.3411   -0.9317 C.ar    1  UNL1       -0.0492
     13 C          -2.3458   -2.3402   -0.9019 C.ar    1  UNL1       -0.0609
     14 C          -3.5029   -2.1189   -0.1675 C.ar    1  UNL1       -0.0582
     15 C          -3.7287   -0.9492    0.5226 C.ar    1  UNL1       -0.0186
     16 C          -2.7504    0.0427    0.4738 C.ar    1  UNL1        0.1409
     17 O          -2.9857    1.1506    1.1390 O.2     1  UNL1       -0.4208
     18 C          -2.1196    2.1293    1.1446 C.ar    1  UNL1        0.3601
     19 O          -2.3998    3.1658    1.7995 O.2     1  UNL1       -0.2430
     20 H           0.3231    3.5205    1.3503 H       1  UNL1        0.1426
     21 H           0.3284    3.4605   -0.4519 H       1  UNL1        0.1426
     22 H           0.5131    0.9859   -1.9935 H       1  UNL1        0.1522
     23 H           0.9958   -0.2361    1.5036 H       1  UNL1        0.0636
     24 H           3.1508   -1.1977    2.2839 H       1  UNL1        0.0618
     25 H           5.0739   -1.3835    0.7613 H       1  UNL1        0.0618
     26 H           4.8614   -0.6142   -1.5416 H       1  UNL1        0.0618
     27 H           2.7629    0.3283   -2.3216 H       1  UNL1        0.0636
     28 H          -0.5012   -1.5332   -1.5100 H       1  UNL1        0.0625
     29 H          -2.2466   -3.2850   -1.4143 H       1  UNL1        0.0618
     30 H          -4.2618   -2.9008   -0.1357 H       1  UNL1        0.0619
     31 H          -4.6412   -0.7953    1.0918 H       1  UNL1        0.0654
@<TRIPOS>BOND
     1     1     2    1
     2     1    20    1
     3     1    21    1
     4     2     3   ar
     5     3     4    1
     6     3    11   ar
     7     4     5    1
     8     4    22    1
     9     5     6   ar
    10     6     7   ar
    11     6    23    1
    12     7     8   ar
    13     7    24    1
    14     8     9   ar
    15     8    25    1
    16     9    10   ar
    17     9    26    1
    18    10     5   ar
    19    10    27    1
    20    11    12   ar
    21    12    13   ar
    22    12    28    1
    23    13    14   ar
    24    13    29    1
    25    14    15   ar
    26    14    30    1
    27    15    16   ar
    28    15    31    1
    29    16    17   ar
    30    16    11   ar
    31    17    18   ar
    32    18    19    2
    33    18     2   ar
