@<TRIPOS>MOLECULE
*****
 46 49 0 0 0
SMALL
GASTEIGER

@<TRIPOS>ATOM
      1 O          -3.5403    1.0983    1.5768 O.2     1  UNL1       -0.2418
      2 C          -3.9977    0.2981    0.6982 C.2     1  UNL1        0.3328
      3 N          -3.0897   -0.5228    0.0266 N.am    1  UNL1       -0.1668
      4 C          -1.6720   -0.5643    0.2212 C.2     1  UNL1        0.3148
      5 C          -0.9982    0.1651    1.0653 C.2     1  UNL1        0.0147
      6 C           0.4367   -0.1846    0.9533 C.3     1  UNL1        0.0359
      7 C           0.4583   -1.2237   -0.0847 C.2     1  UNL1        0.1407
      8 C           1.6559   -1.9591   -0.6199 C.3     1  UNL1        0.0541
      9 C           2.5860   -0.9545   -1.2002 C.ar    1  UNL1        0.0726
     10 N           2.5832   -0.7231   -2.5473 N.ar    1  UNL1       -0.1752
     11 N           3.3598    0.1583   -3.1374 N.ar    1  UNL1       -0.2427
     12 C           4.2104    0.8804   -2.3852 C.ar    1  UNL1        0.2682
     13 O           4.9573    1.7243   -2.9276 O.2     1  UNL1       -0.2661
     14 C           4.2663    0.6988   -1.0220 C.ar    1  UNL1        0.0232
     15 C           3.4369   -0.2363   -0.4288 C.ar    1  UNL1       -0.0157
     16 C           3.5860   -0.3796    1.0324 C.3     1  UNL1       -0.0255
     17 C           5.0547   -0.5034    1.4042 C.3     1  UNL1       -0.0487
     18 C           5.8636    0.6559    0.8961 C.3     1  UNL1       -0.0486
     19 C           5.1845    1.4649   -0.1789 C.3     1  UNL1       -0.0222
     20 N          -0.7583   -1.4048   -0.4692 N.2     1  UNL1       -0.0504
     21 C          -5.4439    0.2739    0.4325 C.ar    1  UNL1        0.0616
     22 C          -6.2578    1.1385    1.1351 C.ar    1  UNL1       -0.0474
     23 C          -7.6227    1.1792    0.9458 C.ar    1  UNL1       -0.0610
     24 C          -8.1974    0.3316    0.0272 C.ar    1  UNL1       -0.0617
     25 C          -7.4132   -0.5552   -0.7019 C.ar    1  UNL1       -0.0610
     26 C          -6.0533   -0.5527   -0.4717 C.ar    1  UNL1       -0.0474
     27 H          -3.4870   -1.1872   -0.7061 H       1  UNL1        0.3016
     28 H          -1.3217    0.9255    1.7743 H       1  UNL1        0.0657
     29 H           0.9653    0.7548    0.6067 H       1  UNL1        0.0392
     30 H           0.8500   -0.5354    1.9262 H       1  UNL1        0.0392
     31 H           2.1059   -2.5810    0.1510 H       1  UNL1        0.0411
     32 H           1.3043   -2.6749   -1.4159 H       1  UNL1        0.0411
     33 H           3.3560    0.3326   -4.1606 H       1  UNL1        0.1921
     34 H           3.1502    0.5173    1.5352 H       1  UNL1        0.0314
     35 H           3.0744   -1.2881    1.3633 H       1  UNL1        0.0314
     36 H           5.1098   -0.4989    2.5122 H       1  UNL1        0.0268
     37 H           5.4159   -1.4850    1.0610 H       1  UNL1        0.0268
     38 H           6.1535    1.3426    1.7223 H       1  UNL1        0.0269
     39 H           6.8130    0.2697    0.4721 H       1  UNL1        0.0269
     40 H           5.9487    1.9408   -0.8537 H       1  UNL1        0.0315
     41 H           4.6472    2.3261    0.2950 H       1  UNL1        0.0315
     42 H          -5.8607    1.8412    1.8835 H       1  UNL1        0.0626
     43 H          -8.2642    1.8505    1.4897 H       1  UNL1        0.0618
     44 H          -9.2652    0.3281   -0.1552 H       1  UNL1        0.0618
     45 H          -7.8317   -1.2380   -1.4344 H       1  UNL1        0.0618
     46 H          -5.4589   -1.2439   -1.0424 H       1  UNL1        0.0626
@<TRIPOS>BOND
     1     1     2    2
     2     2     3   am
     3     2    21    1
     4     3     4    1
     5     3    27    1
     6     4     5    2
     7     5     6    1
     8     5    28    1
     9     6     7    1
    10     6    29    1
    11     6    30    1
    12     7     8    1
    13     7    20    2
    14     8     9    1
    15     8    31    1
    16     8    32    1
    17     9    10   ar
    18    10    11   ar
    19    11    12   ar
    20    11    33    1
    21    12    13    2
    22    12    14   ar
    23    14    15   ar
    24    15    16    1
    25    15     9   ar
    26    16    17    1
    27    16    34    1
    28    16    35    1
    29    17    18    1
    30    17    36    1
    31    17    37    1
    32    18    19    1
    33    18    38    1
    34    18    39    1
    35    19    14    1
    36    19    40    1
    37    19    41    1
    38    20     4    1
    39    21    22   ar
    40    22    23   ar
    41    22    42    1
    42    23    24   ar
    43    23    43    1
    44    24    25   ar
    45    24    44    1
    46    25    26   ar
    47    25    45    1
    48    26    21   ar
    49    26    46    1
