@<TRIPOS>MOLECULE
*****
 38 41 0 0 0
SMALL
GASTEIGER

@<TRIPOS>ATOM
      1 O          -0.9096    2.1180   -1.0310 O.2     1  UNL1       -0.2682
      2 C          -0.6092    0.9966   -0.5506 C.2     1  UNL1        0.2676
      3 C          -1.5804    0.0686   -0.0560 C.ar    1  UNL1        0.1535
      4 N          -1.1845   -1.1317    0.4493 N.ar    1  UNL1       -0.1656
      5 N          -1.9908   -2.0457    0.9245 N.ar    1  UNL1       -0.2420
      6 C          -3.3290   -1.8392    0.9411 C.ar    1  UNL1        0.2725
      7 O          -4.1334   -2.6937    1.3895 O.2     1  UNL1       -0.2658
      8 C          -3.8379   -0.6558    0.4527 C.ar    1  UNL1        0.0501
      9 C          -5.1968   -0.4414    0.4677 C.ar    1  UNL1       -0.0487
     10 C          -5.7282    0.7354   -0.0157 C.ar    1  UNL1       -0.0610
     11 C          -4.8542    1.6694   -0.5053 C.ar    1  UNL1       -0.0611
     12 C          -3.4784    1.4541   -0.5213 C.ar    1  UNL1       -0.0516
     13 C          -2.9419    0.2908   -0.0444 C.ar    1  UNL1        0.0195
     14 N           0.7730    0.6640   -0.5114 N.am    1  UNL1       -0.2916
     15 C           1.7224    1.6416   -1.0330 C.3     1  UNL1        0.0194
     16 C           2.7874    1.8209    0.0611 C.3     1  UNL1       -0.0115
     17 C           3.5199    0.5092    0.0565 C.ar    1  UNL1       -0.0412
     18 C           4.8843    0.3929    0.0746 C.ar    1  UNL1       -0.0582
     19 C           5.4743   -0.8675    0.0596 C.ar    1  UNL1       -0.0615
     20 C           4.7012   -2.0089    0.0266 C.ar    1  UNL1       -0.0614
     21 C           3.3327   -1.8486    0.0094 C.ar    1  UNL1       -0.0568
     22 C           2.7476   -0.6166    0.0240 C.ar    1  UNL1       -0.0269
     23 C           1.2505   -0.5663    0.0107 C.3     1  UNL1        0.0403
     24 H          -1.6113   -2.9431    1.2954 H       1  UNL1        0.1921
     25 H          -5.8945   -1.1910    0.8603 H       1  UNL1        0.0625
     26 H          -6.8035    0.8977   -0.0005 H       1  UNL1        0.0618
     27 H          -5.2159    2.5968   -0.8909 H       1  UNL1        0.0618
     28 H          -2.8375    2.2153   -0.9142 H       1  UNL1        0.0624
     29 H           2.2632    1.2079   -1.8971 H       1  UNL1        0.0468
     30 H           1.2342    2.6089   -1.2641 H       1  UNL1        0.0468
     31 H           2.2499    1.8928    1.0060 H       1  UNL1        0.0328
     32 H           3.4430    2.6633   -0.1650 H       1  UNL1        0.0328
     33 H           5.4946    1.3063    0.1009 H       1  UNL1        0.0620
     34 H           6.5372   -0.9582    0.0738 H       1  UNL1        0.0618
     35 H           5.1601   -3.0057    0.0145 H       1  UNL1        0.0618
     36 H           2.7487   -2.7735   -0.0167 H       1  UNL1        0.0621
     37 H           0.8461   -1.4056   -0.5969 H       1  UNL1        0.0514
     38 H           0.9670   -0.7581    1.0841 H       1  UNL1        0.0514
@<TRIPOS>BOND
     1     1     2    2
     2     2     3    1
     3     2    14   am
     4     3     4   ar
     5     4     5   ar
     6     5     6   ar
     7     5    24    1
     8     6     7    2
     9     6     8   ar
    10     8     9   ar
    11     9    10   ar
    12     9    25    1
    13    10    11   ar
    14    10    26    1
    15    11    12   ar
    16    11    27    1
    17    12    13   ar
    18    12    28    1
    19    13     3   ar
    20    13     8   ar
    21    14    15    1
    22    15    16    1
    23    15    29    1
    24    15    30    1
    25    16    17    1
    26    16    31    1
    27    16    32    1
    28    17    18   ar
    29    18    19   ar
    30    18    33    1
    31    19    20   ar
    32    19    34    1
    33    20    21   ar
    34    20    35    1
    35    21    22   ar
    36    21    36    1
    37    22    23    1
    38    22    17   ar
    39    23    14    1
    40    23    37    1
    41    23    38    1
