@<TRIPOS>MOLECULE
*****
 48 51 0 0 0
SMALL
GASTEIGER

@<TRIPOS>ATOM
      1 O           4.5598    1.7914    2.0129 O.2     1  UNL1       -0.2679
      2 C           5.1598    1.8367    0.9237 C.2     1  UNL1        0.2706
      3 N           6.1373    2.8418    0.7035 N.am    1  UNL1       -0.1481
      4 F           6.4146    3.7456    1.6767 F       1  UNL1       -0.1090
      5 C           4.8615    0.8674   -0.1181 C.ar    1  UNL1        0.0395
      6 C           5.5937    0.6754   -1.2539 C.ar    1  UNL1       -0.0495
      7 C           5.1955   -0.2856   -2.1871 C.ar    1  UNL1       -0.0605
      8 C           4.0774   -1.0533   -1.9970 C.ar    1  UNL1       -0.0540
      9 C           3.3254   -0.8772   -0.8617 C.ar    1  UNL1       -0.0172
     10 C           2.1192   -1.6859   -0.6550 C.ar    1  UNL1       -0.0176
     11 C           1.9911   -2.9747   -1.1215 C.ar    1  UNL1       -0.0540
     12 C           0.8134   -3.6866   -0.9033 C.ar    1  UNL1       -0.0609
     13 C          -0.2436   -3.1264   -0.2219 C.ar    1  UNL1       -0.0582
     14 C          -0.1224   -1.8466    0.2446 C.ar    1  UNL1       -0.0409
     15 C          -1.2134   -1.1314    0.9887 C.3     1  UNL1        0.0168
     16 C          -1.9522   -0.2127    0.1179 C.ar    1  UNL1        0.0693
     17 N          -1.5887   -0.0091   -1.1624 N.ar    1  UNL1       -0.1753
     18 N          -2.2315    0.8280   -1.9616 N.ar    1  UNL1       -0.2427
     19 C          -3.3032    1.5391   -1.5438 C.ar    1  UNL1        0.2682
     20 O          -3.9325    2.3466   -2.2956 O.2     1  UNL1       -0.2661
     21 C          -3.6994    1.3466   -0.2248 C.ar    1  UNL1        0.0232
     22 C          -3.0256    0.4738    0.6013 C.ar    1  UNL1       -0.0158
     23 C          -3.4705    0.2794    2.0056 C.3     1  UNL1       -0.0255
     24 C          -4.9885    0.1525    2.0031 C.3     1  UNL1       -0.0487
     25 C          -5.6911    1.0820    1.0999 C.3     1  UNL1       -0.0486
     26 C          -4.8568    2.0679    0.3604 C.3     1  UNL1       -0.0222
     27 C           1.0423   -1.1485    0.0263 C.ar    1  UNL1       -0.0505
     28 C           3.7285    0.0707    0.0475 C.ar    1  UNL1       -0.0418
     29 H           6.6219    2.8617   -0.2144 H       1  UNL1        0.1882
     30 H           6.4778    1.2716   -1.4172 H       1  UNL1        0.0625
     31 H           5.7981   -0.4053   -3.0670 H       1  UNL1        0.0618
     32 H           3.8017   -1.7761   -2.7273 H       1  UNL1        0.0624
     33 H           2.8254   -3.4058   -1.6539 H       1  UNL1        0.0624
     34 H           0.7419   -4.6914   -1.2793 H       1  UNL1        0.0618
     35 H          -1.1685   -3.6666   -0.0435 H       1  UNL1        0.0620
     36 H          -1.8423   -1.9173    1.4395 H       1  UNL1        0.0377
     37 H          -0.7930   -0.5405    1.8286 H       1  UNL1        0.0377
     38 H          -1.9149    0.9561   -2.9448 H       1  UNL1        0.1921
     39 H          -3.1551    1.1130    2.6658 H       1  UNL1        0.0314
     40 H          -3.1109   -0.6793    2.4371 H       1  UNL1        0.0314
     41 H          -5.3085    0.2134    3.0667 H       1  UNL1        0.0268
     42 H          -5.2307   -0.9025    1.6832 H       1  UNL1        0.0268
     43 H          -6.3140    0.5377    0.3316 H       1  UNL1        0.0269
     44 H          -6.4659    1.6542    1.6906 H       1  UNL1        0.0269
     45 H          -4.4493    2.8807    1.0030 H       1  UNL1        0.0315
     46 H          -5.4825    2.5144   -0.4396 H       1  UNL1        0.0315
     47 H           1.1371   -0.1266    0.3993 H       1  UNL1        0.0626
     48 H           3.1317    0.2017    0.9370 H       1  UNL1        0.0631
@<TRIPOS>BOND
     1     1     2    2
     2     2     3   am
     3     2     5    1
     4     3     4    1
     5     3    29    1
     6     5     6   ar
     7     6     7   ar
     8     6    30    1
     9     7     8   ar
    10     7    31    1
    11     8     9   ar
    12     8    32    1
    13     9    10    1
    14     9    28   ar
    15    10    11   ar
    16    11    12   ar
    17    11    33    1
    18    12    13   ar
    19    12    34    1
    20    13    14   ar
    21    13    35    1
    22    14    15    1
    23    14    27   ar
    24    15    16    1
    25    15    36    1
    26    15    37    1
    27    16    17   ar
    28    17    18   ar
    29    18    19   ar
    30    18    38    1
    31    19    20    2
    32    19    21   ar
    33    21    22   ar
    34    22    23    1
    35    22    16   ar
    36    23    24    1
    37    23    39    1
    38    23    40    1
    39    24    25    1
    40    24    41    1
    41    24    42    1
    42    25    26    1
    43    25    43    1
    44    25    44    1
    45    26    21    1
    46    26    45    1
    47    26    46    1
    48    27    10   ar
    49    27    47    1
    50    28     5   ar
    51    28    48    1
