@<TRIPOS>MOLECULE
*****
 37 39 0 0 0
SMALL
GASTEIGER

@<TRIPOS>ATOM
      1 O           0.1610   -1.2359    1.4838 O.2     1  UNL1       -0.2684
      2 C           0.7301   -0.6581    0.5028 C.2     1  UNL1        0.2647
      3 N           0.1173    0.3448   -0.2502 N.am    1  UNL1       -0.3097
      4 C          -1.2198    0.7862    0.0809 C.3     1  UNL1        0.0159
      5 C          -2.1970   -0.3323   -0.0401 C.3     1  UNL1       -0.0120
      6 C          -3.5861    0.0761    0.2895 C.ar    1  UNL1       -0.0432
      7 C          -4.1066    0.0041    1.5615 C.ar    1  UNL1       -0.0584
      8 C          -5.3789    0.3701    1.9055 C.ar    1  UNL1       -0.0588
      9 C          -6.2102    0.8504    0.8994 C.ar    1  UNL1       -0.0264
     10 C          -5.7265    0.9376   -0.3860 C.ar    1  UNL1        0.1237
     11 F          -6.5333    1.4040   -1.3633 F       1  UNL1       -0.2055
     12 C          -4.4403    0.5623   -0.7064 C.ar    1  UNL1       -0.0232
     13 C           2.0645   -1.1183    0.2090 C.ar    1  UNL1        0.1533
     14 N           2.2220   -2.4707    0.1695 N.ar    1  UNL1       -0.1656
     15 N           3.4052   -2.9876   -0.0846 N.ar    1  UNL1       -0.2420
     16 C           4.4771   -2.2127   -0.3087 C.ar    1  UNL1        0.2725
     17 O           5.6133   -2.7634   -0.5549 O.2     1  UNL1       -0.2658
     18 C           4.3467   -0.8519   -0.2725 C.ar    1  UNL1        0.0501
     19 C           5.4365   -0.0637   -0.4725 C.ar    1  UNL1       -0.0487
     20 C           5.3028    1.3064   -0.4052 C.ar    1  UNL1       -0.0610
     21 C           4.0691    1.8843   -0.1350 C.ar    1  UNL1       -0.0611
     22 C           2.9673    1.0969    0.0668 C.ar    1  UNL1       -0.0516
     23 C           3.1083   -0.2694   -0.0053 C.ar    1  UNL1        0.0195
     24 H           0.5720    0.7868   -1.0940 H       1  UNL1        0.1491
     25 H          -1.5387    1.6493   -0.5737 H       1  UNL1        0.0465
     26 H          -1.1587    1.1358    1.1501 H       1  UNL1        0.0465
     27 H          -2.2229   -0.6154   -1.1336 H       1  UNL1        0.0328
     28 H          -1.8936   -1.2270    0.4974 H       1  UNL1        0.0328
     29 H          -3.4707   -0.3678    2.3538 H       1  UNL1        0.0620
     30 H          -5.7313    0.2885    2.9342 H       1  UNL1        0.0619
     31 H          -7.2281    1.1435    1.1730 H       1  UNL1        0.0646
     32 H          -4.0468    0.6237   -1.7035 H       1  UNL1        0.0649
     33 H           3.5450   -4.0391   -0.1193 H       1  UNL1        0.1921
     34 H           6.4115   -0.5088   -0.6851 H       1  UNL1        0.0625
     35 H           6.1545    1.9383   -0.5618 H       1  UNL1        0.0618
     36 H           3.9495    2.9649   -0.0777 H       1  UNL1        0.0618
     37 H           2.0356    1.5681    0.3093 H       1  UNL1        0.0624
@<TRIPOS>BOND
     1     1     2    2
     2     2     3   am
     3     2    13    1
     4     3     4    1
     5     3    24    1
     6     4     5    1
     7     4    25    1
     8     4    26    1
     9     5     6    1
    10     5    27    1
    11     5    28    1
    12     6     7   ar
    13     7     8   ar
    14     7    29    1
    15     8     9   ar
    16     8    30    1
    17     9    10   ar
    18     9    31    1
    19    10    11    1
    20    10    12   ar
    21    12     6   ar
    22    12    32    1
    23    13    14   ar
    24    14    15   ar
    25    15    16   ar
    26    15    33    1
    27    16    17    2
    28    16    18   ar
    29    18    19   ar
    30    19    20   ar
    31    19    34    1
    32    20    21   ar
    33    20    35    1
    34    21    22   ar
    35    21    36    1
    36    22    23   ar
    37    22    37    1
    38    23    13   ar
    39    23    18   ar
