@<TRIPOS>MOLECULE
*****
 43 45 0 0 0
SMALL
GASTEIGER

@<TRIPOS>ATOM
      1 O           1.1955   -0.3685   -0.7234 O.2     1  UNL1       -0.2687
      2 C           1.0039    0.3934    0.2653 C.2     1  UNL1        0.2602
      3 N           2.0502    0.5807    1.2005 N.am    1  UNL1       -0.2301
      4 N           3.2922   -0.0649    1.0374 N.am    1  UNL1       -0.2300
      5 C           4.0211    0.2500   -0.1115 C.2     1  UNL1        0.2629
      6 O           3.5512    1.0922   -0.9682 O.2     1  UNL1       -0.2686
      7 C           5.3142   -0.3326   -0.4089 C.ar    1  UNL1        0.0733
      8 C           5.8747   -0.1262   -1.6801 C.ar    1  UNL1       -0.0468
      9 C           7.0755   -0.6680   -1.9910 C.ar    1  UNL1       -0.0609
     10 C           7.8214   -1.4388   -1.1181 C.ar    1  UNL1       -0.0590
     11 C           7.2785   -1.6462    0.1326 C.ar    1  UNL1       -0.0257
     12 C           6.0366   -1.0913    0.4672 C.ar    1  UNL1        0.1355
     13 F           5.6069   -1.3471    1.7194 F       1  UNL1       -0.2047
     14 C          -0.2833    1.0440    0.3959 C.ar    1  UNL1        0.0400
     15 C          -0.5061    2.0270    1.3469 C.ar    1  UNL1       -0.0495
     16 C          -1.7253    2.6497    1.4703 C.ar    1  UNL1       -0.0592
     17 C          -2.7358    2.2782    0.6248 C.ar    1  UNL1       -0.0364
     18 C          -2.5805    1.3085   -0.3412 C.ar    1  UNL1        0.0943
     19 S          -3.9094    0.9137   -1.3735 S.O2    1  UNL1        0.0252
     20 O          -4.6929    2.1595   -1.7223 O.2     1  UNL1       -0.1643
     21 O          -3.4332    0.3296   -2.6961 O.2     1  UNL1       -0.1643
     22 C          -5.0186   -0.2052   -0.6386 C.ar    1  UNL1        0.0963
     23 C          -6.1729   -0.5034   -1.3617 C.ar    1  UNL1       -0.0363
     24 C          -7.1229   -1.3689   -0.8621 C.ar    1  UNL1       -0.0572
     25 C          -6.9257   -1.9482    0.3748 C.ar    1  UNL1       -0.0263
     26 C          -5.7784   -1.6415    1.0754 C.ar    1  UNL1        0.1252
     27 F          -5.5654   -2.1978    2.2942 F       1  UNL1       -0.2054
     28 C          -4.8111   -0.7811    0.6026 C.ar    1  UNL1       -0.0012
     29 C          -1.3493    0.7015   -0.4423 C.ar    1  UNL1       -0.0243
     30 H           1.9425    1.1931    2.0349 H       1  UNL1        0.1731
     31 H           3.5953   -0.7204    1.7422 H       1  UNL1        0.1731
     32 H           5.2918    0.4813   -2.3755 H       1  UNL1        0.0626
     33 H           7.4727   -0.4783   -3.0003 H       1  UNL1        0.0618
     34 H           8.7716   -1.8364   -1.4437 H       1  UNL1        0.0618
     35 H           7.8034   -2.2310    0.8511 H       1  UNL1        0.0646
     36 H           0.2933    2.3285    2.0243 H       1  UNL1        0.0625
     37 H          -1.8601    3.4023    2.2154 H       1  UNL1        0.0618
     38 H          -3.7048    2.7855    0.7370 H       1  UNL1        0.0637
     39 H          -6.3628   -0.0705   -2.3349 H       1  UNL1        0.0637
     40 H          -8.0345   -1.6085   -1.4272 H       1  UNL1        0.0619
     41 H          -7.6564   -2.6387    0.8036 H       1  UNL1        0.0646
     42 H          -3.9000   -0.5332    1.1523 H       1  UNL1        0.0665
     43 H          -1.1629   -0.0719   -1.1864 H       1  UNL1        0.0644
@<TRIPOS>BOND
     1     1     2    2
     2     2     3   am
     3     2    14    1
     4     3     4    1
     5     3    30    1
     6     4     5   am
     7     4    31    1
     8     5     6    2
     9     5     7    1
    10     7     8   ar
    11     8     9   ar
    12     8    32    1
    13     9    10   ar
    14     9    33    1
    15    10    11   ar
    16    10    34    1
    17    11    12   ar
    18    11    35    1
    19    12    13    1
    20    12     7   ar
    21    14    15   ar
    22    15    16   ar
    23    15    36    1
    24    16    17   ar
    25    16    37    1
    26    17    18   ar
    27    17    38    1
    28    18    19    1
    29    18    29   ar
    30    19    20    2
    31    19    21    2
    32    19    22    1
    33    22    23   ar
    34    23    24   ar
    35    23    39    1
    36    24    25   ar
    37    24    40    1
    38    25    26   ar
    39    25    41    1
    40    26    27    1
    41    26    28   ar
    42    28    22   ar
    43    28    42    1
    44    29    14   ar
    45    29    43    1
