@<TRIPOS>MOLECULE
*****
 37 39 0 0 0
SMALL
GASTEIGER

@<TRIPOS>ATOM
      1 O          -0.1453    1.0180   -0.9854 O.2     1  UNL1       -0.2754
      2 C           0.0974    1.6852    0.0714 C.2     1  UNL1        0.2192
      3 C          -1.0135    1.8440    1.0476 C.3     1  UNL1        0.0685
      4 C          -2.2447    1.1817    0.5584 C.ar    1  UNL1        0.0780
      5 N          -3.2503    1.9191    0.0546 N.ar    1  UNL1       -0.1748
      6 N          -4.3690    1.3815   -0.3962 N.ar    1  UNL1       -0.2425
      7 C          -4.5949    0.0524   -0.3888 C.ar    1  UNL1        0.2725
      8 O          -5.6499   -0.4468   -0.8146 O.2     1  UNL1       -0.2658
      9 C          -3.5833   -0.7539    0.1233 C.ar    1  UNL1        0.0496
     10 C          -3.7202   -2.1177    0.1738 C.ar    1  UNL1       -0.0487
     11 C          -2.7016   -2.9000    0.6879 C.ar    1  UNL1       -0.0610
     12 C          -1.5223   -2.3403    1.1638 C.ar    1  UNL1       -0.0611
     13 C          -1.4213   -0.9663    1.0965 C.ar    1  UNL1       -0.0521
     14 C          -2.4169   -0.1879    0.5928 C.ar    1  UNL1        0.0108
     15 N           1.3665    2.2414    0.2917 N.am    1  UNL1       -0.3109
     16 C           2.4499    2.0814   -0.6602 C.3     1  UNL1        0.0368
     17 C           3.0833    0.7533   -0.5923 C.ar    1  UNL1       -0.0302
     18 C           2.7301   -0.2296   -1.4741 C.ar    1  UNL1       -0.0544
     19 C           3.3343   -1.4802   -1.3927 C.ar    1  UNL1       -0.0261
     20 C           4.2798   -1.7578   -0.4480 C.ar    1  UNL1        0.1234
     21 F           4.8846   -2.9834   -0.3538 F       1  UNL1       -0.2055
     22 C           4.6413   -0.7716    0.4448 C.ar    1  UNL1       -0.0261
     23 C           4.0337    0.4866    0.3633 C.ar    1  UNL1       -0.0544
     24 H          -0.7266    1.5027    2.0643 H       1  UNL1        0.0423
     25 H          -1.2237    2.9286    1.1333 H       1  UNL1        0.0423
     26 H          -5.1544    1.9700   -0.7909 H       1  UNL1        0.1921
     27 H          -4.6130   -2.5714   -0.1828 H       1  UNL1        0.0625
     28 H          -2.8127   -3.9833    0.7268 H       1  UNL1        0.0618
     29 H          -0.7429   -2.9772    1.5605 H       1  UNL1        0.0618
     30 H          -0.5173   -0.5036    1.4576 H       1  UNL1        0.0624
     31 H           1.4910    2.7832    1.1932 H       1  UNL1        0.1490
     32 H           2.0695    2.2842   -1.7034 H       1  UNL1        0.0512
     33 H           3.2079    2.8979   -0.4822 H       1  UNL1        0.0512
     34 H           1.9919   -0.0978   -2.2567 H       1  UNL1        0.0622
     35 H           3.0462   -2.2561   -2.0996 H       1  UNL1        0.0646
     36 H           5.3858   -0.9511    1.2085 H       1  UNL1        0.0646
     37 H           4.3306    1.2644    1.0818 H       1  UNL1        0.0622
@<TRIPOS>BOND
     1     1     2    2
     2     2     3    1
     3     2    15   am
     4     3     4    1
     5     3    24    1
     6     3    25    1
     7     4     5   ar
     8     5     6   ar
     9     6     7   ar
    10     6    26    1
    11     7     8    2
    12     7     9   ar
    13     9    10   ar
    14    10    11   ar
    15    10    27    1
    16    11    12   ar
    17    11    28    1
    18    12    13   ar
    19    12    29    1
    20    13    14   ar
    21    13    30    1
    22    14     4   ar
    23    14     9   ar
    24    15    16    1
    25    15    31    1
    26    16    17    1
    27    16    32    1
    28    16    33    1
    29    17    18   ar
    30    18    19   ar
    31    18    34    1
    32    19    20   ar
    33    19    35    1
    34    20    21    1
    35    20    22   ar
    36    22    23   ar
    37    22    36    1
    38    23    17   ar
    39    23    37    1
