@<TRIPOS>MOLECULE
*****
 46 49 0 0 0
SMALL
GASTEIGER

@<TRIPOS>ATOM
      1 C           7.7461   -0.8573   -0.0122 C.3     1  UNL1       -0.0364
      2 C           6.7250    0.2163   -0.1908 C.ar    1  UNL1       -0.0067
      3 C           6.9771    1.4719   -0.6856 C.ar    1  UNL1        0.0256
      4 N           5.8139    2.1457   -0.6916 N.ar    1  UNL1       -0.2841
      5 N           4.8732    1.3358   -0.2173 N.ar    1  UNL1       -0.1752
      6 C           5.3692    0.1432    0.1055 C.ar    1  UNL1        0.1029
      7 C           4.7480   -1.0687    0.6522 C.3     1  UNL1        0.1365
      8 O           3.3794   -0.9786    0.8958 O.3     1  UNL1       -0.4547
      9 C           2.3913   -0.7071   -0.0244 C.2     1  UNL1        0.3424
     10 O           2.7425   -0.5159   -1.2083 O.2     1  UNL1       -0.2448
     11 C           0.9762   -0.6382    0.3384 C.ar    1  UNL1        0.0943
     12 C           0.0395   -0.3429   -0.6158 C.ar    1  UNL1       -0.0414
     13 C          -1.3239   -0.2582   -0.3918 C.ar    1  UNL1       -0.0406
     14 C          -2.2736    0.0949   -1.4723 C.3     1  UNL1        0.0171
     15 C          -3.4813    0.7718   -1.0385 C.ar    1  UNL1        0.0736
     16 N          -3.5026    2.1222   -1.0216 N.ar    1  UNL1       -0.1750
     17 N          -4.5129    2.8502   -0.6135 N.ar    1  UNL1       -0.2425
     18 C          -5.6489    2.3032   -0.1622 C.ar    1  UNL1        0.2725
     19 O          -6.6405    2.9429    0.2401 O.2     1  UNL1       -0.2658
     20 C          -5.6927    0.9086   -0.1551 C.ar    1  UNL1        0.0496
     21 C          -6.8226    0.2544    0.2700 C.ar    1  UNL1       -0.0487
     22 C          -6.8902   -1.1270    0.2641 C.ar    1  UNL1       -0.0610
     23 C          -5.8002   -1.8660   -0.1781 C.ar    1  UNL1       -0.0611
     24 C          -4.6602   -1.2283   -0.6059 C.ar    1  UNL1       -0.0521
     25 C          -4.6263    0.1453   -0.5863 C.ar    1  UNL1        0.0106
     26 C          -1.7245   -0.4939    0.9013 C.ar    1  UNL1       -0.0555
     27 C          -0.7910   -0.7976    1.9025 C.ar    1  UNL1       -0.0254
     28 C           0.5460   -0.8680    1.6206 C.ar    1  UNL1        0.1374
     29 F           1.4139   -1.1636    2.6163 F       1  UNL1       -0.2046
     30 H           7.2492   -1.8473   -0.1213 H       1  UNL1        0.0279
     31 H           8.5312   -0.7610   -0.7953 H       1  UNL1        0.0279
     32 H           8.2082   -0.8150    0.9920 H       1  UNL1        0.0279
     33 H           7.9518    1.8527   -1.0146 H       1  UNL1        0.0826
     34 H           5.7482    3.1339   -1.0278 H       1  UNL1        0.1882
     35 H           4.9563   -1.9150   -0.0475 H       1  UNL1        0.0765
     36 H           5.2325   -1.3712    1.6190 H       1  UNL1        0.0765
     37 H           0.3729   -0.1570   -1.6459 H       1  UNL1        0.0629
     38 H          -2.4470   -0.7613   -2.1629 H       1  UNL1        0.0377
     39 H          -1.6998    0.8229   -2.1352 H       1  UNL1        0.0377
     40 H          -4.4907    3.9165   -0.6131 H       1  UNL1        0.1921
     41 H          -7.6462    0.8692    0.6046 H       1  UNL1        0.0625
     42 H          -7.8035   -1.6279    0.6079 H       1  UNL1        0.0618
     43 H          -5.8464   -2.9466   -0.1889 H       1  UNL1        0.0618
     44 H          -3.7832   -1.7511   -0.9600 H       1  UNL1        0.0624
     45 H          -2.7418   -0.4562    1.2478 H       1  UNL1        0.0621
     46 H          -1.1415   -0.9810    2.9328 H       1  UNL1        0.0646
@<TRIPOS>BOND
     1     1     2    1
     2     1    30    1
     3     1    31    1
     4     1    32    1
     5     2     3   ar
     6     3     4   ar
     7     3    33    1
     8     4     5   ar
     9     4    34    1
    10     5     6   ar
    11     6     7    1
    12     6     2   ar
    13     7     8    1
    14     7    35    1
    15     7    36    1
    16     8     9    1
    17     9    10    2
    18     9    11    1
    19    11    12   ar
    20    12    13   ar
    21    12    37    1
    22    13    14    1
    23    13    26   ar
    24    14    15    1
    25    14    38    1
    26    14    39    1
    27    15    16   ar
    28    16    17   ar
    29    17    18   ar
    30    17    40    1
    31    18    19    2
    32    18    20   ar
    33    20    21   ar
    34    21    22   ar
    35    21    41    1
    36    22    23   ar
    37    22    42    1
    38    23    24   ar
    39    23    43    1
    40    24    25   ar
    41    24    44    1
    42    25    15   ar
    43    25    20   ar
    44    26    27   ar
    45    26    45    1
    46    27    28   ar
    47    27    46    1
    48    28    29    1
    49    28    11   ar
