@<TRIPOS>MOLECULE
*****
 33 34 0 0 0
SMALL
GASTEIGER

@<TRIPOS>ATOM
      1 C          -5.0442    0.7888   -1.8386 C.3     1  UNL1       -0.0395
      2 C          -3.6611    0.4825   -1.3995 C.ar    1  UNL1       -0.0473
      3 C          -2.6489    0.3071   -2.3302 C.ar    1  UNL1       -0.0551
      4 C          -1.3655    0.0228   -1.9185 C.ar    1  UNL1       -0.0190
      5 C          -1.0315   -0.0992   -0.5774 C.ar    1  UNL1        0.1322
      6 O           0.2777   -0.3849   -0.2681 O.3     1  UNL1       -0.4223
      7 C           1.2696    0.5292   -0.0447 C.2     1  UNL1        0.3447
      8 O           0.9773    1.7495   -0.1249 O.2     1  UNL1       -0.2445
      9 C           2.6468    0.1786    0.2811 C.ar    1  UNL1        0.0658
     10 C           3.6019    1.1499    0.4954 C.ar    1  UNL1       -0.0473
     11 C           4.9055    0.8658    0.8033 C.ar    1  UNL1       -0.0546
     12 C           5.3072   -0.4287    0.9098 C.ar    1  UNL1        0.0156
     13 C           4.3875   -1.4452    0.7042 C.ar    1  UNL1        0.2739
     14 N           4.8276   -2.7800    0.8200 N.pl3   1  UNL1        0.0796
     15 O           6.0000   -3.0305    1.0968 O.2     1  UNL1        0.0414
     16 O           3.9414   -3.7954    0.6222 O.co2   1  UNL1       -0.5760
     17 C           3.0665   -1.1282    0.3919 C.ar    1  UNL1        0.0295
     18 C          -2.0292    0.0734    0.3473 C.ar    1  UNL1       -0.0161
     19 C          -3.3137    0.3581   -0.0687 C.ar    1  UNL1       -0.0441
     20 C          -4.3513    0.5344    0.9739 C.3     1  UNL1       -0.0393
     21 H          -4.9939    1.1314   -2.8994 H       1  UNL1        0.0278
     22 H          -5.4892    1.6462   -1.2782 H       1  UNL1        0.0278
     23 H          -5.7093   -0.0916   -1.8328 H       1  UNL1        0.0278
     24 H          -2.9265    0.4056   -3.3699 H       1  UNL1        0.0621
     25 H          -0.5764   -0.1128   -2.6753 H       1  UNL1        0.0654
     26 H           3.3114    2.1878    0.4175 H       1  UNL1        0.0626
     27 H           5.5996    1.6936    0.9579 H       1  UNL1        0.0620
     28 H           6.3420   -0.6294    1.1539 H       1  UNL1        0.0685
     29 H           2.3398   -1.9064    0.2292 H       1  UNL1        0.0693
     30 H          -1.7629   -0.0234    1.4036 H       1  UNL1        0.0657
     31 H          -4.1007    1.3977    1.6457 H       1  UNL1        0.0278
     32 H          -5.3408    0.7582    0.5521 H       1  UNL1        0.0278
     33 H          -4.4567   -0.4052    1.5561 H       1  UNL1        0.0278
@<TRIPOS>UNITY_ATOM_ATTR
14 1
charge 1
16 1
charge -1
@<TRIPOS>BOND
     1     1     2    1
     2     1    21    1
     3     1    22    1
     4     1    23    1
     5     2     3   ar
     6     3     4   ar
     7     3    24    1
     8     4     5   ar
     9     4    25    1
    10     5     6    1
    11     5    18   ar
    12     6     7    1
    13     7     8    2
    14     7     9    1
    15     9    10   ar
    16    10    11   ar
    17    10    26    1
    18    11    12   ar
    19    11    27    1
    20    12    13   ar
    21    12    28    1
    22    13    14    1
    23    13    17   ar
    24    14    15    2
    25    14    16    1
    26    17     9   ar
    27    17    29    1
    28    18    19   ar
    29    18    30    1
    30    19    20    1
    31    19     2   ar
    32    20    31    1
    33    20    32    1
    34    20    33    1
