@<TRIPOS>MOLECULE
*****
 33 35 0 0 0
SMALL
GASTEIGER

@<TRIPOS>ATOM
      1 O           3.0864    3.2901   -0.6189 O.2     1  UNL1        0.0414
      2 N           3.9638    2.4640   -0.9043 N.pl3   1  UNL1        0.0798
      3 O           4.9975    2.8227   -1.7235 O.co2   1  UNL1       -0.5760
      4 C           3.8696    1.1566   -0.3676 C.ar    1  UNL1        0.2794
      5 C           4.8276    0.1927   -0.6573 C.ar    1  UNL1        0.0510
      6 C           4.6910   -1.0742   -0.1072 C.ar    1  UNL1        0.1333
      7 F           5.6194   -2.0485   -0.3735 F       1  UNL1       -0.2051
      8 C           3.6363   -1.4018    0.7148 C.ar    1  UNL1        0.0165
      9 C           2.6796   -0.4638    1.0130 C.ar    1  UNL1        0.1410
     10 O           1.5956   -0.7027    1.8224 O.3     1  UNL1       -0.4233
     11 C           0.3722   -1.1602    1.4311 C.ar    1  UNL1        0.3239
     12 N           0.1357   -2.4887    1.5182 N.ar    1  UNL1       -0.2030
     13 C          -1.0275   -3.0246    1.1594 C.ar    1  UNL1        0.0350
     14 C          -2.0390   -2.1994    0.6781 C.ar    1  UNL1       -0.0173
     15 C          -1.8199   -0.8540    0.5823 C.ar    1  UNL1        0.0778
     16 C          -2.8545    0.0552    0.0812 C.ar    1  UNL1        0.0006
     17 C          -4.0915   -0.3776   -0.3180 C.ar    1  UNL1       -0.0526
     18 C          -5.0676    0.5013   -0.7935 C.ar    1  UNL1       -0.0611
     19 C          -4.7922    1.8350   -0.8675 C.ar    1  UNL1       -0.0617
     20 C          -3.5589    2.3132   -0.4757 C.ar    1  UNL1       -0.0611
     21 C          -2.6196    1.4174   -0.0114 C.ar    1  UNL1       -0.0526
     22 N          -0.6160   -0.3771    0.9638 N.ar    1  UNL1       -0.1946
     23 C           2.8286    0.7989    0.4562 C.ar    1  UNL1        0.0581
     24 H           5.6527    0.4525   -1.3017 H       1  UNL1        0.0714
     25 H           3.5353   -2.3879    1.1393 H       1  UNL1        0.0683
     26 H          -1.1912   -4.0845    1.2381 H       1  UNL1        0.0832
     27 H          -2.9479   -2.6709    0.4047 H       1  UNL1        0.0654
     28 H          -4.3666   -1.4058   -0.2840 H       1  UNL1        0.0624
     29 H          -6.0359    0.1166   -1.1000 H       1  UNL1        0.0618
     30 H          -5.5567    2.5224   -1.2400 H       1  UNL1        0.0618
     31 H          -3.3365    3.3895   -0.5353 H       1  UNL1        0.0618
     32 H          -1.6561    1.8188    0.2910 H       1  UNL1        0.0624
     33 H           2.0863    1.5749    0.6701 H       1  UNL1        0.0723
@<TRIPOS>UNITY_ATOM_ATTR
2 1
charge 1
3 1
charge -1
@<TRIPOS>BOND
     1     1     2    2
     2     2     3    1
     3     2     4    1
     4     4     5   ar
     5     5     6   ar
     6     5    24    1
     7     6     7    1
     8     6     8   ar
     9     8     9   ar
    10     8    25    1
    11     9    10    1
    12     9    23   ar
    13    10    11    1
    14    11    12   ar
    15    12    13   ar
    16    13    14   ar
    17    13    26    1
    18    14    15   ar
    19    14    27    1
    20    15    16    1
    21    15    22   ar
    22    16    17   ar
    23    17    18   ar
    24    17    28    1
    25    18    19   ar
    26    18    29    1
    27    19    20   ar
    28    19    30    1
    29    20    21   ar
    30    20    31    1
    31    21    16   ar
    32    21    32    1
    33    22    11   ar
    34    23     4   ar
    35    23    33    1
