@<TRIPOS>MOLECULE
*****
 38 41 0 0 0
SMALL
GASTEIGER

@<TRIPOS>ATOM
      1 N          -1.2126   -0.5814    1.3557 N.pl3   1  UNL1       -0.3577
      2 C          -2.5071   -0.1569    0.9355 C.ar    1  UNL1        0.0278
      3 C          -3.5972   -0.8724    1.4738 C.ar    1  UNL1       -0.0408
      4 C          -4.8785   -0.5176    1.1362 C.ar    1  UNL1       -0.0600
      5 C          -5.0396    0.5374    0.2751 C.ar    1  UNL1       -0.0614
      6 C          -3.9829    1.2373   -0.2523 C.ar    1  UNL1       -0.0568
      7 C          -2.6648    0.8857    0.0832 C.ar    1  UNL1       -0.0264
      8 C          -1.5386    1.6306   -0.5087 C.3     1  UNL1       -0.0205
      9 C          -0.9055    0.9616   -1.6850 C.3     1  UNL1       -0.0040
     10 C          -0.2770   -0.3354   -1.4516 C.ar    1  UNL1        0.0708
     11 N          -0.7443   -1.5766   -1.6646 N.ar    1  UNL1       -0.1777
     12 N           0.1478   -2.4561   -1.3019 N.ar    1  UNL1       -0.2767
     13 C           1.2611   -1.8632   -0.8268 C.ar    1  UNL1        0.0660
     14 C           2.4670   -2.3052   -0.3300 C.ar    1  UNL1       -0.0356
     15 C           3.4048   -1.3669    0.0718 C.ar    1  UNL1       -0.0490
     16 C           3.1889   -0.0231   -0.0018 C.ar    1  UNL1        0.0212
     17 C           4.1706    0.9762    0.4073 C.ar    1  UNL1        0.1794
     18 N           4.0604    2.3156    0.3703 N.ar    1  UNL1       -0.1084
     19 N           5.1993    2.8205    0.8345 N.ar    1  UNL1       -0.0229
     20 N           6.0135    1.8351    1.1588 N.ar    1  UNL1       -0.0464
     21 N           5.3956    0.7192    0.9023 N.ar    1  UNL1       -0.2388
     22 C           1.9674    0.3935   -0.5048 C.ar    1  UNL1       -0.0401
     23 C           1.0029   -0.5000   -0.9172 C.ar    1  UNL1        0.0233
     24 H          -1.0203   -1.5986    1.4126 H       1  UNL1        0.1423
     25 H          -0.4967    0.0970    1.5947 H       1  UNL1        0.1423
     26 H          -3.4033   -1.6981    2.1514 H       1  UNL1        0.0636
     27 H          -5.7375   -1.0579    1.5405 H       1  UNL1        0.0618
     28 H          -6.0724    0.8003    0.0244 H       1  UNL1        0.0618
     29 H          -4.1217    2.0748   -0.9375 H       1  UNL1        0.0621
     30 H          -1.9396    2.6058   -0.8836 H       1  UNL1        0.0317
     31 H          -0.7981    1.8930    0.2873 H       1  UNL1        0.0317
     32 H          -1.7307    0.8524   -2.4546 H       1  UNL1        0.0332
     33 H          -0.1620    1.6482   -2.1879 H       1  UNL1        0.0332
     34 H           0.0214   -3.4996   -1.3689 H       1  UNL1        0.1889
     35 H           2.6293   -3.3684   -0.2753 H       1  UNL1        0.0639
     36 H           4.3547   -1.6968    0.4638 H       1  UNL1        0.0625
     37 H           5.7516   -0.2730    1.0412 H       1  UNL1        0.1923
     38 H           1.7938    1.4629   -0.5635 H       1  UNL1        0.0632
@<TRIPOS>BOND
     1     1     2    1
     2     1    24    1
     3     1    25    1
     4     2     3   ar
     5     3     4   ar
     6     3    26    1
     7     4     5   ar
     8     4    27    1
     9     5     6   ar
    10     5    28    1
    11     6     7   ar
    12     6    29    1
    13     7     8    1
    14     7     2   ar
    15     8     9    1
    16     8    30    1
    17     8    31    1
    18     9    10    1
    19     9    32    1
    20     9    33    1
    21    10    11   ar
    22    11    12   ar
    23    12    13   ar
    24    12    34    1
    25    13    14   ar
    26    14    15   ar
    27    14    35    1
    28    15    16   ar
    29    15    36    1
    30    16    17    1
    31    16    22   ar
    32    17    18   ar
    33    18    19   ar
    34    19    20   ar
    35    20    21   ar
    36    21    17   ar
    37    21    37    1
    38    22    23   ar
    39    22    38    1
    40    23    10   ar
    41    23    13   ar
