@<TRIPOS>MOLECULE
*****
 48 50 0 0 0
SMALL
GASTEIGER

@<TRIPOS>ATOM
      1 O          -0.8449    1.6322   -0.3903 O.2     1  UNL1       -0.2652
      2 C          -0.3393    0.9047    0.5013 C.2     1  UNL1        0.2990
      3 N          -1.2000    0.0508    1.2415 N.am    1  UNL1       -0.3073
      4 C          -2.6206   -0.0311    1.0305 C.3     1  UNL1        0.0157
      5 C          -2.9700   -0.4643   -0.3763 C.3     1  UNL1       -0.0161
      6 C          -4.4469   -0.5208   -0.5006 C.2     1  UNL1       -0.0720
      7 C          -5.0368   -1.6458   -0.8082 C.2     1  UNL1       -0.0847
      8 C          -6.5203   -1.6571   -0.9224 C.3     1  UNL1       -0.0345
      9 C          -7.1970   -0.9059    0.1919 C.3     1  UNL1       -0.0493
     10 C          -6.4241    0.3000    0.6510 C.3     1  UNL1       -0.0491
     11 C          -5.3142    0.6726   -0.2869 C.3     1  UNL1       -0.0317
     12 C           1.0992    0.9629    0.7415 C.2     1  UNL1        0.2993
     13 O           1.6415    0.2513    1.6237 O.2     1  UNL1       -0.2652
     14 N           1.9235    1.8245   -0.0146 N.am    1  UNL1       -0.3019
     15 C           3.3566    1.9330    0.1695 C.3     1  UNL1        0.0567
     16 C           3.9498    0.6081   -0.0864 C.ar    1  UNL1        0.0863
     17 N           3.2114   -0.4428   -0.4248 N.ar    1  UNL1       -0.1737
     18 N           3.7558   -1.6262   -0.6529 N.ar    1  UNL1       -0.2424
     19 C           5.0671   -1.8609   -0.5643 C.ar    1  UNL1        0.2725
     20 O           5.5970   -2.9893   -0.7806 O.2     1  UNL1       -0.2658
     21 C           5.8855   -0.7984   -0.2142 C.ar    1  UNL1        0.0496
     22 C           7.2562   -0.9514   -0.0992 C.ar    1  UNL1       -0.0487
     23 C           8.0508    0.1279    0.2524 C.ar    1  UNL1       -0.0610
     24 C           7.4754    1.3551    0.4877 C.ar    1  UNL1       -0.0611
     25 C           6.1162    1.5069    0.3736 C.ar    1  UNL1       -0.0520
     26 C           5.3245    0.4328    0.0237 C.ar    1  UNL1        0.0118
     27 H          -0.7175   -0.5404    1.9812 H       1  UNL1        0.1492
     28 H          -3.1285    0.9541    1.1993 H       1  UNL1        0.0465
     29 H          -3.0475   -0.7225    1.7661 H       1  UNL1        0.0465
     30 H          -2.6327    0.3135   -1.1186 H       1  UNL1        0.0325
     31 H          -2.5671   -1.4595   -0.6228 H       1  UNL1        0.0325
     32 H          -4.4285   -2.5438   -0.9725 H       1  UNL1        0.0572
     33 H          -6.8230   -2.7410   -0.8231 H       1  UNL1        0.0307
     34 H          -6.7703   -1.2589   -1.9323 H       1  UNL1        0.0307
     35 H          -7.3529   -1.5823    1.0547 H       1  UNL1        0.0268
     36 H          -8.1855   -0.5417   -0.1630 H       1  UNL1        0.0268
     37 H          -5.9649    0.1093    1.6611 H       1  UNL1        0.0268
     38 H          -7.0828    1.1890    0.7986 H       1  UNL1        0.0268
     39 H          -4.7713    1.5325    0.1391 H       1  UNL1        0.0310
     40 H          -5.7670    1.0016   -1.2612 H       1  UNL1        0.0310
     41 H           1.4469    2.4037   -0.7398 H       1  UNL1        0.1495
     42 H           3.7238    2.7193   -0.4934 H       1  UNL1        0.0528
     43 H           3.6203    2.2022    1.2152 H       1  UNL1        0.0528
     44 H           3.1497   -2.4413   -0.9190 H       1  UNL1        0.1921
     45 H           7.6943   -1.9385   -0.2912 H       1  UNL1        0.0625
     46 H           9.1325   -0.0031    0.3407 H       1  UNL1        0.0618
     47 H           8.0667    2.2259    0.7658 H       1  UNL1        0.0618
     48 H           5.6086    2.4529    0.5479 H       1  UNL1        0.0624
@<TRIPOS>BOND
     1     1     2    2
     2     2     3   am
     3     2    12    1
     4     3     4    1
     5     3    27    1
     6     4     5    1
     7     4    28    1
     8     4    29    1
     9     5     6    1
    10     5    30    1
    11     5    31    1
    12     6     7    2
    13     7     8    1
    14     7    32    1
    15     8     9    1
    16     8    33    1
    17     8    34    1
    18     9    10    1
    19     9    35    1
    20     9    36    1
    21    10    11    1
    22    10    37    1
    23    10    38    1
    24    11     6    1
    25    11    39    1
    26    11    40    1
    27    12    13    2
    28    12    14   am
    29    14    15    1
    30    14    41    1
    31    15    16    1
    32    15    42    1
    33    15    43    1
    34    16    17   ar
    35    17    18   ar
    36    18    19   ar
    37    18    44    1
    38    19    20    2
    39    19    21   ar
    40    21    22   ar
    41    22    23   ar
    42    22    45    1
    43    23    24   ar
    44    23    46    1
    45    24    25   ar
    46    24    47    1
    47    25    26   ar
    48    25    48    1
    49    26    16   ar
    50    26    21   ar
