@<TRIPOS>MOLECULE
*****
 28 29 0 0 0
SMALL
GASTEIGER

@<TRIPOS>ATOM
      1 O           0.6335    2.5901   -0.4633 O.2     1  UNL1       -0.2866
      2 C           0.6727    1.3259   -0.2590 C.2     1  UNL1        0.1962
      3 C          -0.5594    0.5835   -0.0259 C.ar    1  UNL1        0.0324
      4 C          -0.6052   -0.6989    0.4384 C.ar    1  UNL1       -0.0053
      5 C          -1.8339   -1.3378    0.6413 C.ar    1  UNL1        0.1659
      6 O          -1.8092   -2.6484    1.1161 O.3     1  UNL1       -0.5031
      7 C          -3.0347   -0.7114    0.3858 C.ar    1  UNL1        0.2370
      8 O          -4.2554   -1.3347    0.5830 O.3     1  UNL1       -0.4989
      9 C          -2.9932    0.6036   -0.0894 C.ar    1  UNL1        0.3184
     10 N          -4.2277    1.2531   -0.3521 N.pl3   1  UNL1        0.0836
     11 O          -5.1858    0.5918   -0.7276 O.2     1  UNL1        0.0416
     12 O          -4.3429    2.6278   -0.1782 O.co2   1  UNL1       -0.5759
     13 C          -1.7836    1.2096   -0.2814 C.ar    1  UNL1        0.0304
     14 C           1.9693    0.7027   -0.2729 C.ar    1  UNL1        0.0574
     15 C           2.9772    1.2173    0.5497 C.ar    1  UNL1       -0.0481
     16 C           4.2401    0.6629    0.5704 C.ar    1  UNL1       -0.0609
     17 C           4.4723   -0.4136   -0.2465 C.ar    1  UNL1       -0.0590
     18 C           3.4868   -0.9316   -1.0628 C.ar    1  UNL1       -0.0257
     19 C           2.2356   -0.3791   -1.0808 C.ar    1  UNL1        0.1342
     20 F           1.2915   -0.9300   -1.8986 F       1  UNL1       -0.2047
     21 H           0.3273   -1.2200    0.6497 H       1  UNL1        0.0662
     22 H          -2.6385   -3.1780    1.2866 H       1  UNL1        0.2923
     23 H          -4.3645   -2.2578    0.9148 H       1  UNL1        0.2925
     24 H          -1.7417    2.2349   -0.6524 H       1  UNL1        0.0694
     25 H           2.7955    2.0620    1.1962 H       1  UNL1        0.0625
     26 H           5.0417    1.0307    1.1821 H       1  UNL1        0.0618
     27 H           5.4576   -0.8601   -0.2400 H       1  UNL1        0.0618
     28 H           3.7745   -1.7943   -1.6832 H       1  UNL1        0.0646
@<TRIPOS>UNITY_ATOM_ATTR
10 1
charge 1
12 1
charge -1
@<TRIPOS>BOND
     1     1     2    2
     2     2     3    1
     3     2    14    1
     4     3     4   ar
     5     4     5   ar
     6     4    21    1
     7     5     6    1
     8     5     7   ar
     9     6    22    1
    10     7     8    1
    11     7     9   ar
    12     8    23    1
    13     9    10    1
    14     9    13   ar
    15    10    11    2
    16    10    12    1
    17    13     3   ar
    18    13    24    1
    19    14    15   ar
    20    15    16   ar
    21    15    25    1
    22    16    17   ar
    23    16    26    1
    24    17    18   ar
    25    17    27    1
    26    18    19   ar
    27    18    28    1
    28    19    20    1
    29    19    14   ar
