@<TRIPOS>MOLECULE
*****
 37 39 0 0 0
SMALL
GASTEIGER

@<TRIPOS>ATOM
      1 N           5.8037   -0.6786   -1.9521 N.am    1  UNL1       -0.3129
      2 C           4.4266   -0.7751   -1.6493 C.2     1  UNL1        0.3039
      3 O           3.7138   -1.6285   -2.2280 O.2     1  UNL1       -0.2525
      4 N           3.9083    0.1226   -0.6803 N.am    1  UNL1       -0.2551
      5 C           4.5585    1.1632    0.0875 C.3     1  UNL1        0.0253
      6 C           3.8545    1.0249    1.4103 C.3     1  UNL1       -0.0096
      7 C           2.4539    0.7015    1.0018 C.ar    1  UNL1       -0.0243
      8 C           1.2389    0.8489    1.6318 C.ar    1  UNL1       -0.0550
      9 C           0.1035    0.4422    0.9797 C.ar    1  UNL1       -0.0390
     10 C           0.1142   -0.1092   -0.2792 C.ar    1  UNL1        0.0498
     11 N          -1.0487   -0.5276   -0.9584 N.pl3   1  UNL1       -0.2160
     12 S          -2.2374   -1.4503   -0.1858 S.O2    1  UNL1        0.0780
     13 O          -1.7154   -1.9000    1.1629 O.2     1  UNL1       -0.1498
     14 O          -2.4860   -2.7057   -1.0180 O.2     1  UNL1       -0.1498
     15 C          -3.7788   -0.6580   -0.0052 C.ar    1  UNL1        0.1843
     16 C          -4.1600    0.0410    1.1138 C.ar    1  UNL1        0.1907
     17 F          -3.3549    0.1476    2.1952 F       1  UNL1       -0.2002
     18 C          -5.4136    0.6576    1.1646 C.ar    1  UNL1        0.1983
     19 F          -5.8216    1.3534    2.2482 F       1  UNL1       -0.1993
     20 C          -6.2856    0.5751    0.0975 C.ar    1  UNL1        0.1992
     21 F          -7.5025    1.1623    0.1223 F       1  UNL1       -0.1993
     22 C          -5.8832   -0.1250   -1.0011 C.ar    1  UNL1        0.1983
     23 F          -6.7247   -0.2253   -2.0745 F       1  UNL1       -0.1993
     24 C          -4.6576   -0.7337   -1.0639 C.ar    1  UNL1        0.1907
     25 F          -4.3348   -1.4183   -2.2102 F       1  UNL1       -0.2002
     26 C           1.3672   -0.2443   -0.8907 C.ar    1  UNL1       -0.0176
     27 C           2.5218    0.1577   -0.2544 C.ar    1  UNL1        0.0427
     28 H           6.2177    0.1840   -2.3476 H       1  UNL1        0.1465
     29 H           6.4198   -1.4929   -1.7745 H       1  UNL1        0.1465
     30 H           4.3130    2.1554   -0.3786 H       1  UNL1        0.0472
     31 H           5.6440    1.0044    0.1662 H       1  UNL1        0.0472
     32 H           3.9150    1.9187    2.0449 H       1  UNL1        0.0329
     33 H           4.2663    0.1095    1.9004 H       1  UNL1        0.0329
     34 H           1.1920    1.2864    2.6402 H       1  UNL1        0.0621
     35 H          -0.8526    0.5566    1.4665 H       1  UNL1        0.0637
     36 H          -1.1894   -0.2644   -1.9704 H       1  UNL1        0.1737
     37 H           1.4142   -0.6760   -1.8857 H       1  UNL1        0.0655
@<TRIPOS>BOND
     1     1     2   am
     2     1    28    1
     3     1    29    1
     4     2     3    2
     5     2     4   am
     6     4     5    1
     7     5     6    1
     8     5    30    1
     9     5    31    1
    10     6     7    1
    11     6    32    1
    12     6    33    1
    13     7     8   ar
    14     8     9   ar
    15     8    34    1
    16     9    10   ar
    17     9    35    1
    18    10    11    1
    19    10    26   ar
    20    11    12    1
    21    11    36    1
    22    12    13    2
    23    12    14    2
    24    12    15    1
    25    15    16   ar
    26    16    17    1
    27    16    18   ar
    28    18    19    1
    29    18    20   ar
    30    20    21    1
    31    20    22   ar
    32    22    23    1
    33    22    24   ar
    34    24    25    1
    35    24    15   ar
    36    26    27   ar
    37    26    37    1
    38    27     4    1
    39    27     7   ar
