@<TRIPOS>MOLECULE
*****
 58 62 0 0 0
SMALL
GASTEIGER

@<TRIPOS>ATOM
      1 O          -0.0342   -1.0722   -1.9409 O.2     1  UNL1       -0.2700
      2 C           0.4228    0.0376   -1.4084 C.2     1  UNL1        0.2466
      3 C          -0.5906    0.9631   -0.9780 C.ar    1  UNL1        0.0372
      4 C          -0.4127    2.1783   -0.3850 C.ar    1  UNL1       -0.0496
      5 C          -1.4564    3.0106   -0.0043 C.ar    1  UNL1       -0.0608
      6 C          -2.7431    2.5912   -0.2356 C.ar    1  UNL1       -0.0582
      7 C          -2.9837    1.3887   -0.8239 C.ar    1  UNL1       -0.0408
      8 C          -4.3833    0.9190   -1.0822 C.3     1  UNL1        0.0171
      9 C          -4.8384    0.1564    0.1069 C.ar    1  UNL1        0.0736
     10 N          -4.0718   -0.0410    1.1886 N.ar    1  UNL1       -0.1750
     11 N          -4.4984   -0.7209    2.2298 N.ar    1  UNL1       -0.2425
     12 C          -5.7272   -1.2316    2.2170 C.ar    1  UNL1        0.2725
     13 O          -6.1249   -1.8752    3.2085 O.2     1  UNL1       -0.2658
     14 C          -6.5657   -1.0718    1.1506 C.ar    1  UNL1        0.0496
     15 C          -7.8442   -1.6039    1.1386 C.ar    1  UNL1       -0.0487
     16 C          -8.6429   -1.4098    0.0357 C.ar    1  UNL1       -0.0610
     17 C          -8.2003   -0.6944   -1.0652 C.ar    1  UNL1       -0.0611
     18 C          -6.9325   -0.1761   -1.0336 C.ar    1  UNL1       -0.0521
     19 C          -6.1267   -0.3609    0.0558 C.ar    1  UNL1        0.0106
     20 C          -1.9318    0.5934   -1.1864 C.ar    1  UNL1       -0.0461
     21 N           1.8175    0.0996   -1.3656 N.am    1  UNL1       -0.2974
     22 C           2.5858   -1.0783   -1.9154 C.3     1  UNL1        0.0173
     23 C           3.4806   -1.4738   -0.7569 C.3     1  UNL1       -0.0107
     24 C           4.5345   -0.4039   -0.6424 C.3     1  UNL1        0.0619
     25 O           5.1321   -0.3762    0.6121 O.3     1  UNL1       -0.3732
     26 C           6.4801   -0.7034    0.5817 C.3     1  UNL1        0.0591
     27 C           6.9952   -1.5209    1.7263 C.3     1  UNL1       -0.0265
     28 C           8.1492   -0.5212    1.8796 C.3     1  UNL1       -0.0484
     29 C           7.2688    0.4807    1.1617 C.3     1  UNL1       -0.0265
     30 C           4.0802    0.9579   -0.9935 C.3     1  UNL1       -0.0107
     31 C           2.5783    1.1736   -0.8533 C.3     1  UNL1        0.0173
     32 H           0.5558    2.5447   -0.1842 H       1  UNL1        0.0625
     33 H          -1.2413    3.9556    0.4584 H       1  UNL1        0.0618
     34 H          -3.5597    3.2297    0.0562 H       1  UNL1        0.0620
     35 H          -5.0550    1.7877   -1.2659 H       1  UNL1        0.0377
     36 H          -4.4110    0.2534   -1.9737 H       1  UNL1        0.0377
     37 H          -3.8520   -0.8374    3.0376 H       1  UNL1        0.1921
     38 H          -8.1571   -2.1537    2.0079 H       1  UNL1        0.0625
     39 H          -9.6255   -1.8267    0.0436 H       1  UNL1        0.0618
     40 H          -8.8228   -0.5417   -1.9279 H       1  UNL1        0.0618
     41 H          -6.5285    0.3955   -1.8687 H       1  UNL1        0.0624
     42 H          -2.1596   -0.3619   -1.6546 H       1  UNL1        0.0628
     43 H           3.1702   -0.6369   -2.7444 H       1  UNL1        0.0465
     44 H           1.8845   -1.8549   -2.2018 H       1  UNL1        0.0465
     45 H           2.8312   -1.5200    0.1415 H       1  UNL1        0.0305
     46 H           3.9709   -2.4343   -0.9794 H       1  UNL1        0.0305
     47 H           5.3566   -0.6991   -1.3604 H       1  UNL1        0.0597
     48 H           6.9027   -0.9396   -0.4047 H       1  UNL1        0.0596
     49 H           6.3719   -1.4939    2.6209 H       1  UNL1        0.0290
     50 H           7.4423   -2.5090    1.4667 H       1  UNL1        0.0290
     51 H           9.0293   -0.7695    1.2679 H       1  UNL1        0.0267
     52 H           8.3736   -0.2821    2.9299 H       1  UNL1        0.0267
     53 H           6.6911    1.0605    1.9237 H       1  UNL1        0.0290
     54 H           7.7596    1.0982    0.4038 H       1  UNL1        0.0290
     55 H           4.5834    1.7050   -0.3474 H       1  UNL1        0.0305
     56 H           4.3615    1.2002   -2.0389 H       1  UNL1        0.0305
     57 H           2.3490    2.0962   -1.4078 H       1  UNL1        0.0465
     58 H           2.3626    1.3193    0.2159 H       1  UNL1        0.0465
@<TRIPOS>BOND
     1     1     2    2
     2     2     3    1
     3     2    21   am
     4     3     4   ar
     5     4     5   ar
     6     4    32    1
     7     5     6   ar
     8     5    33    1
     9     6     7   ar
    10     6    34    1
    11     7     8    1
    12     7    20   ar
    13     8     9    1
    14     8    35    1
    15     8    36    1
    16     9    10   ar
    17    10    11   ar
    18    11    12   ar
    19    11    37    1
    20    12    13    2
    21    12    14   ar
    22    14    15   ar
    23    15    16   ar
    24    15    38    1
    25    16    17   ar
    26    16    39    1
    27    17    18   ar
    28    17    40    1
    29    18    19   ar
    30    18    41    1
    31    19     9   ar
    32    19    14   ar
    33    20     3   ar
    34    20    42    1
    35    21    22    1
    36    22    23    1
    37    22    43    1
    38    22    44    1
    39    23    24    1
    40    23    45    1
    41    23    46    1
    42    24    25    1
    43    24    30    1
    44    24    47    1
    45    25    26    1
    46    26    27    1
    47    26    48    1
    48    27    28    1
    49    27    49    1
    50    27    50    1
    51    28    29    1
    52    28    51    1
    53    28    52    1
    54    29    26    1
    55    29    53    1
    56    29    54    1
    57    30    31    1
    58    30    55    1
    59    30    56    1
    60    31    21    1
    61    31    57    1
    62    31    58    1
