@<TRIPOS>MOLECULE
*****
 40 43 0 0 0
SMALL
GASTEIGER

@<TRIPOS>ATOM
      1 O          -3.4896    3.3086    1.1732 O.2     1  UNL1       -0.2446
      2 C          -4.0894    2.2910    0.7983 C.ar    1  UNL1        0.3487
      3 N          -5.4269    2.1790    0.7255 N.ar    1  UNL1       -0.2263
      4 N          -5.7665    0.9918    0.2916 N.ar    1  UNL1       -0.1561
      5 C          -4.6194    0.2765    0.0631 C.ar    1  UNL1        0.1384
      6 N          -3.6218    1.1006    0.3848 N.ar    1  UNL1       -0.2473
      7 C          -2.2415    0.7860    0.2978 C.ar    1  UNL1        0.0560
      8 C          -1.4826    1.5443    1.1291 C.ar    1  UNL1       -0.0339
      9 C          -0.0914    1.3589    1.1047 C.ar    1  UNL1       -0.0180
     10 C           0.5497    0.4623    0.2985 C.ar    1  UNL1        0.1214
     11 O           1.9286    0.3005    0.2937 O.3     1  UNL1       -0.4874
     12 C           2.6057   -0.6058   -0.5185 C.3     1  UNL1        0.1147
     13 C           4.0635   -0.4899   -0.2427 C.ar    1  UNL1       -0.0077
     14 C           4.6723   -1.2608    0.7328 C.ar    1  UNL1       -0.0552
     15 C           6.0198   -1.1359    0.9691 C.ar    1  UNL1       -0.0587
     16 C           6.8130   -0.2573    0.2627 C.ar    1  UNL1       -0.0264
     17 C           6.2017    0.5066   -0.7060 C.ar    1  UNL1        0.1238
     18 F           6.9229    1.3900   -1.4370 F       1  UNL1       -0.2055
     19 C           4.8554    0.3958   -0.9568 C.ar    1  UNL1       -0.0201
     20 C          -0.2603   -0.3089   -0.5467 C.ar    1  UNL1       -0.0148
     21 C          -1.6149   -0.1498   -0.5436 C.ar    1  UNL1       -0.0199
     22 C          -2.3705   -1.0749   -1.4357 C.3     1  UNL1       -0.0252
     23 C          -3.3771   -1.7864   -0.5300 C.3     1  UNL1       -0.0421
     24 C          -4.6926   -1.0969   -0.4640 C.3     1  UNL1        0.0081
     25 H          -6.1167    2.9264    0.9766 H       1  UNL1        0.1937
     26 H          -1.9294    2.2358    1.8019 H       1  UNL1        0.0639
     27 H           0.4810    1.9758    1.7740 H       1  UNL1        0.0655
     28 H           2.2353   -1.6376   -0.3370 H       1  UNL1        0.0748
     29 H           2.4470   -0.4143   -1.6145 H       1  UNL1        0.0748
     30 H           4.0764   -1.9603    1.3048 H       1  UNL1        0.0621
     31 H           6.4440   -1.7660    1.7465 H       1  UNL1        0.0619
     32 H           7.8802   -0.1820    0.4747 H       1  UNL1        0.0646
     33 H           4.3680    0.9915   -1.7152 H       1  UNL1        0.0650
     34 H           0.2141   -1.0223   -1.1906 H       1  UNL1        0.0657
     35 H          -1.6607   -1.8469   -1.7881 H       1  UNL1        0.0314
     36 H          -2.9379   -0.5750   -2.2209 H       1  UNL1        0.0314
     37 H          -3.5536   -2.7873   -1.0109 H       1  UNL1        0.0272
     38 H          -2.9326   -1.9979    0.4536 H       1  UNL1        0.0272
     39 H          -5.4638   -1.6920    0.0828 H       1  UNL1        0.0344
     40 H          -5.0394   -0.9730   -1.5434 H       1  UNL1        0.0344
@<TRIPOS>BOND
     1     1     2    2
     2     2     3   ar
     3     3     4   ar
     4     3    25    1
     5     4     5   ar
     6     5     6   ar
     7     6     7    1
     8     6     2   ar
     9     7     8   ar
    10     8     9   ar
    11     8    26    1
    12     9    10   ar
    13     9    27    1
    14    10    11    1
    15    10    20   ar
    16    11    12    1
    17    12    13    1
    18    12    28    1
    19    12    29    1
    20    13    14   ar
    21    14    15   ar
    22    14    30    1
    23    15    16   ar
    24    15    31    1
    25    16    17   ar
    26    16    32    1
    27    17    18    1
    28    17    19   ar
    29    19    13   ar
    30    19    33    1
    31    20    21   ar
    32    20    34    1
    33    21    22    1
    34    21     7   ar
    35    22    23    1
    36    22    35    1
    37    22    36    1
    38    23    24    1
    39    23    37    1
    40    23    38    1
    41    24     5    1
    42    24    39    1
    43    24    40    1
