cs_R2_output_folder/data/smiles/0.pdb


 27 30  0  0  0  0  0  0  0  0999 V2000
   71.3170   46.1099   58.5721 C   0  0  0  0  0  0  0  0  0  0  0  0
   70.3184   46.6142   57.7431 C   0  0  0  0  0  0  0  0  0  0  0  0
   69.9086   47.9015   57.6964 C   0  0  0  0  0  0  0  0  0  0  0  0
   70.5446   48.8014   58.5560 C   0  0  0  0  0  0  0  0  0  0  0  0
   71.5396   48.3608   59.3980 C   0  0  0  0  0  0  0  0  0  0  0  0
   71.9209   47.0311   59.4067 C   0  0  0  0  0  0  0  0  0  0  0  0
   72.9026   46.6646   60.2575 F   0  0  0  0  0  0  0  0  0  0  0  0
   69.7478   44.2067   59.6851 O   0  0  0  0  0  0  0  0  0  0  0  0
   70.7546   43.7719   59.0470 C   0  0  0  0  0  0  0  0  0  0  0  0
   70.9178   42.3178   58.8410 C   0  0  0  0  0  0  0  0  0  0  0  0
   71.8403   42.0947   57.6345 C   0  0  0  0  0  0  0  0  0  0  0  0
   73.1482   42.7868   57.9653 C   0  0  0  0  0  0  0  0  0  0  0  0
   72.9256   44.2474   58.0879 C   0  0  0  0  0  0  0  0  0  0  0  0
   73.8322   45.0911   57.7767 O   0  0  0  0  0  0  0  0  0  0  0  0
   71.6814   44.7363   58.5606 N   0  0  0  0  0  0  0  0  0  0  0  0
   68.8354   48.4662   56.8321 C   0  0  0  0  0  0  0  0  0  0  0  0
   68.5829   47.6430   55.6682 C   0  0  0  0  0  0  0  0  0  0  0  0
   67.9537   46.4415   55.9025 N   0  0  0  0  0  0  0  0  0  0  0  0
   67.6860   45.5662   54.9805 N   0  0  0  0  0  0  0  0  0  0  0  0
   68.0314   45.8265   53.7294 C   0  0  0  0  0  0  0  0  0  0  0  0
   67.7574   44.9535   52.8528 O   0  0  0  0  0  0  0  0  0  0  0  0
   68.6724   47.0140   53.3890 C   0  0  0  0  0  0  0  0  0  0  0  0
   68.9399   47.9179   54.3868 C   0  0  0  0  0  0  0  0  0  0  0  0
   69.5683   49.1783   54.0300 C   0  0  0  0  0  0  0  0  0  0  0  0
   70.5166   48.8633   52.8552 C   0  0  0  0  0  0  0  0  0  0  0  0
   69.7122   48.4351   51.6542 C   0  0  0  0  0  0  0  0  0  0  0  0
   69.0036   47.1678   51.9606 C   0  0  0  0  0  0  0  0  0  0  0  0
  8  9  2  0  0  0
  9 10  1  0  0  0
  9 15  1  0  0  0
 10 11  1  0  0  0
 11 12  1  0  0  0
 12 13  1  0  0  0
 13 14  2  0  0  0
 13 15  1  0  0  0
 15  1  1  0  0  0
  1  2  2  0  0  0
  1  6  1  0  0  0
  2  3  1  0  0  0
  3 16  1  0  0  0
  3  4  2  0  0  0
 16 17  1  0  0  0
 17 18  2  0  0  0
 17 23  1  0  0  0
 18 19  1  0  0  0
 19 20  1  0  0  0
 20 21  2  0  0  0
 20 22  1  0  0  0
 22 23  2  0  0  0
 22 27  1  0  0  0
 23 24  1  0  0  0
 24 25  1  0  0  0
 25 26  1  0  0  0
 26 27  1  0  0  0
  4  5  1  0  0  0
  5  6  2  0  0  0
  6  7  1  0  0  0
M  END
> <minimizedAffinity>
-9.05134

$$$$
cs_R2_output_folder/data/smiles/1.pdb


 19 20  0  0  0  0  0  0  0  0999 V2000
   69.3093   50.5057   53.6589 O   0  0  0  0  0  0  0  0  0  0  0  0
   70.2025   49.7394   53.2037 C   0  0  0  0  0  0  0  0  0  0  0  0
   71.5030   49.7516   53.7680 N   0  0  0  0  0  0  0  0  0  0  0  0
   71.8106   50.6364   54.8573 C   0  0  0  0  0  0  0  0  0  0  0  0
   71.5604   50.3639   56.1702 C   0  0  0  0  0  0  0  0  0  0  0  0
   71.9266   51.2462   57.1779 C   0  0  0  0  0  0  0  0  0  0  0  0
   72.5600   52.4443   56.9228 C   0  0  0  0  0  0  0  0  0  0  0  0
   72.8140   52.7204   55.5827 C   0  0  0  0  0  0  0  0  0  0  0  0
   72.4507   51.8470   54.5922 C   0  0  0  0  0  0  0  0  0  0  0  0
   72.9518   53.3506   57.9452 N   0  0  0  0  0  0  0  0  0  0  0  0
   72.2227   54.2512   58.3767 O   0  0  0  0  0  0  0  0  0  0  0  0
   74.2079   53.2276   58.4762 O   0  0  0  0  0  0  0  0  0  0  0  0
   69.9485   48.7831   52.0737 C   0  0  0  0  0  0  0  0  0  0  0  0
   69.1634   47.6915   52.6918 C   0  0  0  0  0  0  0  0  0  0  0  0
   68.5123   46.7829   51.8832 C   0  0  0  0  0  0  0  0  0  0  0  0
   67.7887   45.7196   52.4051 C   0  0  0  0  0  0  0  0  0  0  0  0
   67.7337   45.5862   53.8006 C   0  0  0  0  0  0  0  0  0  0  0  0
   68.3679   46.4752   54.6048 C   0  0  0  0  0  0  0  0  0  0  0  0
   69.0911   47.5380   54.0405 C   0  0  0  0  0  0  0  0  0  0  0  0
  1  2  2  0  0  0
  2 13  1  0  0  0
  2  3  1  0  0  0
 13 14  1  0  0  0
 14 15  2  0  0  0
 14 19  1  0  0  0
 15 16  1  0  0  0
 16 17  2  0  0  0
 17 18  1  0  0  0
 18 19  2  0  0  0
  3  4  1  0  0  0
  4  5  2  0  0  0
  4  9  1  0  0  0
  5  6  1  0  0  0
  6  7  2  0  0  0
  7 10  1  0  0  0
  7  8  1  0  0  0
 10 11  2  0  0  0
 10 12  1  0  0  0
  8  9  2  0  0  0
M  CHG 1  10   1
M  CHG 1  12  -1
M  END
> <minimizedAffinity>
-6.53436

$$$$
cs_R2_output_folder/data/smiles/2.pdb


 20 22  0  0  0  0  0  0  0  0999 V2000
   69.7398   48.1210   54.8338 C   0  0  0  0  0  0  0  0  0  0  0  0
   70.6299   49.0234   54.3869 N   0  0  0  0  0  0  0  0  0  0  0  0
   70.8928   49.2521   53.1268 N   0  0  0  0  0  0  0  0  0  0  0  0
   70.2397   48.5476   52.1648 C   0  0  0  0  0  0  0  0  0  0  0  0
   70.4961   48.7715   50.9576 O   0  0  0  0  0  0  0  0  0  0  0  0
   69.3068   47.5989   52.5183 C   0  0  0  0  0  0  0  0  0  0  0  0
   68.6217   46.8616   51.5784 C   0  0  0  0  0  0  0  0  0  0  0  0
   67.6839   45.9084   51.9400 C   0  0  0  0  0  0  0  0  0  0  0  0
   67.4510   45.7127   53.2912 C   0  0  0  0  0  0  0  0  0  0  0  0
   68.1442   46.4580   54.2272 C   0  0  0  0  0  0  0  0  0  0  0  0
   69.0701   47.4003   53.8599 C   0  0  0  0  0  0  0  0  0  0  0  0
   69.5223   47.9506   56.2715 C   0  0  0  0  0  0  0  0  0  0  0  0
   68.1078   51.3791   57.1016 C   0  0  0  0  0  0  0  0  0  0  0  0
   66.9359   51.0191   57.7275 C   0  0  0  0  0  0  0  0  0  0  0  0
   66.5956   49.6717   57.8840 C   0  0  0  0  0  0  0  0  0  0  0  0
   67.4311   48.6808   57.4119 C   0  0  0  0  0  0  0  0  0  0  0  0
   68.6133   49.0292   56.7801 C   0  0  0  0  0  0  0  0  0  0  0  0
   68.9289   50.3555   56.6369 C   0  0  0  0  0  0  0  0  0  0  0  0
   69.5519   53.1266   56.1705 C   0  0  0  0  0  0  0  0  0  0  0  0
   68.4669   52.6978   56.9343 O   0  0  0  0  0  0  0  0  0  0  0  0
 19 20  1  0  0  0
 20 13  1  0  0  0
 13 14  2  0  0  0
 13 18  1  0  0  0
 14 15  1  0  0  0
 15 16  2  0  0  0
 16 17  1  0  0  0
 17 12  1  0  0  0
 17 18  2  0  0  0
 12  1  1  0  0  0
  1  2  2  0  0  0
  1 11  1  0  0  0
  2  3  1  0  0  0
  3  4  1  0  0  0
  4  5  2  0  0  0
  4  6  1  0  0  0
  6  7  1  0  0  0
  6 11  2  0  0  0
  7  8  2  0  0  0
  8  9  1  0  0  0
  9 10  2  0  0  0
 10 11  1  0  0  0
M  END
> <minimizedAffinity>
-8.98171

$$$$
cs_R2_output_folder/data/smiles/3.pdb


 27 30  0  0  0  0  0  0  0  0999 V2000
   69.8927   47.5082   57.6334 C   0  0  0  0  0  0  0  0  0  0  0  0
   70.7954   48.2759   58.3829 C   0  0  0  0  0  0  0  0  0  0  0  0
   71.8282   47.7247   59.0914 C   0  0  0  0  0  0  0  0  0  0  0  0
   71.9810   46.3621   59.0637 C   0  0  0  0  0  0  0  0  0  0  0  0
   71.1221   45.5733   58.3442 C   0  0  0  0  0  0  0  0  0  0  0  0
   70.0975   46.1607   57.6458 C   0  0  0  0  0  0  0  0  0  0  0  0
   68.7808   48.2006   56.9143 C   0  0  0  0  0  0  0  0  0  0  0  0
   67.7892   45.6216   52.1629 O   0  0  0  0  0  0  0  0  0  0  0  0
   68.0328   46.2134   53.2443 C   0  0  0  0  0  0  0  0  0  0  0  0
   67.4553   45.8311   54.4123 N   0  0  0  0  0  0  0  0  0  0  0  0
   67.7311   46.4695   55.5122 N   0  0  0  0  0  0  0  0  0  0  0  0
   68.5794   47.5288   55.6093 C   0  0  0  0  0  0  0  0  0  0  0  0
   69.1900   47.9607   54.4813 C   0  0  0  0  0  0  0  0  0  0  0  0
   68.8988   47.2818   53.2955 C   0  0  0  0  0  0  0  0  0  0  0  0
   69.5698   47.7808   52.0797 C   0  0  0  0  0  0  0  0  0  0  0  0
   69.4934   49.2853   51.9561 C   0  0  0  0  0  0  0  0  0  0  0  0
   69.7142   50.0115   53.2611 C   0  0  0  0  0  0  0  0  0  0  0  0
   70.1644   49.0539   54.3539 C   0  0  0  0  0  0  0  0  0  0  0  0
   71.2776   44.1469   58.3113 N   0  0  0  0  0  0  0  0  0  0  0  0
   70.0797   43.1004   58.9373 S   0  0  0  0  0  0  0  0  0  0  0  0
   70.7559   41.8867   59.5348 O   0  0  0  0  0  0  0  0  0  0  0  0
   69.2839   43.7778   60.0306 O   0  0  0  0  0  0  0  0  0  0  0  0
   68.9767   42.6168   57.6585 C   0  0  0  0  0  0  0  0  0  0  0  0
   68.5347   41.3410   57.3718 C   0  0  0  0  0  0  0  0  0  0  0  0
   67.6795   41.3947   56.2909 C   0  0  0  0  0  0  0  0  0  0  0  0
   67.6318   42.7281   55.9529 C   0  0  0  0  0  0  0  0  0  0  0  0
   68.4005   43.4057   56.7733 O   0  0  0  0  0  0  0  0  0  0  0  0
  8  9  2  0  0  0
  9 10  1  0  0  0
  9 14  1  0  0  0
 10 11  1  0  0  0
 11 12  2  0  0  0
 12  7  1  0  0  0
 12 13  1  0  0  0
  7  1  1  0  0  0
  1  2  2  0  0  0
  1  6  1  0  0  0
  2  3  1  0  0  0
  3  4  2  0  0  0
  4  5  1  0  0  0
  5 19  1  0  0  0
  5  6  2  0  0  0
 19 20  1  0  0  0
 20 21  2  0  0  0
 20 22  2  0  0  0
 20 23  1  0  0  0
 23 24  2  0  0  0
 23 27  1  0  0  0
 24 25  1  0  0  0
 25 26  2  0  0  0
 26 27  1  0  0  0
 13 14  2  0  0  0
 13 18  1  0  0  0
 14 15  1  0  0  0
 15 16  1  0  0  0
 16 17  1  0  0  0
 17 18  1  0  0  0
M  END
> <minimizedAffinity>
-9.04800

$$$$
cs_R2_output_folder/data/smiles/4.pdb


 26 27  0  0  0  0  0  0  0  0999 V2000
   67.7463   43.4324   56.2476 N   0  0  0  0  0  0  0  0  0  0  0  0
   68.0770   42.3563   56.7450 C   0  0  0  0  0  0  0  0  0  0  0  0
   69.2953   41.8488   57.3104 C   0  0  0  0  0  0  0  0  0  0  0  0
   70.4599   42.6338   57.3225 C   0  0  0  0  0  0  0  0  0  0  0  0
   71.6526   42.2028   57.8490 C   0  0  0  0  0  0  0  0  0  0  0  0
   71.7752   40.9527   58.4057 C   0  0  0  0  0  0  0  0  0  0  0  0
   70.6563   40.1577   58.4122 C   0  0  0  0  0  0  0  0  0  0  0  0
   70.7602   38.5581   59.1098 Cl  0  0  0  0  0  0  0  0  0  0  0  0
   69.4460   40.6023   57.8741 C   0  0  0  0  0  0  0  0  0  0  0  0
   68.3685   39.7338   57.9237 O   0  0  0  0  0  0  0  0  0  0  0  0
   72.8733   43.0695   57.8418 C   0  0  0  0  0  0  0  0  0  0  0  0
   73.6011   42.7403   56.7159 F   0  0  0  0  0  0  0  0  0  0  0  0
   72.4889   44.3782   57.8495 F   0  0  0  0  0  0  0  0  0  0  0  0
   73.6271   42.7474   58.9578 F   0  0  0  0  0  0  0  0  0  0  0  0
   67.4519   44.7227   53.8267 O   0  0  0  0  0  0  0  0  0  0  0  0
   68.0998   45.3296   54.7001 C   0  0  0  0  0  0  0  0  0  0  0  0
   68.2434   44.6397   55.9595 N   0  0  0  0  0  0  0  0  0  0  0  0
   68.6659   46.6445   54.4482 C   0  0  0  0  0  0  0  0  0  0  0  0
   68.8240   47.4944   55.5279 C   0  0  0  0  0  0  0  0  0  0  0  0
   69.3481   48.7638   55.4197 C   0  0  0  0  0  0  0  0  0  0  0  0
   69.7329   49.1956   54.1520 C   0  0  0  0  0  0  0  0  0  0  0  0
   69.5948   48.3844   53.0475 C   0  0  0  0  0  0  0  0  0  0  0  0
   69.0591   47.1195   53.2314 C   0  0  0  0  0  0  0  0  0  0  0  0
   69.9977   48.8586   51.7702 N   0  0  0  0  0  0  0  0  0  0  0  0
   70.5053   48.0998   50.9521 O   0  0  0  0  0  0  0  0  0  0  0  0
   69.8331   50.1758   51.4123 O   0  0  0  0  0  0  0  0  0  0  0  0
 15 16  2  0  0  0
 16 17  1  0  0  0
 16 18  1  0  0  0
 17  1  1  0  0  0
  1  2  2  0  0  0
  2  3  1  0  0  0
  3  4  2  0  0  0
  3  9  1  0  0  0
  4  5  1  0  0  0
  5 11  1  0  0  0
  5  6  2  0  0  0
 11 12  1  0  0  0
 11 13  1  0  0  0
 11 14  1  0  0  0
  6  7  1  0  0  0
  7  8  1  0  0  0
  7  9  2  0  0  0
  9 10  1  0  0  0
 18 19  2  0  0  0
 18 23  1  0  0  0
 19 20  1  0  0  0
 20 21  2  0  0  0
 21 22  1  0  0  0
 22 24  1  0  0  0
 22 23  2  0  0  0
 24 25  2  0  0  0
 24 26  1  0  0  0
M  CHG 1  24   1
M  CHG 1  26  -1
M  END
> <minimizedAffinity>
-8.91708

$$$$
cs_R2_output_folder/data/smiles/5.pdb


 20 21  0  0  0  0  0  0  0  0999 V2000
   70.8180   50.5011   54.9672 N   0  0  0  0  0  0  0  0  0  0  0  0
   70.2830   50.1391   53.7120 C   0  0  0  0  0  0  0  0  0  0  0  0
   70.3119   50.9994   52.7994 O   0  0  0  0  0  0  0  0  0  0  0  0
   69.1180   52.4511   55.9414 C   0  0  0  0  0  0  0  0  0  0  0  0
   70.5402   52.7566   55.7198 C   0  0  0  0  0  0  0  0  0  0  0  0
   71.0303   54.0300   56.0025 C   0  0  0  0  0  0  0  0  0  0  0  0
   72.3563   54.3417   55.8045 C   0  0  0  0  0  0  0  0  0  0  0  0
   73.2082   53.3657   55.3171 C   0  0  0  0  0  0  0  0  0  0  0  0
   72.7054   52.0993   55.0395 C   0  0  0  0  0  0  0  0  0  0  0  0
   73.6232   51.0703   54.5207 C   0  0  0  0  0  0  0  0  0  0  0  0
   71.3794   51.7803   55.2354 C   0  0  0  0  0  0  0  0  0  0  0  0
   69.7001   48.8387   53.4006 C   0  0  0  0  0  0  0  0  0  0  0  0
   69.5970   48.3724   52.0986 C   0  0  0  0  0  0  0  0  0  0  0  0
   69.0390   47.1368   51.8410 C   0  0  0  0  0  0  0  0  0  0  0  0
   68.5703   46.3275   52.8556 C   0  0  0  0  0  0  0  0  0  0  0  0
   68.6604   46.7691   54.1737 C   0  0  0  0  0  0  0  0  0  0  0  0
   69.2202   48.0007   54.3869 C   0  0  0  0  0  0  0  0  0  0  0  0
   68.1847   45.9541   55.2337 N   0  0  0  0  0  0  0  0  0  0  0  0
   68.0985   46.4381   56.3732 O   0  0  0  0  0  0  0  0  0  0  0  0
   67.8262   44.6680   55.0199 O   0  0  0  0  0  0  0  0  0  0  0  0
  4  5  1  0  0  0
  5  6  2  0  0  0
  5 11  1  0  0  0
  6  7  1  0  0  0
  7  8  2  0  0  0
  8  9  1  0  0  0
  9 10  1  0  0  0
  9 11  2  0  0  0
 11  1  1  0  0  0
  1  2  1  0  0  0
  2  3  2  0  0  0
  2 12  1  0  0  0
 12 13  2  0  0  0
 12 17  1  0  0  0
 13 14  1  0  0  0
 14 15  2  0  0  0
 15 16  1  0  0  0
 16 18  1  0  0  0
 16 17  2  0  0  0
 18 19  2  0  0  0
 18 20  1  0  0  0
M  CHG 1  18   1
M  CHG 1  20  -1
M  END
> <minimizedAffinity>
-7.13391

$$$$
cs_R2_output_folder/data/smiles/6.pdb


 27 28  0  0  0  0  0  0  0  0999 V2000
   70.1034   42.9950   57.7741 C   0  0  0  0  0  0  0  0  0  0  0  0
   70.7535   42.5373   56.8229 O   0  0  0  0  0  0  0  0  0  0  0  0
   69.2604   44.1111   57.3719 N   0  0  0  0  0  0  0  0  0  0  0  0
   69.2080   44.5833   56.0806 N   0  0  0  0  0  0  0  0  0  0  0  0
   68.6697   45.8117   55.6712 C   0  0  0  0  0  0  0  0  0  0  0  0
   68.1893   46.5549   56.5621 O   0  0  0  0  0  0  0  0  0  0  0  0
   68.6289   46.2836   54.2905 C   0  0  0  0  0  0  0  0  0  0  0  0
   67.7625   45.7200   53.3765 C   0  0  0  0  0  0  0  0  0  0  0  0
   67.7227   46.1644   52.0709 C   0  0  0  0  0  0  0  0  0  0  0  0
   68.5367   47.1829   51.6199 C   0  0  0  0  0  0  0  0  0  0  0  0
   69.4150   47.7667   52.5148 C   0  0  0  0  0  0  0  0  0  0  0  0
   69.4395   47.3001   53.8326 C   0  0  0  0  0  0  0  0  0  0  0  0
   70.2584   48.8097   52.0787 N   0  0  0  0  0  0  0  0  0  0  0  0
   71.2553   49.1109   52.7357 O   0  0  0  0  0  0  0  0  0  0  0  0
   69.9683   49.4817   50.9309 O   0  0  0  0  0  0  0  0  0  0  0  0
   70.4635   41.4677   59.7428 C   0  0  0  0  0  0  0  0  0  0  0  0
   70.1332   42.5296   59.1259 C   0  0  0  0  0  0  0  0  0  0  0  0
   72.0976   37.6481   58.7101 C   0  0  0  0  0  0  0  0  0  0  0  0
   72.7644   38.5421   59.5175 C   0  0  0  0  0  0  0  0  0  0  0  0
   72.2315   39.7595   59.8077 C   0  0  0  0  0  0  0  0  0  0  0  0
   70.9715   40.2019   59.3143 C   0  0  0  0  0  0  0  0  0  0  0  0
   70.3370   39.2911   58.5190 C   0  0  0  0  0  0  0  0  0  0  0  0
   70.8802   38.0264   58.2108 C   0  0  0  0  0  0  0  0  0  0  0  0
   71.7517   35.2767   58.9919 C   0  0  0  0  0  0  0  0  0  0  0  0
   72.6705   36.3225   58.3895 C   0  0  0  0  0  0  0  0  0  0  0  0
   74.0705   36.2129   58.9025 C   0  0  0  0  0  0  0  0  0  0  0  0
   72.6993   36.0683   56.8891 C   0  0  0  0  0  0  0  0  0  0  0  0
 24 25  1  0  0  0
 25 26  1  0  0  0
 25 27  1  0  0  0
 25 18  1  0  0  0
 18 19  2  0  0  0
 18 23  1  0  0  0
 19 20  1  0  0  0
 20 21  2  0  0  0
 21 16  1  0  0  0
 21 22  1  0  0  0
 16 17  2  0  0  0
 17  1  1  0  0  0
  1  2  2  0  0  0
  1  3  1  0  0  0
  3  4  1  0  0  0
  4  5  1  0  0  0
  5  6  2  0  0  0
  5  7  1  0  0  0
  7  8  2  0  0  0
  7 12  1  0  0  0
  8  9  1  0  0  0
  9 10  2  0  0  0
 10 11  1  0  0  0
 11 13  1  0  0  0
 11 12  2  0  0  0
 13 14  2  0  0  0
 13 15  1  0  0  0
 22 23  2  0  0  0
M  CHG 1  13   1
M  CHG 1  15  -1
M  END
> <minimizedAffinity>
-9.11622

$$$$
cs_R2_output_folder/data/smiles/7.pdb


 21 23  0  0  0  0  0  0  0  0999 V2000
   69.1799   50.8682   52.9478 O   0  0  0  0  0  0  0  0  0  0  0  0
   69.5794   50.6786   54.1173 C   0  0  0  0  0  0  0  0  0  0  0  0
   69.5966   49.3889   54.6745 N   0  0  0  0  0  0  0  0  0  0  0  0
   69.9884   49.2395   56.0565 C   0  0  0  0  0  0  0  0  0  0  0  0
   69.4254   48.0060   56.6994 C   0  0  0  0  0  0  0  0  0  0  0  0
   68.2817   47.3896   55.9472 C   0  0  0  0  0  0  0  0  0  0  0  0
   68.5457   47.2244   54.5016 C   0  0  0  0  0  0  0  0  0  0  0  0
   68.1558   46.1006   53.7752 C   0  0  0  0  0  0  0  0  0  0  0  0
   68.4582   46.0513   52.4301 C   0  0  0  0  0  0  0  0  0  0  0  0
   69.1284   47.0833   51.8168 C   0  0  0  0  0  0  0  0  0  0  0  0
   69.5106   48.1904   52.5422 C   0  0  0  0  0  0  0  0  0  0  0  0
   69.2266   48.2805   53.8950 C   0  0  0  0  0  0  0  0  0  0  0  0
   70.0372   51.8360   54.9118 C   0  0  0  0  0  0  0  0  0  0  0  0
   69.1898   52.5160   55.7561 C   0  0  0  0  0  0  0  0  0  0  0  0
   69.5980   53.6102   56.5150 C   0  0  0  0  0  0  0  0  0  0  0  0
   70.9221   53.9784   56.3687 C   0  0  0  0  0  0  0  0  0  0  0  0
   71.8027   53.3299   55.5395 C   0  0  0  0  0  0  0  0  0  0  0  0
   71.3465   52.2542   54.8109 C   0  0  0  0  0  0  0  0  0  0  0  0
   73.1744   53.7475   55.4208 N   0  0  0  0  0  0  0  0  0  0  0  0
   74.1087   53.0369   55.8309 O   0  0  0  0  0  0  0  0  0  0  0  0
   73.4875   54.9518   54.8476 O   0  0  0  0  0  0  0  0  0  0  0  0
  1  2  2  0  0  0
  2 13  1  0  0  0
  2  3  1  0  0  0
 13 14  2  0  0  0
 13 18  1  0  0  0
 14 15  1  0  0  0
 15 16  2  0  0  0
 16 17  1  0  0  0
 17 19  1  0  0  0
 17 18  2  0  0  0
 19 20  2  0  0  0
 19 21  1  0  0  0
  3  4  1  0  0  0
  3 12  1  0  0  0
  4  5  1  0  0  0
  5  6  1  0  0  0
  6  7  1  0  0  0
  7  8  2  0  0  0
  7 12  1  0  0  0
  8  9  1  0  0  0
  9 10  2  0  0  0
 10 11  1  0  0  0
 11 12  2  0  0  0
M  CHG 1  19   1
M  CHG 1  21  -1
M  END
> <minimizedAffinity>
-7.18885

$$$$
cs_R2_output_folder/data/smiles/8.pdb


 21 23  0  0  0  0  0  0  0  0999 V2000
   72.7153   50.3856   54.0975 O   0  0  0  0  0  0  0  0  0  0  0  0
   71.4796   50.2108   53.9305 C   0  0  0  0  0  0  0  0  0  0  0  0
   70.9972   49.1808   53.2173 N   0  0  0  0  0  0  0  0  0  0  0  0
   69.6681   49.0080   53.0486 C   0  0  0  0  0  0  0  0  0  0  0  0
   68.8580   49.9040   53.6195 N   0  0  0  0  0  0  0  0  0  0  0  0
   69.2850   50.9473   54.3392 C   0  0  0  0  0  0  0  0  0  0  0  0
   68.4519   51.8417   54.9088 N   0  0  0  0  0  0  0  0  0  0  0  0
   68.8591   52.8945   55.6336 C   0  0  0  0  0  0  0  0  0  0  0  0
   70.2029   53.0889   55.8182 C   0  0  0  0  0  0  0  0  0  0  0  0
   71.1168   52.2009   55.2557 C   0  0  0  0  0  0  0  0  0  0  0  0
   70.6409   51.1345   54.5197 C   0  0  0  0  0  0  0  0  0  0  0  0
   69.1851   47.8481   52.2555 C   0  0  0  0  0  0  0  0  0  0  0  0
   68.9346   46.6077   53.0366 C   0  0  0  0  0  0  0  0  0  0  0  0
   67.9850   46.7243   54.1739 C   0  0  0  0  0  0  0  0  0  0  0  0
   68.7029   46.4457   55.4960 C   0  0  0  0  0  0  0  0  0  0  0  0
   68.8398   47.6432   56.3226 C   0  0  0  0  0  0  0  0  0  0  0  0
   67.7305   48.3341   56.7342 C   0  0  0  0  0  0  0  0  0  0  0  0
   67.8485   49.4819   57.5319 C   0  0  0  0  0  0  0  0  0  0  0  0
   69.0988   49.9149   57.9026 C   0  0  0  0  0  0  0  0  0  0  0  0
   70.2206   49.2324   57.4992 C   0  0  0  0  0  0  0  0  0  0  0  0
   70.0740   48.0967   56.7084 C   0  0  0  0  0  0  0  0  0  0  0  0
  1  2  2  0  0  0
  2  3  1  0  0  0
  2 11  1  0  0  0
  3  4  1  0  0  0
  4 12  1  0  0  0
  4  5  2  0  0  0
 12 13  1  0  0  0
 13 14  1  0  0  0
 14 15  1  0  0  0
 15 16  1  0  0  0
 16 17  2  0  0  0
 16 21  1  0  0  0
 17 18  1  0  0  0
 18 19  2  0  0  0
 19 20  1  0  0  0
 20 21  2  0  0  0
  5  6  1  0  0  0
  6  7  1  0  0  0
  6 11  2  0  0  0
  7  8  2  0  0  0
  8  9  1  0  0  0
  9 10  2  0  0  0
 10 11  1  0  0  0
M  END
> <minimizedAffinity>
-6.68293

$$$$
cs_R2_output_folder/data/smiles/9.pdb


 28 31  0  0  0  0  0  0  0  0999 V2000
   73.4256   49.8895   57.8045 C   0  0  0  0  0  0  0  0  0  0  0  0
   72.5906   49.7244   56.7302 C   0  0  0  0  0  0  0  0  0  0  0  0
   71.4803   50.5392   56.5108 C   0  0  0  0  0  0  0  0  0  0  0  0
   71.2335   51.5326   57.4125 C   0  0  0  0  0  0  0  0  0  0  0  0
   72.0631   51.7077   58.4913 C   0  0  0  0  0  0  0  0  0  0  0  0
   73.1605   50.9011   58.7065 C   0  0  0  0  0  0  0  0  0  0  0  0
   73.9903   51.0649   59.7717 F   0  0  0  0  0  0  0  0  0  0  0  0
   74.2490   47.5562   57.9912 C   0  0  0  0  0  0  0  0  0  0  0  0
   74.6155   49.0227   58.0459 C   0  0  0  0  0  0  0  0  0  0  0  0
   75.6539   49.3259   57.1688 O   0  0  0  0  0  0  0  0  0  0  0  0
   76.8234   48.8557   57.6341 N   0  0  0  0  0  0  0  0  0  0  0  0
   77.8887   48.9752   56.6562 C   0  0  0  0  0  0  0  0  0  0  0  0
   77.9118   50.4064   56.1821 C   0  0  0  0  0  0  0  0  0  0  0  0
   77.8270   51.3212   57.2186 O   0  0  0  0  0  0  0  0  0  0  0  0
   78.1208   50.7749   58.4601 C   0  0  0  0  0  0  0  0  0  0  0  0
   77.2287   49.6037   58.8068 C   0  0  0  0  0  0  0  0  0  0  0  0
   70.6410   50.2343   55.3129 C   0  0  0  0  0  0  0  0  0  0  0  0
   69.9345   48.9484   55.3859 C   0  0  0  0  0  0  0  0  0  0  0  0
   69.8465   48.3304   56.6002 N   0  0  0  0  0  0  0  0  0  0  0  0
   69.2616   47.1737   56.7651 N   0  0  0  0  0  0  0  0  0  0  0  0
   68.7030   46.5084   55.7508 C   0  0  0  0  0  0  0  0  0  0  0  0
   68.1433   45.3878   55.9402 O   0  0  0  0  0  0  0  0  0  0  0  0
   68.7410   47.0498   54.4944 C   0  0  0  0  0  0  0  0  0  0  0  0
   69.3726   48.2930   54.3308 C   0  0  0  0  0  0  0  0  0  0  0  0
   69.3422   48.8093   52.9600 C   0  0  0  0  0  0  0  0  0  0  0  0
   69.7764   47.6270   52.0766 C   0  0  0  0  0  0  0  0  0  0  0  0
   68.6113   46.6898   52.0208 C   0  0  0  0  0  0  0  0  0  0  0  0
   68.1299   46.3169   53.3761 C   0  0  0  0  0  0  0  0  0  0  0  0
  9  8  1  0  0  0
  9 10  1  0  0  0
  9  1  1  0  0  0
 10 11  1  0  0  0
 11 12  1  0  0  0
 11 16  1  0  0  0
 12 13  1  0  0  0
 13 14  1  0  0  0
 14 15  1  0  0  0
 15 16  1  0  0  0
  1  2  2  0  0  0
  1  6  1  0  0  0
  2  3  1  0  0  0
  3 17  1  0  0  0
  3  4  2  0  0  0
 17 18  1  0  0  0
 18 19  2  0  0  0
 18 24  1  0  0  0
 19 20  1  0  0  0
 20 21  1  0  0  0
 21 22  2  0  0  0
 21 23  1  0  0  0
 23 24  2  0  0  0
 23 28  1  0  0  0
 24 25  1  0  0  0
 25 26  1  0  0  0
 26 27  1  0  0  0
 27 28  1  0  0  0
  4  5  1  0  0  0
  5  6  2  0  0  0
  6  7  1  0  0  0
M  END
> <minimizedAffinity>
-7.49951

$$$$
cs_R2_output_folder/data/smiles/10.pdb


 21 23  0  0  0  0  0  0  0  0999 V2000
   70.0706   50.8484   52.9316 O   0  0  0  0  0  0  0  0  0  0  0  0
   70.4651   50.7508   54.0969 C   0  0  0  0  0  0  0  0  0  0  0  0
   70.1971   49.6158   54.8793 N   0  0  0  0  0  0  0  0  0  0  0  0
   70.5917   49.6082   56.2722 C   0  0  0  0  0  0  0  0  0  0  0  0
   70.1327   48.3075   56.9012 C   0  0  0  0  0  0  0  0  0  0  0  0
   68.6514   48.1385   56.5184 C   0  0  0  0  0  0  0  0  0  0  0  0
   68.6911   47.7067   55.1016 C   0  0  0  0  0  0  0  0  0  0  0  0
   68.0056   46.6405   54.6198 C   0  0  0  0  0  0  0  0  0  0  0  0
   68.1295   46.3246   53.2777 C   0  0  0  0  0  0  0  0  0  0  0  0
   67.4664   45.2731   52.7316 F   0  0  0  0  0  0  0  0  0  0  0  0
   68.9476   47.1053   52.4619 C   0  0  0  0  0  0  0  0  0  0  0  0
   69.0517   46.7881   51.1521 F   0  0  0  0  0  0  0  0  0  0  0  0
   69.6326   48.1840   52.9672 C   0  0  0  0  0  0  0  0  0  0  0  0
   69.5182   48.5084   54.3004 C   0  0  0  0  0  0  0  0  0  0  0  0
   71.2378   51.8365   54.7030 C   0  0  0  0  0  0  0  0  0  0  0  0
   72.5916   51.8873   54.5130 C   0  0  0  0  0  0  0  0  0  0  0  0
   73.3769   52.8877   55.0547 C   0  0  0  0  0  0  0  0  0  0  0  0
   72.7739   53.8662   55.8143 C   0  0  0  0  0  0  0  0  0  0  0  0
   73.5152   54.8749   56.3745 F   0  0  0  0  0  0  0  0  0  0  0  0
   71.4136   53.8308   56.0154 C   0  0  0  0  0  0  0  0  0  0  0  0
   70.6442   52.8184   55.4627 C   0  0  0  0  0  0  0  0  0  0  0  0
  1  2  2  0  0  0
  2 15  1  0  0  0
  2  3  1  0  0  0
 15 16  2  0  0  0
 15 21  1  0  0  0
 16 17  1  0  0  0
 17 18  2  0  0  0
 18 19  1  0  0  0
 18 20  1  0  0  0
 20 21  2  0  0  0
  3  4  1  0  0  0
  3 14  1  0  0  0
  4  5  1  0  0  0
  5  6  1  0  0  0
  6  7  1  0  0  0
  7  8  2  0  0  0
  7 14  1  0  0  0
  8  9  1  0  0  0
  9 10  1  0  0  0
  9 11  2  0  0  0
 11 12  1  0  0  0
 11 13  1  0  0  0
 13 14  2  0  0  0
M  END
> <minimizedAffinity>
-7.05279

$$$$
cs_R2_output_folder/data/smiles/11.pdb


 24 27  0  0  0  0  0  0  0  0999 V2000
   69.8544   47.1898   51.0339 O   0  0  0  0  0  0  0  0  0  0  0  0
   69.7616   48.3029   51.5945 C   0  0  0  0  0  0  0  0  0  0  0  0
   69.9964   49.5256   51.0170 N   0  0  0  0  0  0  0  0  0  0  0  0
   69.8040   50.4810   51.9232 N   0  0  0  0  0  0  0  0  0  0  0  0
   69.4511   49.9181   53.0727 C   0  0  0  0  0  0  0  0  0  0  0  0
   69.4274   48.5624   52.8506 N   0  0  0  0  0  0  0  0  0  0  0  0
   69.0822   47.5454   53.8040 C   0  0  0  0  0  0  0  0  0  0  0  0
   68.5314   46.4417   53.1986 C   0  0  0  0  0  0  0  0  0  0  0  0
   68.1771   45.4164   54.0178 C   0  0  0  0  0  0  0  0  0  0  0  0
   68.3307   45.4026   55.4212 C   0  0  0  0  0  0  0  0  0  0  0  0
   68.8849   46.5345   55.9601 C   0  0  0  0  0  0  0  0  0  0  0  0
   69.2662   47.6167   55.1725 C   0  0  0  0  0  0  0  0  0  0  0  0
   69.8041   48.6927   56.0298 C   0  0  0  0  0  0  0  0  0  0  0  0
   70.1965   49.9573   55.3907 C   0  0  0  0  0  0  0  0  0  0  0  0
   69.1677   50.5301   54.4038 C   0  0  0  0  0  0  0  0  0  0  0  0
   67.9378   44.3122   56.1203 O   0  0  0  0  0  0  0  0  0  0  0  0
   67.7455   43.0223   55.8335 C   0  0  0  0  0  0  0  0  0  0  0  0
   68.3468   41.9752   56.6768 C   0  0  0  0  0  0  0  0  0  0  0  0
   69.5326   42.3180   57.3491 C   0  0  0  0  0  0  0  0  0  0  0  0
   70.0816   41.3655   58.1702 C   0  0  0  0  0  0  0  0  0  0  0  0
   69.5265   40.1131   58.3565 C   0  0  0  0  0  0  0  0  0  0  0  0
   68.3552   39.7933   57.6840 C   0  0  0  0  0  0  0  0  0  0  0  0
   67.8052   38.5600   57.8662 F   0  0  0  0  0  0  0  0  0  0  0  0
   67.7844   40.7402   56.8503 C   0  0  0  0  0  0  0  0  0  0  0  0
  1  2  2  0  0  0
  2  3  1  0  0  0
  2  6  1  0  0  0
  3  4  1  0  0  0
  4  5  2  0  0  0
  5  6  1  0  0  0
  5 15  1  0  0  0
  6  7  1  0  0  0
  7  8  2  0  0  0
  7 12  1  0  0  0
  8  9  1  0  0  0
  9 10  2  0  0  0
 10 16  1  0  0  0
 10 11  1  0  0  0
 16 17  1  0  0  0
 17 18  1  0  0  0
 18 19  2  0  0  0
 18 24  1  0  0  0
 19 20  1  0  0  0
 20 21  2  0  0  0
 21 22  1  0  0  0
 22 23  1  0  0  0
 22 24  2  0  0  0
 11 12  2  0  0  0
 12 13  1  0  0  0
 13 14  1  0  0  0
 14 15  1  0  0  0
M  END
> <minimizedAffinity>
-9.77588

$$$$
cs_R2_output_folder/data/smiles/12.pdb


 22 25  0  0  0  0  0  0  0  0999 V2000
   69.0296   39.4659   58.0679 C   0  0  0  0  0  0  0  0  0  0  0  0
   68.1955   39.0294   57.1158 N   0  0  0  0  0  0  0  0  0  0  0  0
   67.7282   40.0618   56.4166 N   0  0  0  0  0  0  0  0  0  0  0  0
   68.2386   41.2191   56.8831 C   0  0  0  0  0  0  0  0  0  0  0  0
   68.1249   42.5567   56.5720 C   0  0  0  0  0  0  0  0  0  0  0  0
   68.7865   43.5135   57.2473 N   0  0  0  0  0  0  0  0  0  0  0  0
   69.6030   43.1965   58.2757 C   0  0  0  0  0  0  0  0  0  0  0  0
   69.7262   41.8625   58.5981 C   0  0  0  0  0  0  0  0  0  0  0  0
   69.0722   40.8358   57.9412 C   0  0  0  0  0  0  0  0  0  0  0  0
   70.3063   44.2508   58.9911 C   0  0  0  0  0  0  0  0  0  0  0  0
   70.2563   45.5635   58.7180 N   0  0  0  0  0  0  0  0  0  0  0  0
   71.0250   46.2392   59.5759 N   0  0  0  0  0  0  0  0  0  0  0  0
   71.5676   45.3449   60.4000 N   0  0  0  0  0  0  0  0  0  0  0  0
   71.1291   44.1400   60.0419 N   0  0  0  0  0  0  0  0  0  0  0  0
   69.7585   38.6481   59.0548 C   0  0  0  0  0  0  0  0  0  0  0  0
   71.1910   38.5282   58.6208 C   0  0  0  0  0  0  0  0  0  0  0  0
   72.3472   34.4190   58.1624 C   0  0  0  0  0  0  0  0  0  0  0  0
   71.5482   34.8633   59.1980 C   0  0  0  0  0  0  0  0  0  0  0  0
   71.1834   36.1874   59.3332 C   0  0  0  0  0  0  0  0  0  0  0  0
   71.6235   37.1286   58.4087 C   0  0  0  0  0  0  0  0  0  0  0  0
   72.4100   36.7075   57.3851 C   0  0  0  0  0  0  0  0  0  0  0  0
   72.7653   35.3811   57.2641 C   0  0  0  0  0  0  0  0  0  0  0  0
 17 18  2  0  0  0
 17 22  1  0  0  0
 18 19  1  0  0  0
 19 20  2  0  0  0
 20 16  1  0  0  0
 20 21  1  0  0  0
 16 15  1  0  0  0
 15  1  1  0  0  0
  1  2  2  0  0  0
  1  9  1  0  0  0
  2  3  1  0  0  0
  3  4  1  0  0  0
  4  5  1  0  0  0
  4  9  2  0  0  0
  5  6  2  0  0  0
  6  7  1  0  0  0
  7 10  1  0  0  0
  7  8  2  0  0  0
 10 11  2  0  0  0
 10 14  1  0  0  0
 11 12  1  0  0  0
 12 13  2  0  0  0
 13 14  1  0  0  0
  8  9  1  0  0  0
 21 22  2  0  0  0
M  END
> <minimizedAffinity>
-8.33090

$$$$
cs_R2_output_folder/data/smiles/13.pdb


 28 30  0  0  0  0  0  0  0  0999 V2000
   73.3500   34.4195   55.6749 C   0  0  0  0  0  0  0  0  0  0  0  0
   73.8813   34.1310   57.0111 C   0  0  0  0  0  0  0  0  0  0  0  0
   73.4926   35.5220   56.6800 C   0  0  0  0  0  0  0  0  0  0  0  0
   74.0715   34.9295   53.3049 C   0  0  0  0  0  0  0  0  0  0  0  0
   72.9682   35.4991   53.1356 O   0  0  0  0  0  0  0  0  0  0  0  0
   74.3181   34.3658   54.5681 N   0  0  0  0  0  0  0  0  0  0  0  0
   76.9778   34.8272   50.1517 C   0  0  0  0  0  0  0  0  0  0  0  0
   75.7525   34.2141   50.0039 C   0  0  0  0  0  0  0  0  0  0  0  0
   74.7903   34.2323   51.0117 C   0  0  0  0  0  0  0  0  0  0  0  0
   75.0408   34.8736   52.2017 C   0  0  0  0  0  0  0  0  0  0  0  0
   76.2630   35.4802   52.3393 C   0  0  0  0  0  0  0  0  0  0  0  0
   77.2330   35.4665   51.3346 C   0  0  0  0  0  0  0  0  0  0  0  0
   78.6055   36.0783   48.8611 C   0  0  0  0  0  0  0  0  0  0  0  0
   77.9124   34.7343   49.0065 C   0  0  0  0  0  0  0  0  0  0  0  0
   77.1339   34.5125   47.7001 C   0  0  0  0  0  0  0  0  0  0  0  0
   78.9305   33.6599   49.1090 C   0  0  0  0  0  0  0  0  0  0  0  0
   72.2111   35.9404   57.2725 N   0  0  0  0  0  0  0  0  0  0  0  0
   72.1158   37.0476   58.1394 C   0  0  0  0  0  0  0  0  0  0  0  0
   73.2011   37.6601   58.3754 O   0  0  0  0  0  0  0  0  0  0  0  0
   70.8727   37.5033   58.7536 C   0  0  0  0  0  0  0  0  0  0  0  0
   70.5031   36.9726   59.9753 C   0  0  0  0  0  0  0  0  0  0  0  0
   69.3307   37.3757   60.5931 C   0  0  0  0  0  0  0  0  0  0  0  0
   68.5248   38.3133   59.9829 C   0  0  0  0  0  0  0  0  0  0  0  0
   68.8619   38.8737   58.7505 C   0  0  0  0  0  0  0  0  0  0  0  0
   70.0447   38.4321   58.1833 C   0  0  0  0  0  0  0  0  0  0  0  0
   68.0260   39.8312   58.1359 N   0  0  0  0  0  0  0  0  0  0  0  0
   67.4369   40.6606   58.8340 O   0  0  0  0  0  0  0  0  0  0  0  0
   67.8650   39.8484   56.7839 O   0  0  0  0  0  0  0  0  0  0  0  0
 13 14  1  0  0  0
 14 15  1  0  0  0
 14 16  1  0  0  0
 14  7  1  0  0  0
  7  8  2  0  0  0
  7 12  1  0  0  0
  8  9  1  0  0  0
  9 10  2  0  0  0
 10  4  1  0  0  0
 10 11  1  0  0  0
  4  5  2  0  0  0
  4  6  1  0  0  0
  1  6  1  0  0  0
  1  2  1  0  0  0
  1  3  1  0  0  0
  2  3  1  0  0  0
  3 17  1  0  0  0
 17 18  1  0  0  0
 18 19  2  0  0  0
 18 20  1  0  0  0
 20 21  2  0  0  0
 20 25  1  0  0  0
 21 22  1  0  0  0
 22 23  2  0  0  0
 23 24  1  0  0  0
 24 26  1  0  0  0
 24 25  2  0  0  0
 26 27  2  0  0  0
 26 28  1  0  0  0
 11 12  2  0  0  0
M  CHG 1  26   1
M  CHG 1  28  -1
M  END
> <minimizedAffinity>
-7.30003

$$$$
cs_R2_output_folder/data/smiles/14.pdb


 21 23  0  0  0  0  0  0  0  0999 V2000
   69.3367   47.0299   56.9733 C   0  0  0  0  0  0  0  0  0  0  0  0
   69.6457   46.4018   58.1010 N   0  0  0  0  0  0  0  0  0  0  0  0
   69.6355   45.1086   57.8442 N   0  0  0  0  0  0  0  0  0  0  0  0
   69.3207   44.8845   56.5558 C   0  0  0  0  0  0  0  0  0  0  0  0
   69.1218   46.1154   55.9646 C   0  0  0  0  0  0  0  0  0  0  0  0
   69.0509   51.3017   56.5918 C   0  0  0  0  0  0  0  0  0  0  0  0
   70.2048   50.6129   56.2791 C   0  0  0  0  0  0  0  0  0  0  0  0
   70.3024   49.2454   56.3990 C   0  0  0  0  0  0  0  0  0  0  0  0
   69.2447   48.4836   56.8419 C   0  0  0  0  0  0  0  0  0  0  0  0
   68.0841   49.1581   57.1583 C   0  0  0  0  0  0  0  0  0  0  0  0
   66.9937   48.4247   57.6085 O   0  0  0  0  0  0  0  0  0  0  0  0
   67.9987   50.5269   57.0336 C   0  0  0  0  0  0  0  0  0  0  0  0
   66.8462   51.2035   57.3480 F   0  0  0  0  0  0  0  0  0  0  0  0
   69.5794   53.1991   55.2630 O   0  0  0  0  0  0  0  0  0  0  0  0
   68.9503   52.7784   56.4571 C   0  0  0  0  0  0  0  0  0  0  0  0
   68.7635   46.3239   54.5813 C   0  0  0  0  0  0  0  0  0  0  0  0
   69.2388   47.3929   53.8530 C   0  0  0  0  0  0  0  0  0  0  0  0
   68.9103   47.6089   52.5314 C   0  0  0  0  0  0  0  0  0  0  0  0
   68.0688   46.7205   51.8994 C   0  0  0  0  0  0  0  0  0  0  0  0
   67.5790   45.6388   52.6106 C   0  0  0  0  0  0  0  0  0  0  0  0
   67.9119   45.4366   53.9186 C   0  0  0  0  0  0  0  0  0  0  0  0
 14 15  1  0  0  0
 15  6  1  0  0  0
  6  7  2  0  0  0
  6 12  1  0  0  0
  7  8  1  0  0  0
  8  9  2  0  0  0
  9  1  1  0  0  0
  9 10  1  0  0  0
  1  2  2  0  0  0
  1  5  1  0  0  0
  2  3  1  0  0  0
  3  4  1  0  0  0
  4  5  2  0  0  0
  5 16  1  0  0  0
 16 17  2  0  0  0
 16 21  1  0  0  0
 17 18  1  0  0  0
 18 19  2  0  0  0
 19 20  1  0  0  0
 20 21  2  0  0  0
 10 11  1  0  0  0
 10 12  2  0  0  0
 12 13  1  0  0  0
M  END
> <minimizedAffinity>
-7.34957

$$$$
cs_R2_output_folder/data/smiles/15.pdb


 21 22  0  0  0  0  0  0  0  0999 V2000
   70.4802   49.5391   55.1742 N   0  0  0  0  0  0  0  0  0  0  0  0
   68.9863   49.2935   57.0827 C   0  0  0  0  0  0  0  0  0  0  0  0
   67.9172   49.7804   57.8231 C   0  0  0  0  0  0  0  0  0  0  0  0
   67.3096   50.9538   57.4608 C   0  0  0  0  0  0  0  0  0  0  0  0
   67.7087   51.6967   56.3757 C   0  0  0  0  0  0  0  0  0  0  0  0
   68.7649   51.2153   55.6427 C   0  0  0  0  0  0  0  0  0  0  0  0
   69.4099   50.0178   55.9851 C   0  0  0  0  0  0  0  0  0  0  0  0
   70.8814   48.0167   57.7991 O   0  0  0  0  0  0  0  0  0  0  0  0
   69.6735   48.0603   57.4715 C   0  0  0  0  0  0  0  0  0  0  0  0
   69.0029   46.8071   57.5028 N   0  0  0  0  0  0  0  0  0  0  0  0
   69.7063   45.6814   57.8778 O   0  0  0  0  0  0  0  0  0  0  0  0
   70.3317   49.3114   53.4690 S   0  0  0  0  0  0  0  0  0  0  0  0
   69.6903   50.5088   52.8215 O   0  0  0  0  0  0  0  0  0  0  0  0
   71.6571   49.0880   52.8428 O   0  0  0  0  0  0  0  0  0  0  0  0
   69.3087   47.9149   53.1196 C   0  0  0  0  0  0  0  0  0  0  0  0
   68.7607   47.1493   54.1259 C   0  0  0  0  0  0  0  0  0  0  0  0
   67.9619   46.0593   53.8515 C   0  0  0  0  0  0  0  0  0  0  0  0
   67.6805   45.6944   52.5431 C   0  0  0  0  0  0  0  0  0  0  0  0
   66.9053   44.6375   52.2068 F   0  0  0  0  0  0  0  0  0  0  0  0
   68.2159   46.4434   51.5166 C   0  0  0  0  0  0  0  0  0  0  0  0
   69.0215   47.5429   51.8195 C   0  0  0  0  0  0  0  0  0  0  0  0
  8  9  2  0  0  0
  9 10  1  0  0  0
  9  2  1  0  0  0
 10 11  1  0  0  0
  2  3  2  0  0  0
  2  7  1  0  0  0
  3  4  1  0  0  0
  4  5  2  0  0  0
  5  6  1  0  0  0
  6  7  2  0  0  0
  7  1  1  0  0  0
  1 12  1  0  0  0
 12 13  2  0  0  0
 12 14  2  0  0  0
 12 15  1  0  0  0
 15 16  2  0  0  0
 15 21  1  0  0  0
 16 17  1  0  0  0
 17 18  2  0  0  0
 18 19  1  0  0  0
 18 20  1  0  0  0
 20 21  2  0  0  0
M  END
> <minimizedAffinity>
-8.16018

$$$$
cs_R2_output_folder/data/smiles/16.pdb


 27 28  0  0  0  0  0  0  0  0999 V2000
   71.7450   44.2785   58.5070 C   0  0  0  0  0  0  0  0  0  0  0  0
   72.7049   45.0555   58.9504 C   0  0  0  0  0  0  0  0  0  0  0  0
   72.6312   46.4643   58.9528 C   0  0  0  0  0  0  0  0  0  0  0  0
   71.4736   47.0557   58.4664 C   0  0  0  0  0  0  0  0  0  0  0  0
   70.4154   46.3242   57.9935 C   0  0  0  0  0  0  0  0  0  0  0  0
   70.5768   44.9465   58.0187 C   0  0  0  0  0  0  0  0  0  0  0  0
   71.5130   41.6126   58.4726 C   0  0  0  0  0  0  0  0  0  0  0  0
   71.6101   42.8563   58.4879 C   0  0  0  0  0  0  0  0  0  0  0  0
   71.3139   39.0095   58.4904 C   0  0  0  0  0  0  0  0  0  0  0  0
   71.4037   40.2125   58.4796 C   0  0  0  0  0  0  0  0  0  0  0  0
   72.2745   36.9815   57.8450 C   0  0  0  0  0  0  0  0  0  0  0  0
   71.2317   37.5882   58.5066 C   0  0  0  0  0  0  0  0  0  0  0  0
   73.2737   35.2141   56.6802 O   0  0  0  0  0  0  0  0  0  0  0  0
   72.5699   35.6409   57.6125 C   0  0  0  0  0  0  0  0  0  0  0  0
   72.0090   34.6587   58.4925 N   0  0  0  0  0  0  0  0  0  0  0  0
   72.2204   33.3273   58.3657 O   0  0  0  0  0  0  0  0  0  0  0  0
   69.1810   46.7852   57.4994 N   0  0  0  0  0  0  0  0  0  0  0  0
   69.0982   47.9739   56.2175 S   0  0  0  0  0  0  0  0  0  0  0  0
   70.4273   48.7285   56.0881 O   0  0  0  0  0  0  0  0  0  0  0  0
   68.0261   48.9581   56.5030 O   0  0  0  0  0  0  0  0  0  0  0  0
   68.7552   47.2366   54.6617 C   0  0  0  0  0  0  0  0  0  0  0  0
   68.1499   45.9612   54.5443 C   0  0  0  0  0  0  0  0  0  0  0  0
   67.8903   45.4622   53.2951 C   0  0  0  0  0  0  0  0  0  0  0  0
   68.2002   46.1304   52.1278 C   0  0  0  0  0  0  0  0  0  0  0  0
   68.7751   47.3304   52.2635 C   0  0  0  0  0  0  0  0  0  0  0  0
   69.0510   47.8924   53.4981 C   0  0  0  0  0  0  0  0  0  0  0  0
   69.8215   49.4898   53.5859 S   0  0  0  0  0  0  0  0  0  0  0  0
 13 14  2  0  0  0
 14 11  1  0  0  0
 14 15  1  0  0  0
 11 12  2  0  0  0
 12  9  1  0  0  0
  9 10  3  0  0  0
 10  7  1  0  0  0
  7  8  3  0  0  0
  8  1  1  0  0  0
  1  2  2  0  0  0
  1  6  1  0  0  0
  2  3  1  0  0  0
  3  4  2  0  0  0
  4  5  1  0  0  0
  5 17  1  0  0  0
  5  6  2  0  0  0
 17 18  1  0  0  0
 18 19  2  0  0  0
 18 20  2  0  0  0
 18 21  1  0  0  0
 21 22  2  0  0  0
 21 26  1  0  0  0
 22 23  1  0  0  0
 23 24  2  0  0  0
 24 25  1  0  0  0
 25 26  2  0  0  0
 26 27  1  0  0  0
 15 16  1  0  0  0
M  END
> <minimizedAffinity>
-8.12999

$$$$
cs_R2_output_folder/data/smiles/17.pdb


 23 24  0  0  0  0  0  0  0  0999 V2000
   69.6046   47.8915   54.7986 C   0  0  0  0  0  0  0  0  0  0  0  0
   69.1848   47.6661   52.3254 C   0  0  0  0  0  0  0  0  0  0  0  0
   68.4699   47.0339   51.3520 N   0  0  0  0  0  0  0  0  0  0  0  0
   67.5210   46.1362   51.5832 C   0  0  0  0  0  0  0  0  0  0  0  0
   66.8813   45.5739   50.6417 O   0  0  0  0  0  0  0  0  0  0  0  0
   67.2227   45.8085   52.8460 N   0  0  0  0  0  0  0  0  0  0  0  0
   67.8751   46.3799   53.8464 C   0  0  0  0  0  0  0  0  0  0  0  0
   67.5978   46.0745   55.0417 O   0  0  0  0  0  0  0  0  0  0  0  0
   68.8743   47.3239   53.6159 C   0  0  0  0  0  0  0  0  0  0  0  0
   69.8359   49.5138   51.0678 O   0  0  0  0  0  0  0  0  0  0  0  0
   70.1684   48.6403   51.9355 C   0  0  0  0  0  0  0  0  0  0  0  0
   71.4568   48.7524   52.3948 O   0  0  0  0  0  0  0  0  0  0  0  0
   69.4051   49.3822   54.8828 C   0  0  0  0  0  0  0  0  0  0  0  0
   68.5379   49.7739   56.0120 C   0  0  0  0  0  0  0  0  0  0  0  0
   67.9777   48.7263   56.7629 C   0  0  0  0  0  0  0  0  0  0  0  0
   67.1181   48.9728   57.7991 C   0  0  0  0  0  0  0  0  0  0  0  0
   66.8163   50.2838   58.0839 C   0  0  0  0  0  0  0  0  0  0  0  0
   67.3677   51.3017   57.3462 C   0  0  0  0  0  0  0  0  0  0  0  0
   68.2553   51.0801   56.2765 C   0  0  0  0  0  0  0  0  0  0  0  0
   68.8624   52.2044   55.5564 C   0  0  0  0  0  0  0  0  0  0  0  0
   68.0770   52.4156   54.3968 F   0  0  0  0  0  0  0  0  0  0  0  0
   70.1182   52.0416   55.0802 F   0  0  0  0  0  0  0  0  0  0  0  0
   68.7177   53.3873   56.2819 F   0  0  0  0  0  0  0  0  0  0  0  0
 10 11  2  0  0  0
 11 12  1  0  0  0
 11  2  1  0  0  0
  2  3  1  0  0  0
  2  9  2  0  0  0
  3  4  1  0  0  0
  4  5  2  0  0  0
  4  6  1  0  0  0
  6  7  1  0  0  0
  7  8  2  0  0  0
  7  9  1  0  0  0
  9  1  1  0  0  0
  1 13  1  0  0  0
 13 14  1  0  0  0
 14 15  2  0  0  0
 14 19  1  0  0  0
 15 16  1  0  0  0
 16 17  2  0  0  0
 17 18  1  0  0  0
 18 19  2  0  0  0
 19 20  1  0  0  0
 20 21  1  0  0  0
 20 22  1  0  0  0
 20 23  1  0  0  0
M  END
> <minimizedAffinity>
-9.39167

$$$$
cs_R2_output_folder/data/smiles/18.pdb


 26 29  0  0  0  0  0  0  0  0999 V2000
   69.1963   47.8313   56.1198 N   0  0  0  0  0  0  0  0  0  0  0  0
   69.6510   48.8177   55.3480 C   0  0  0  0  0  0  0  0  0  0  0  0
   69.4937   48.6888   53.9736 C   0  0  0  0  0  0  0  0  0  0  0  0
   68.8972   47.6077   53.3569 C   0  0  0  0  0  0  0  0  0  0  0  0
   68.7389   47.4761   52.0074 C   0  0  0  0  0  0  0  0  0  0  0  0
   68.1348   46.3751   51.4205 C   0  0  0  0  0  0  0  0  0  0  0  0
   67.6794   45.3805   52.2585 C   0  0  0  0  0  0  0  0  0  0  0  0
   67.8266   45.4903   53.6251 C   0  0  0  0  0  0  0  0  0  0  0  0
   68.4397   46.6104   54.1830 C   0  0  0  0  0  0  0  0  0  0  0  0
   68.5989   46.7441   55.5388 C   0  0  0  0  0  0  0  0  0  0  0  0
   68.1544   45.7854   56.2467 O   0  0  0  0  0  0  0  0  0  0  0  0
   70.0581   49.8890   53.3685 C   0  0  0  0  0  0  0  0  0  0  0  0
   70.1149   50.1669   52.1370 O   0  0  0  0  0  0  0  0  0  0  0  0
   70.5481   50.7146   54.4627 C   0  0  0  0  0  0  0  0  0  0  0  0
   71.1715   51.9571   54.4778 C   0  0  0  0  0  0  0  0  0  0  0  0
   71.5467   52.5528   55.6490 C   0  0  0  0  0  0  0  0  0  0  0  0
   71.3030   51.9087   56.8584 C   0  0  0  0  0  0  0  0  0  0  0  0
   70.6858   50.6745   56.8645 C   0  0  0  0  0  0  0  0  0  0  0  0
   70.3083   50.0769   55.6784 C   0  0  0  0  0  0  0  0  0  0  0  0
   69.2993   47.7775   57.5533 C   0  0  0  0  0  0  0  0  0  0  0  0
   70.3829   46.8273   57.9801 C   0  0  0  0  0  0  0  0  0  0  0  0
   69.8466   45.7125   58.6569 O   0  0  0  0  0  0  0  0  0  0  0  0
   71.5067   47.4288   58.7665 C   0  0  0  0  0  0  0  0  0  0  0  0
   72.9530   47.9745   61.7732 N   0  0  0  0  0  0  0  0  0  0  0  0
   72.1245   47.4510   61.0011 N   0  0  0  0  0  0  0  0  0  0  0  0
   71.5010   46.8646   60.1208 N   0  0  0  0  0  0  0  0  0  0  0  0
 24 25  2  0  0  0
 25 26  2  0  0  0
 26 23  1  0  0  0
 23 21  1  0  0  0
 21 22  1  0  0  0
 21 20  1  0  0  0
 20  1  1  0  0  0
  1  2  1  0  0  0
  1 10  1  0  0  0
  2  3  2  0  0  0
  2 19  1  0  0  0
  3  4  1  0  0  0
  3 12  1  0  0  0
  4  5  1  0  0  0
  4  9  2  0  0  0
  5  6  2  0  0  0
  6  7  1  0  0  0
  7  8  2  0  0  0
  8  9  1  0  0  0
  9 10  1  0  0  0
 10 11  2  0  0  0
 12 13  2  0  0  0
 12 14  1  0  0  0
 14 15  1  0  0  0
 14 19  2  0  0  0
 15 16  2  0  0  0
 16 17  1  0  0  0
 17 18  2  0  0  0
 18 19  1  0  0  0
M  CHG 1  24  -1
M  CHG 1  25   1
M  END
> <minimizedAffinity>
-9.20445

$$$$
cs_R2_output_folder/data/smiles/19.pdb


 25 27  0  0  0  0  0  0  0  0999 V2000
   74.7673   35.5120   53.7227 C   0  0  0  0  0  0  0  0  0  0  0  0
   73.4706   35.6816   53.2938 C   0  0  0  0  0  0  0  0  0  0  0  0
   72.6663   35.5076   54.3517 N   0  0  0  0  0  0  0  0  0  0  0  0
   73.3575   35.2334   55.4645 N   0  0  0  0  0  0  0  0  0  0  0  0
   74.6325   35.2351   55.0930 C   0  0  0  0  0  0  0  0  0  0  0  0
   75.8195   34.9942   55.9533 C   0  0  0  0  0  0  0  0  0  0  0  0
   72.8110   34.9855   56.7716 C   0  0  0  0  0  0  0  0  0  0  0  0
   72.7691   33.7406   57.3385 C   0  0  0  0  0  0  0  0  0  0  0  0
   72.2607   33.5255   58.6095 C   0  0  0  0  0  0  0  0  0  0  0  0
   71.7700   34.5764   59.3605 C   0  0  0  0  0  0  0  0  0  0  0  0
   71.1502   34.3084   60.9778 Cl  0  0  0  0  0  0  0  0  0  0  0  0
   71.8090   35.8322   58.7934 C   0  0  0  0  0  0  0  0  0  0  0  0
   72.3158   36.0367   57.5285 C   0  0  0  0  0  0  0  0  0  0  0  0
   76.6480   34.4757   52.3444 N   0  0  0  0  0  0  0  0  0  0  0  0
   76.0391   35.5718   53.0117 C   0  0  0  0  0  0  0  0  0  0  0  0
   76.6327   36.6790   53.0027 O   0  0  0  0  0  0  0  0  0  0  0  0
   77.9508   34.5690   51.7018 C   0  0  0  0  0  0  0  0  0  0  0  0
   76.4017   33.9694   48.2669 C   0  0  0  0  0  0  0  0  0  0  0  0
   77.0507   34.9244   47.5352 C   0  0  0  0  0  0  0  0  0  0  0  0
   77.9734   35.7071   48.1244 N   0  0  0  0  0  0  0  0  0  0  0  0
   78.2756   35.5693   49.4474 C   0  0  0  0  0  0  0  0  0  0  0  0
   77.6365   34.6070   50.2302 C   0  0  0  0  0  0  0  0  0  0  0  0
   76.7034   33.8152   49.6169 C   0  0  0  0  0  0  0  0  0  0  0  0
   74.1380   33.0682   48.5728 C   0  0  0  0  0  0  0  0  0  0  0  0
   75.3314   33.1624   47.6036 C   0  0  0  0  0  0  0  0  0  0  0  0
 24 25  1  0  0  0
 25 18  1  0  0  0
 18 19  2  0  0  0
 18 23  1  0  0  0
 19 20  1  0  0  0
 20 21  2  0  0  0
 21 22  1  0  0  0
 22 17  1  0  0  0
 22 23  2  0  0  0
 17 14  1  0  0  0
 14 15  1  0  0  0
 15 16  2  0  0  0
 15  1  1  0  0  0
  1  2  1  0  0  0
  1  5  2  0  0  0
  2  3  2  0  0  0
  3  4  1  0  0  0
  4  7  1  0  0  0
  4  5  1  0  0  0
  7  8  2  0  0  0
  7 13  1  0  0  0
  8  9  1  0  0  0
  9 10  2  0  0  0
 10 11  1  0  0  0
 10 12  1  0  0  0
 12 13  2  0  0  0
  5  6  1  0  0  0
M  END
> <minimizedAffinity>
-7.64446

$$$$
cs_R2_output_folder/data/smiles/20.pdb


 23 25  0  0  0  0  0  0  0  0999 V2000
   69.3872   45.1540   56.6937 N   0  0  0  0  0  0  0  0  0  0  0  0
   69.9548   44.6686   57.8921 C   0  0  0  0  0  0  0  0  0  0  0  0
   70.0511   45.4565   58.8867 O   0  0  0  0  0  0  0  0  0  0  0  0
   70.4338   43.2957   58.0221 C   0  0  0  0  0  0  0  0  0  0  0  0
   71.7197   42.8615   58.2331 C   0  0  0  0  0  0  0  0  0  0  0  0
   71.7069   41.5036   58.2789 N   0  0  0  0  0  0  0  0  0  0  0  0
   70.4585   41.0588   58.1046 N   0  0  0  0  0  0  0  0  0  0  0  0
   69.9606   39.8036   58.0725 C   0  0  0  0  0  0  0  0  0  0  0  0
   70.9383   38.3745   58.2672 Cl  0  0  0  0  0  0  0  0  0  0  0  0
   68.6068   39.6458   57.8712 C   0  0  0  0  0  0  0  0  0  0  0  0
   67.7623   40.7380   57.7054 C   0  0  0  0  0  0  0  0  0  0  0  0
   68.2885   42.0073   57.7408 C   0  0  0  0  0  0  0  0  0  0  0  0
   69.6620   42.1328   57.9452 C   0  0  0  0  0  0  0  0  0  0  0  0
   68.9051   46.5083   56.4875 C   0  0  0  0  0  0  0  0  0  0  0  0
   69.1682   47.8670   52.9591 C   0  0  0  0  0  0  0  0  0  0  0  0
   68.4512   46.8746   52.3088 C   0  0  0  0  0  0  0  0  0  0  0  0
   67.8905   45.7977   52.9449 C   0  0  0  0  0  0  0  0  0  0  0  0
   68.0567   45.7076   54.3271 C   0  0  0  0  0  0  0  0  0  0  0  0
   68.7600   46.6710   55.0146 C   0  0  0  0  0  0  0  0  0  0  0  0
   69.3023   47.7272   54.3406 C   0  0  0  0  0  0  0  0  0  0  0  0
   70.4992   48.7707   51.0430 N   0  0  0  0  0  0  0  0  0  0  0  0
   69.7366   48.9698   52.2105 C   0  0  0  0  0  0  0  0  0  0  0  0
   69.5437   50.1434   52.6190 O   0  0  0  0  0  0  0  0  0  0  0  0
 21 22  1  0  0  0
 22 23  2  0  0  0
 22 15  1  0  0  0
 15 16  2  0  0  0
 15 20  1  0  0  0
 16 17  1  0  0  0
 17 18  2  0  0  0
 18 19  1  0  0  0
 19 14  1  0  0  0
 19 20  2  0  0  0
 14  1  1  0  0  0
  1  2  1  0  0  0
  2  3  2  0  0  0
  2  4  1  0  0  0
  4  5  1  0  0  0
  4 13  2  0  0  0
  5  6  2  0  0  0
  6  7  1  0  0  0
  7  8  1  0  0  0
  7 13  1  0  0  0
  8  9  1  0  0  0
  8 10  2  0  0  0
 10 11  1  0  0  0
 11 12  2  0  0  0
 12 13  1  0  0  0
M  END
> <minimizedAffinity>
-8.06426

$$$$
cs_R2_output_folder/data/smiles/21.pdb


 22 23  0  0  0  0  0  0  0  0999 V2000
   67.9207   43.9751   55.3573 N   0  0  0  0  0  0  0  0  0  0  0  0
   68.2281   45.3389   55.1174 C   0  0  0  0  0  0  0  0  0  0  0  0
   68.4392   46.0390   56.1686 O   0  0  0  0  0  0  0  0  0  0  0  0
   68.3120   45.9465   53.7981 C   0  0  0  0  0  0  0  0  0  0  0  0
   67.5577   45.5117   52.7378 C   0  0  0  0  0  0  0  0  0  0  0  0
   67.6393   46.0923   51.4810 C   0  0  0  0  0  0  0  0  0  0  0  0
   68.5036   47.1458   51.2728 C   0  0  0  0  0  0  0  0  0  0  0  0
   69.2655   47.5943   52.3212 C   0  0  0  0  0  0  0  0  0  0  0  0
   69.1731   46.9982   53.5855 C   0  0  0  0  0  0  0  0  0  0  0  0
   70.1585   48.6785   52.0941 N   0  0  0  0  0  0  0  0  0  0  0  0
   71.1240   48.9087   52.8541 O   0  0  0  0  0  0  0  0  0  0  0  0
   69.9877   49.5140   51.0236 O   0  0  0  0  0  0  0  0  0  0  0  0
   67.8364   42.0909   56.9745 C   0  0  0  0  0  0  0  0  0  0  0  0
   67.8730   41.2847   55.9993 O   0  0  0  0  0  0  0  0  0  0  0  0
   67.8592   43.4643   56.6724 N   0  0  0  0  0  0  0  0  0  0  0  0
   70.2175   41.2780   58.2945 C   0  0  0  0  0  0  0  0  0  0  0  0
   68.9180   41.0991   58.9577 C   0  0  0  0  0  0  0  0  0  0  0  0
   68.8852   40.5358   60.2251 C   0  0  0  0  0  0  0  0  0  0  0  0
   67.6573   40.3771   60.8300 C   0  0  0  0  0  0  0  0  0  0  0  0
   66.4854   40.7695   60.1931 C   0  0  0  0  0  0  0  0  0  0  0  0
   66.5396   41.3271   58.9353 C   0  0  0  0  0  0  0  0  0  0  0  0
   67.7743   41.4982   58.3002 C   0  0  0  0  0  0  0  0  0  0  0  0
 16 17  1  0  0  0
 17 18  2  0  0  0
 17 22  1  0  0  0
 18 19  1  0  0  0
 19 20  2  0  0  0
 20 21  1  0  0  0
 21 22  2  0  0  0
 22 13  1  0  0  0
 13 14  2  0  0  0
 13 15  1  0  0  0
 15  1  1  0  0  0
  1  2  1  0  0  0
  2  3  2  0  0  0
  2  4  1  0  0  0
  4  5  2  0  0  0
  4  9  1  0  0  0
  5  6  1  0  0  0
  6  7  2  0  0  0
  7  8  1  0  0  0
  8 10  1  0  0  0
  8  9  2  0  0  0
 10 11  2  0  0  0
 10 12  1  0  0  0
M  CHG 1  10   1
M  CHG 1  12  -1
M  END
> <minimizedAffinity>
-8.17082

$$$$
cs_R2_output_folder/data/smiles/22.pdb


 26 28  0  0  0  0  0  0  0  0999 V2000
   69.5328   40.2525   57.9289 N   0  0  0  0  0  0  0  0  0  0  0  0
   68.4300   40.4021   57.2094 N   0  0  0  0  0  0  0  0  0  0  0  0
   68.2669   41.6886   56.8457 C   0  0  0  0  0  0  0  0  0  0  0  0
   69.3365   42.4087   57.3656 C   0  0  0  0  0  0  0  0  0  0  0  0
   70.1058   41.4862   58.0337 C   0  0  0  0  0  0  0  0  0  0  0  0
   71.3528   41.7599   58.7569 C   0  0  0  0  0  0  0  0  0  0  0  0
   71.6528   35.4942   60.1031 C   0  0  0  0  0  0  0  0  0  0  0  0
   71.0965   36.7473   59.5278 C   0  0  0  0  0  0  0  0  0  0  0  0
   71.7498   37.3432   58.4712 C   0  0  0  0  0  0  0  0  0  0  0  0
   71.2052   38.5054   57.9627 C   0  0  0  0  0  0  0  0  0  0  0  0
   70.0493   39.0454   58.4977 C   0  0  0  0  0  0  0  0  0  0  0  0
   69.3970   38.4501   59.5549 C   0  0  0  0  0  0  0  0  0  0  0  0
   69.9330   37.2907   60.0678 C   0  0  0  0  0  0  0  0  0  0  0  0
   69.5753   43.8400   57.2210 C   0  0  0  0  0  0  0  0  0  0  0  0
   70.6034   44.2997   57.7686 O   0  0  0  0  0  0  0  0  0  0  0  0
   68.7346   44.7221   56.5147 N   0  0  0  0  0  0  0  0  0  0  0  0
   68.9161   46.1341   56.3348 C   0  0  0  0  0  0  0  0  0  0  0  0
   68.8306   46.4561   54.8974 C   0  0  0  0  0  0  0  0  0  0  0  0
   68.1410   45.6411   54.0480 C   0  0  0  0  0  0  0  0  0  0  0  0
   68.0278   45.9126   52.6955 C   0  0  0  0  0  0  0  0  0  0  0  0
   68.6346   47.0463   52.1919 C   0  0  0  0  0  0  0  0  0  0  0  0
   69.3370   47.8831   53.0351 C   0  0  0  0  0  0  0  0  0  0  0  0
   69.4312   47.5850   54.3777 C   0  0  0  0  0  0  0  0  0  0  0  0
   69.9659   49.0739   52.4599 C   0  0  0  0  0  0  0  0  0  0  0  0
   70.1405   49.1066   51.0433 N   0  0  0  0  0  0  0  0  0  0  0  0
   70.3344   50.0230   53.1698 O   0  0  0  0  0  0  0  0  0  0  0  0
  7  8  1  0  0  0
  8  9  2  0  0  0
  8 13  1  0  0  0
  9 10  1  0  0  0
 10 11  2  0  0  0
 11  1  1  0  0  0
 11 12  1  0  0  0
  1  2  1  0  0  0
  1  5  1  0  0  0
  2  3  2  0  0  0
  3  4  1  0  0  0
  4 14  1  0  0  0
  4  5  2  0  0  0
 14 15  2  0  0  0
 14 16  1  0  0  0
 16 17  1  0  0  0
 17 18  1  0  0  0
 18 19  2  0  0  0
 18 23  1  0  0  0
 19 20  1  0  0  0
 20 21  2  0  0  0
 21 22  1  0  0  0
 22 24  1  0  0  0
 22 23  2  0  0  0
 24 25  1  0  0  0
 24 26  2  0  0  0
  5  6  1  0  0  0
 12 13  2  0  0  0
M  END
> <minimizedAffinity>
-8.64144

$$$$
cs_R2_output_folder/data/smiles/23.pdb


 28 31  0  0  0  0  0  0  0  0999 V2000
   70.7101   45.6948   58.3659 C   0  0  0  0  0  0  0  0  0  0  0  0
   69.8290   46.3584   57.5470 C   0  0  0  0  0  0  0  0  0  0  0  0
   69.9842   47.6623   57.2352 C   0  0  0  0  0  0  0  0  0  0  0  0
   71.0862   48.3379   57.7767 C   0  0  0  0  0  0  0  0  0  0  0  0
   71.9955   47.7243   58.5978 C   0  0  0  0  0  0  0  0  0  0  0  0
   71.7879   46.3755   58.8884 C   0  0  0  0  0  0  0  0  0  0  0  0
   72.6853   45.7734   59.6991 F   0  0  0  0  0  0  0  0  0  0  0  0
   74.8543   41.4199   59.4324 C   0  0  0  0  0  0  0  0  0  0  0  0
   73.5870   42.2375   59.2170 C   0  0  0  0  0  0  0  0  0  0  0  0
   73.7377   43.0419   57.9902 C   0  0  0  0  0  0  0  0  0  0  0  0
   72.4863   43.4348   57.2905 C   0  0  0  0  0  0  0  0  0  0  0  0
   71.3877   43.2656   58.2203 N   0  0  0  0  0  0  0  0  0  0  0  0
   70.5702   44.2872   58.7183 C   0  0  0  0  0  0  0  0  0  0  0  0
   69.6456   44.0070   59.5234 O   0  0  0  0  0  0  0  0  0  0  0  0
   71.1588   41.9018   58.6356 C   0  0  0  0  0  0  0  0  0  0  0  0
   72.3715   41.3905   59.3198 C   0  0  0  0  0  0  0  0  0  0  0  0
   69.1107   48.4987   56.3797 C   0  0  0  0  0  0  0  0  0  0  0  0
   69.5022   48.4421   54.9534 C   0  0  0  0  0  0  0  0  0  0  0  0
   70.4505   49.3108   54.4806 N   0  0  0  0  0  0  0  0  0  0  0  0
   70.8177   49.3453   53.2168 N   0  0  0  0  0  0  0  0  0  0  0  0
   70.2978   48.5350   52.2798 C   0  0  0  0  0  0  0  0  0  0  0  0
   70.6873   48.6114   51.0736 O   0  0  0  0  0  0  0  0  0  0  0  0
   69.3392   47.6343   52.6771 C   0  0  0  0  0  0  0  0  0  0  0  0
   68.8110   46.7924   51.7242 C   0  0  0  0  0  0  0  0  0  0  0  0
   67.8637   45.8901   52.1501 C   0  0  0  0  0  0  0  0  0  0  0  0
   67.4615   45.8328   53.4788 C   0  0  0  0  0  0  0  0  0  0  0  0
   68.0109   46.6892   54.4044 C   0  0  0  0  0  0  0  0  0  0  0  0
   68.9528   47.6008   54.0189 C   0  0  0  0  0  0  0  0  0  0  0  0
  8  9  1  0  0  0
  9 10  1  0  0  0
  9 16  1  0  0  0
 10 11  1  0  0  0
 11 12  1  0  0  0
 12 13  1  0  0  0
 12 15  1  0  0  0
 13 14  2  0  0  0
 13  1  1  0  0  0
  1  2  2  0  0  0
  1  6  1  0  0  0
  2  3  1  0  0  0
  3 17  1  0  0  0
  3  4  2  0  0  0
 17 18  1  0  0  0
 18 19  2  0  0  0
 18 28  1  0  0  0
 19 20  1  0  0  0
 20 21  1  0  0  0
 21 22  2  0  0  0
 21 23  1  0  0  0
 23 24  1  0  0  0
 23 28  2  0  0  0
 24 25  2  0  0  0
 25 26  1  0  0  0
 26 27  2  0  0  0
 27 28  1  0  0  0
  4  5  1  0  0  0
  5  6  2  0  0  0
  6  7  1  0  0  0
 15 16  1  0  0  0
M  END
> <minimizedAffinity>
-9.05707

$$$$
cs_R2_output_folder/data/smiles/24.pdb


 26 29  0  0  0  0  0  0  0  0999 V2000
   70.9268   49.0374   58.2640 C   0  0  0  0  0  0  0  0  0  0  0  0
   70.4821   48.1851   57.2555 C   0  0  0  0  0  0  0  0  0  0  0  0
   69.2796   48.3316   56.6081 C   0  0  0  0  0  0  0  0  0  0  0  0
   68.4895   49.4157   57.0192 C   0  0  0  0  0  0  0  0  0  0  0  0
   68.8880   50.2830   58.0100 C   0  0  0  0  0  0  0  0  0  0  0  0
   70.1070   50.0747   58.6171 C   0  0  0  0  0  0  0  0  0  0  0  0
   70.4847   50.9367   59.5915 F   0  0  0  0  0  0  0  0  0  0  0  0
   68.8150   47.4282   55.5770 C   0  0  0  0  0  0  0  0  0  0  0  0
   68.1063   46.3195   55.9299 N   0  0  0  0  0  0  0  0  0  0  0  0
   67.6608   45.4544   55.0366 N   0  0  0  0  0  0  0  0  0  0  0  0
   67.8728   45.6006   53.7211 C   0  0  0  0  0  0  0  0  0  0  0  0
   67.4382   44.7608   52.8724 O   0  0  0  0  0  0  0  0  0  0  0  0
   68.5813   46.6939   53.2891 C   0  0  0  0  0  0  0  0  0  0  0  0
   68.8233   46.8549   51.9360 C   0  0  0  0  0  0  0  0  0  0  0  0
   69.5484   47.9417   51.5038 C   0  0  0  0  0  0  0  0  0  0  0  0
   70.0089   48.8353   52.4411 C   0  0  0  0  0  0  0  0  0  0  0  0
   69.7805   48.6973   53.7944 C   0  0  0  0  0  0  0  0  0  0  0  0
   69.0544   47.6123   54.2379 C   0  0  0  0  0  0  0  0  0  0  0  0
   73.2998   50.3893   57.5505 O   0  0  0  0  0  0  0  0  0  0  0  0
   73.3627   49.4662   58.3819 C   0  0  0  0  0  0  0  0  0  0  0  0
   74.6325   48.8815   58.8930 C   0  0  0  0  0  0  0  0  0  0  0  0
   74.6293   49.0203   60.3820 C   0  0  0  0  0  0  0  0  0  0  0  0
   73.4507   48.4157   61.0605 C   0  0  0  0  0  0  0  0  0  0  0  0
   72.3084   48.1491   60.1379 C   0  0  0  0  0  0  0  0  0  0  0  0
   71.4426   47.2759   60.4031 O   0  0  0  0  0  0  0  0  0  0  0  0
   72.1623   48.8782   58.9245 N   0  0  0  0  0  0  0  0  0  0  0  0
 19 20  2  0  0  0
 20 21  1  0  0  0
 20 26  1  0  0  0
 21 22  1  0  0  0
 22 23  1  0  0  0
 23 24  1  0  0  0
 24 25  2  0  0  0
 24 26  1  0  0  0
 26  1  1  0  0  0
  1  2  2  0  0  0
  1  6  1  0  0  0
  2  3  1  0  0  0
  3  8  1  0  0  0
  3  4  2  0  0  0
  8  9  2  0  0  0
  8 18  1  0  0  0
  9 10  1  0  0  0
 10 11  1  0  0  0
 11 12  2  0  0  0
 11 13  1  0  0  0
 13 14  1  0  0  0
 13 18  2  0  0  0
 14 15  2  0  0  0
 15 16  1  0  0  0
 16 17  2  0  0  0
 17 18  1  0  0  0
  4  5  1  0  0  0
  5  6  2  0  0  0
  6  7  1  0  0  0
M  END
> <minimizedAffinity>
-8.21296

$$$$
cs_R2_output_folder/data/smiles/25.pdb


 20 21  0  0  0  0  0  0  0  0999 V2000
   69.7196   50.2041   52.3518 O   0  0  0  0  0  0  0  0  0  0  0  0
   70.3412   49.0231   53.0863 S   0  0  0  0  0  0  0  0  0  0  0  0
   71.6191   48.7226   52.3329 O   0  0  0  0  0  0  0  0  0  0  0  0
   69.2475   47.6794   53.0696 C   0  0  0  0  0  0  0  0  0  0  0  0
   68.9274   47.0549   54.2506 C   0  0  0  0  0  0  0  0  0  0  0  0
   68.0489   45.9796   54.2285 C   0  0  0  0  0  0  0  0  0  0  0  0
   67.4978   45.5301   53.0633 C   0  0  0  0  0  0  0  0  0  0  0  0
   67.8140   46.1503   51.8832 C   0  0  0  0  0  0  0  0  0  0  0  0
   67.2893   45.7334   50.7192 F   0  0  0  0  0  0  0  0  0  0  0  0
   68.6988   47.2352   51.8913 C   0  0  0  0  0  0  0  0  0  0  0  0
   70.7868   49.4746   54.6861 N   0  0  0  0  0  0  0  0  0  0  0  0
   70.0735   50.4902   55.3638 C   0  0  0  0  0  0  0  0  0  0  0  0
   68.8780   50.3204   56.0298 C   0  0  0  0  0  0  0  0  0  0  0  0
   68.2297   51.3655   56.6589 C   0  0  0  0  0  0  0  0  0  0  0  0
   66.7158   51.0962   57.4876 Cl  0  0  0  0  0  0  0  0  0  0  0  0
   68.7389   52.6419   56.6595 C   0  0  0  0  0  0  0  0  0  0  0  0
   69.9318   52.8369   56.0009 C   0  0  0  0  0  0  0  0  0  0  0  0
   70.5962   51.7824   55.3609 C   0  0  0  0  0  0  0  0  0  0  0  0
   71.8697   52.0264   54.6674 C   0  0  0  0  0  0  0  0  0  0  0  0
   73.3059   51.6566   55.6906 S   0  0  0  0  0  0  0  0  0  0  0  0
  1  2  2  0  0  0
  2  3  2  0  0  0
  2 11  1  0  0  0
  2  4  1  0  0  0
 11 12  1  0  0  0
 12 13  2  0  0  0
 12 18  1  0  0  0
 13 14  1  0  0  0
 14 15  1  0  0  0
 14 16  2  0  0  0
 16 17  1  0  0  0
 17 18  2  0  0  0
 18 19  1  0  0  0
 19 20  1  0  0  0
  4  5  2  0  0  0
  4 10  1  0  0  0
  5  6  1  0  0  0
  6  7  2  0  0  0
  7  8  1  0  0  0
  8  9  1  0  0  0
  8 10  2  0  0  0
M  END
> <minimizedAffinity>
-7.51695

$$$$
cs_R2_output_folder/data/smiles/26.pdb


 27 30  0  0  0  0  0  0  0  0999 V2000
   72.0202   46.6617   58.8839 C   0  0  0  0  0  0  0  0  0  0  0  0
   70.8120   46.1680   58.4475 C   0  0  0  0  0  0  0  0  0  0  0  0
   69.9816   46.9085   57.6000 C   0  0  0  0  0  0  0  0  0  0  0  0
   70.3400   48.1457   57.1728 C   0  0  0  0  0  0  0  0  0  0  0  0
   71.5791   48.6153   57.6392 C   0  0  0  0  0  0  0  0  0  0  0  0
   72.3540   47.8801   58.4538 N   0  0  0  0  0  0  0  0  0  0  0  0
   72.4448   47.2140   61.5522 O   0  0  0  0  0  0  0  0  0  0  0  0
   73.0310   46.1955   61.1257 C   0  0  0  0  0  0  0  0  0  0  0  0
   72.8335   45.8775   59.7429 N   0  0  0  0  0  0  0  0  0  0  0  0
   73.8652   45.3851   61.9937 C   0  0  0  0  0  0  0  0  0  0  0  0
   74.4165   45.8773   63.0789 C   0  0  0  0  0  0  0  0  0  0  0  0
   74.3724   47.1980   63.6689 C   0  0  0  0  0  0  0  0  0  0  0  0
   75.1166   47.1726   64.7937 C   0  0  0  0  0  0  0  0  0  0  0  0
   75.6495   45.8651   64.9579 N   0  0  0  0  0  0  0  0  0  0  0  0
   75.2665   45.0872   63.9849 C   0  0  0  0  0  0  0  0  0  0  0  0
   69.5986   49.0435   56.2718 C   0  0  0  0  0  0  0  0  0  0  0  0
   69.7832   48.7724   54.8348 C   0  0  0  0  0  0  0  0  0  0  0  0
   70.7860   49.4076   54.1419 N   0  0  0  0  0  0  0  0  0  0  0  0
   71.0350   49.1818   52.8693 N   0  0  0  0  0  0  0  0  0  0  0  0
   70.3214   48.3030   52.1379 C   0  0  0  0  0  0  0  0  0  0  0  0
   70.5532   48.0828   50.9286 O   0  0  0  0  0  0  0  0  0  0  0  0
   69.3024   47.6300   52.7586 C   0  0  0  0  0  0  0  0  0  0  0  0
   69.0440   47.8806   54.1244 C   0  0  0  0  0  0  0  0  0  0  0  0
   67.9044   47.1393   54.7219 C   0  0  0  0  0  0  0  0  0  0  0  0
   68.0756   45.7033   54.2278 C   0  0  0  0  0  0  0  0  0  0  0  0
   67.7124   45.7047   52.7621 C   0  0  0  0  0  0  0  0  0  0  0  0
   68.5255   46.6652   51.9592 C   0  0  0  0  0  0  0  0  0  0  0  0
  7  8  2  0  0  0
  8 10  1  0  0  0
  8  9  1  0  0  0
 10 11  2  0  0  0
 11 12  1  0  0  0
 11 15  1  0  0  0
 12 13  2  0  0  0
 13 14  1  0  0  0
 14 15  2  0  0  0
  9  1  1  0  0  0
  1  2  2  0  0  0
  1  6  1  0  0  0
  2  3  1  0  0  0
  3  4  2  0  0  0
  4 16  1  0  0  0
  4  5  1  0  0  0
 16 17  1  0  0  0
 17 18  2  0  0  0
 17 23  1  0  0  0
 18 19  1  0  0  0
 19 20  1  0  0  0
 20 21  2  0  0  0
 20 22  1  0  0  0
 22 23  2  0  0  0
 22 27  1  0  0  0
 23 24  1  0  0  0
 24 25  1  0  0  0
 25 26  1  0  0  0
 26 27  1  0  0  0
  5  6  2  0  0  0
M  END
> <minimizedAffinity>
-9.23267

$$$$
cs_R2_output_folder/data/smiles/27.pdb


 26 27  0  0  0  0  0  0  0  0999 V2000
   70.3643   43.1259   56.7581 O   0  0  0  0  0  0  0  0  0  0  0  0
   69.2516   42.9643   57.3270 C   0  0  0  0  0  0  0  0  0  0  0  0
   68.0776   43.4168   56.6676 N   0  0  0  0  0  0  0  0  0  0  0  0
   68.1499   44.0400   55.3894 N   0  0  0  0  0  0  0  0  0  0  0  0
   68.3027   45.4136   55.2299 C   0  0  0  0  0  0  0  0  0  0  0  0
   68.3799   46.1265   56.2776 O   0  0  0  0  0  0  0  0  0  0  0  0
   68.3735   46.0208   53.9207 C   0  0  0  0  0  0  0  0  0  0  0  0
   67.5883   45.5322   52.8680 C   0  0  0  0  0  0  0  0  0  0  0  0
   67.6401   46.0961   51.6109 C   0  0  0  0  0  0  0  0  0  0  0  0
   68.4762   47.1621   51.3674 C   0  0  0  0  0  0  0  0  0  0  0  0
   69.2608   47.6650   52.3814 C   0  0  0  0  0  0  0  0  0  0  0  0
   69.1907   47.0784   53.6437 C   0  0  0  0  0  0  0  0  0  0  0  0
   70.1193   48.7606   52.1283 N   0  0  0  0  0  0  0  0  0  0  0  0
   69.9380   49.4737   51.1359 O   0  0  0  0  0  0  0  0  0  0  0  0
   71.1524   49.0396   52.9749 O   0  0  0  0  0  0  0  0  0  0  0  0
   69.1723   42.3030   58.6810 C   0  0  0  0  0  0  0  0  0  0  0  0
   69.8584   40.9861   58.6519 C   0  0  0  0  0  0  0  0  0  0  0  0
   71.2256   40.8198   58.7324 C   0  0  0  0  0  0  0  0  0  0  0  0
   71.7974   39.5457   58.6988 C   0  0  0  0  0  0  0  0  0  0  0  0
   71.0249   38.4095   58.5834 C   0  0  0  0  0  0  0  0  0  0  0  0
   69.6603   38.5777   58.5033 C   0  0  0  0  0  0  0  0  0  0  0  0
   69.0958   39.8437   58.5381 C   0  0  0  0  0  0  0  0  0  0  0  0
   71.6762   37.0755   58.5519 C   0  0  0  0  0  0  0  0  0  0  0  0
   70.8100   36.0877   59.0057 F   0  0  0  0  0  0  0  0  0  0  0  0
   72.0761   36.7159   57.2949 F   0  0  0  0  0  0  0  0  0  0  0  0
   72.7909   37.0320   59.3701 F   0  0  0  0  0  0  0  0  0  0  0  0
  1  2  2  0  0  0
  2 16  1  0  0  0
  2  3  1  0  0  0
 16 17  1  0  0  0
 17 18  2  0  0  0
 17 22  1  0  0  0
 18 19  1  0  0  0
 19 20  2  0  0  0
 20 23  1  0  0  0
 20 21  1  0  0  0
 23 24  1  0  0  0
 23 25  1  0  0  0
 23 26  1  0  0  0
 21 22  2  0  0  0
  3  4  1  0  0  0
  4  5  1  0  0  0
  5  6  2  0  0  0
  5  7  1  0  0  0
  7  8  2  0  0  0
  7 12  1  0  0  0
  8  9  1  0  0  0
  9 10  2  0  0  0
 10 11  1  0  0  0
 11 13  1  0  0  0
 11 12  2  0  0  0
 13 14  2  0  0  0
 13 15  1  0  0  0
M  CHG 1  13   1
M  CHG 1  15  -1
M  END
> <minimizedAffinity>
-9.23617

$$$$
cs_R2_output_folder/data/smiles/28.pdb


 23 24  0  0  0  0  0  0  0  0999 V2000
   67.9444   44.0366   55.3934 N   0  0  0  0  0  0  0  0  0  0  0  0
   68.2292   45.3873   55.1774 C   0  0  0  0  0  0  0  0  0  0  0  0
   68.4477   46.1498   56.1451 O   0  0  0  0  0  0  0  0  0  0  0  0
   68.2761   45.9245   53.8304 C   0  0  0  0  0  0  0  0  0  0  0  0
   67.5444   45.4617   52.7815 C   0  0  0  0  0  0  0  0  0  0  0  0
   67.6623   46.0468   51.5258 C   0  0  0  0  0  0  0  0  0  0  0  0
   68.5073   47.1061   51.2752 C   0  0  0  0  0  0  0  0  0  0  0  0
   69.2542   47.5817   52.3355 C   0  0  0  0  0  0  0  0  0  0  0  0
   69.1375   47.0038   53.5726 C   0  0  0  0  0  0  0  0  0  0  0  0
   70.1537   48.6882   52.1278 N   0  0  0  0  0  0  0  0  0  0  0  0
   71.0876   48.8784   52.9199 O   0  0  0  0  0  0  0  0  0  0  0  0
   69.9450   49.5040   51.0491 O   0  0  0  0  0  0  0  0  0  0  0  0
   68.0880   41.4046   55.8101 O   0  0  0  0  0  0  0  0  0  0  0  0
   67.9775   42.0784   56.8435 C   0  0  0  0  0  0  0  0  0  0  0  0
   67.9365   41.4550   58.0952 N   0  0  0  0  0  0  0  0  0  0  0  0
   67.8953   43.5033   56.6839 N   0  0  0  0  0  0  0  0  0  0  0  0
   68.0190   40.0297   58.2964 C   0  0  0  0  0  0  0  0  0  0  0  0
   69.4137   39.5369   58.4627 C   0  0  0  0  0  0  0  0  0  0  0  0
   69.7465   38.2142   58.6694 C   0  0  0  0  0  0  0  0  0  0  0  0
   71.0460   37.7823   58.8158 C   0  0  0  0  0  0  0  0  0  0  0  0
   72.0760   38.6992   58.7553 C   0  0  0  0  0  0  0  0  0  0  0  0
   71.7963   40.0328   58.5514 C   0  0  0  0  0  0  0  0  0  0  0  0
   70.4911   40.4345   58.4098 C   0  0  0  0  0  0  0  0  0  0  0  0
 13 14  2  0  0  0
 14 15  1  0  0  0
 14 16  1  0  0  0
 15 17  1  0  0  0
 17 18  1  0  0  0
 18 19  2  0  0  0
 18 23  1  0  0  0
 19 20  1  0  0  0
 20 21  2  0  0  0
 21 22  1  0  0  0
 22 23  2  0  0  0
 16  1  1  0  0  0
  1  2  1  0  0  0
  2  3  2  0  0  0
  2  4  1  0  0  0
  4  5  2  0  0  0
  4  9  1  0  0  0
  5  6  1  0  0  0
  6  7  2  0  0  0
  7  8  1  0  0  0
  8 10  1  0  0  0
  8  9  2  0  0  0
 10 11  2  0  0  0
 10 12  1  0  0  0
M  CHG 1  10   1
M  CHG 1  12  -1
M  END
> <minimizedAffinity>
-8.92527

$$$$
cs_R2_output_folder/data/smiles/29.pdb


 26 28  0  0  0  0  0  0  0  0999 V2000
   73.6395   34.5604   55.9006 C   0  0  0  0  0  0  0  0  0  0  0  0
   73.0791   35.7917   56.1601 C   0  0  0  0  0  0  0  0  0  0  0  0
   72.3318   36.0328   57.3013 C   0  0  0  0  0  0  0  0  0  0  0  0
   72.1254   35.0175   58.2332 C   0  0  0  0  0  0  0  0  0  0  0  0
   72.6687   33.8066   57.9916 C   0  0  0  0  0  0  0  0  0  0  0  0
   73.4264   33.5647   56.8317 C   0  0  0  0  0  0  0  0  0  0  0  0
   72.3222   32.9488   59.0705 N   0  0  0  0  0  0  0  0  0  0  0  0
   71.5417   33.6341   60.0179 C   0  0  0  0  0  0  0  0  0  0  0  0
   71.0517   33.1998   61.1022 O   0  0  0  0  0  0  0  0  0  0  0  0
   71.3643   35.0392   59.5222 C   0  0  0  0  0  0  0  0  0  0  0  0
   70.7719   35.9416   60.0225 N   0  0  0  0  0  0  0  0  0  0  0  0
   74.4429   34.3216   54.6644 C   0  0  0  0  0  0  0  0  0  0  0  0
   75.7207   35.7705   53.1392 C   0  0  0  0  0  0  0  0  0  0  0  0
   74.3391   35.4371   53.6712 C   0  0  0  0  0  0  0  0  0  0  0  0
   73.5189   34.9122   52.5014 C   0  0  0  0  0  0  0  0  0  0  0  0
   70.1077   36.9275   60.5996 C   0  0  0  0  0  0  0  0  0  0  0  0
   69.5447   37.9828   59.6668 C   0  0  0  0  0  0  0  0  0  0  0  0
   68.1935   38.0852   59.4955 C   0  0  0  0  0  0  0  0  0  0  0  0
   67.6595   39.0440   58.6315 C   0  0  0  0  0  0  0  0  0  0  0  0
   68.4949   39.8962   57.9441 C   0  0  0  0  0  0  0  0  0  0  0  0
   69.8613   39.7965   58.1145 C   0  0  0  0  0  0  0  0  0  0  0  0
   70.3746   38.8246   58.9884 C   0  0  0  0  0  0  0  0  0  0  0  0
   67.8174   41.1026   56.8598 S   0  0  0  0  0  0  0  0  0  0  0  0
   68.9068   42.4316   56.6632 N   0  0  0  0  0  0  0  0  0  0  0  0
   66.5216   41.6437   57.4013 O   0  0  0  0  0  0  0  0  0  0  0  0
   67.5665   40.4850   55.5186 O   0  0  0  0  0  0  0  0  0  0  0  0
 13 14  1  0  0  0
 14 15  1  0  0  0
 14 12  1  0  0  0
 12  1  1  0  0  0
  1  2  2  0  0  0
  1  6  1  0  0  0
  2  3  1  0  0  0
  3  4  2  0  0  0
  4  5  1  0  0  0
  4 10  1  0  0  0
  5  6  2  0  0  0
  5  7  1  0  0  0
  7  8  1  0  0  0
  8  9  2  0  0  0
  8 10  1  0  0  0
 10 11  2  0  0  0
 11 16  1  0  0  0
 16 17  1  0  0  0
 17 18  2  0  0  0
 17 22  1  0  0  0
 18 19  1  0  0  0
 19 20  2  0  0  0
 20 23  1  0  0  0
 20 21  1  0  0  0
 23 24  1  0  0  0
 23 25  2  0  0  0
 23 26  2  0  0  0
 21 22  2  0  0  0
M  END
> <minimizedAffinity>
-7.51329

$$$$
cs_R2_output_folder/data/smiles/30.pdb


 30 33  0  0  0  0  0  0  0  0999 V2000
   71.1444   45.9760   58.1369 C   0  0  0  0  0  0  0  0  0  0  0  0
   71.7939   46.6786   59.1293 C   0  0  0  0  0  0  0  0  0  0  0  0
   71.6217   48.0445   59.2823 C   0  0  0  0  0  0  0  0  0  0  0  0
   70.7651   48.7351   58.4054 C   0  0  0  0  0  0  0  0  0  0  0  0
   70.1043   48.0703   57.4079 C   0  0  0  0  0  0  0  0  0  0  0  0
   70.3277   46.7058   57.3184 C   0  0  0  0  0  0  0  0  0  0  0  0
   70.5869   43.6063   58.7064 C   0  0  0  0  0  0  0  0  0  0  0  0
   69.6271   44.0364   59.4109 O   0  0  0  0  0  0  0  0  0  0  0  0
   71.3703   44.5789   58.0499 N   0  0  0  0  0  0  0  0  0  0  0  0
   69.8814   39.9379   58.2975 C   0  0  0  0  0  0  0  0  0  0  0  0
   69.7412   41.3087   58.3725 C   0  0  0  0  0  0  0  0  0  0  0  0
   70.7924   42.1615   58.6397 C   0  0  0  0  0  0  0  0  0  0  0  0
   72.0210   41.5695   58.8340 C   0  0  0  0  0  0  0  0  0  0  0  0
   72.1725   40.1764   58.7591 C   0  0  0  0  0  0  0  0  0  0  0  0
   71.1114   39.3476   58.4921 C   0  0  0  0  0  0  0  0  0  0  0  0
   71.2554   37.8617   58.4052 C   0  0  0  0  0  0  0  0  0  0  0  0
   67.6843   39.1809   58.8805 C   0  0  0  0  0  0  0  0  0  0  0  0
   68.8120   39.0948   58.0274 O   0  0  0  0  0  0  0  0  0  0  0  0
   69.1715   48.7312   56.4315 C   0  0  0  0  0  0  0  0  0  0  0  0
   69.5641   48.6096   55.0432 C   0  0  0  0  0  0  0  0  0  0  0  0
   70.6332   49.3408   54.5941 N   0  0  0  0  0  0  0  0  0  0  0  0
   71.0258   49.3380   53.3388 N   0  0  0  0  0  0  0  0  0  0  0  0
   70.3748   48.5998   52.4295 C   0  0  0  0  0  0  0  0  0  0  0  0
   70.7136   48.5661   51.2154 O   0  0  0  0  0  0  0  0  0  0  0  0
   69.3073   47.8545   52.8230 C   0  0  0  0  0  0  0  0  0  0  0  0
   68.8974   47.8575   54.1384 C   0  0  0  0  0  0  0  0  0  0  0  0
   67.7772   47.0099   54.5254 C   0  0  0  0  0  0  0  0  0  0  0  0
   67.8128   45.6428   53.8597 C   0  0  0  0  0  0  0  0  0  0  0  0
   68.4671   45.6456   52.5352 C   0  0  0  0  0  0  0  0  0  0  0  0
   68.5220   47.0094   51.8819 C   0  0  0  0  0  0  0  0  0  0  0  0
 17 18  1  0  0  0
 18 10  1  0  0  0
 10 11  2  0  0  0
 10 15  1  0  0  0
 11 12  1  0  0  0
 12  7  1  0  0  0
 12 13  2  0  0  0
  7  8  2  0  0  0
  7  9  1  0  0  0
  9  1  1  0  0  0
  1  2  2  0  0  0
  1  6  1  0  0  0
  2  3  1  0  0  0
  3  4  2  0  0  0
  4  5  1  0  0  0
  5 19  1  0  0  0
  5  6  2  0  0  0
 19 20  1  0  0  0
 20 21  2  0  0  0
 20 26  1  0  0  0
 21 22  1  0  0  0
 22 23  1  0  0  0
 23 24  2  0  0  0
 23 25  1  0  0  0
 25 26  2  0  0  0
 25 30  1  0  0  0
 26 27  1  0  0  0
 27 28  1  0  0  0
 28 29  1  0  0  0
 29 30  1  0  0  0
 13 14  1  0  0  0
 14 15  2  0  0  0
 15 16  1  0  0  0
M  END
> <minimizedAffinity>
-9.10901

$$$$
cs_R2_output_folder/data/smiles/31.pdb


 22 23  0  0  0  0  0  0  0  0999 V2000
   68.6567   45.1144   55.4042 N   0  0  0  0  0  0  0  0  0  0  0  0
   68.3239   46.4653   55.1402 C   0  0  0  0  0  0  0  0  0  0  0  0
   67.4619   46.9795   55.9015 O   0  0  0  0  0  0  0  0  0  0  0  0
   68.9211   47.2597   54.0582 C   0  0  0  0  0  0  0  0  0  0  0  0
   69.7235   48.3462   54.2568 C   0  0  0  0  0  0  0  0  0  0  0  0
   70.2890   49.0966   53.2213 C   0  0  0  0  0  0  0  0  0  0  0  0
   69.9938   48.6779   51.9371 C   0  0  0  0  0  0  0  0  0  0  0  0
   69.1894   47.5882   51.6898 C   0  0  0  0  0  0  0  0  0  0  0  0
   68.6635   46.8925   52.7623 C   0  0  0  0  0  0  0  0  0  0  0  0
   67.6061   45.4654   52.4506 S   0  0  0  0  0  0  0  0  0  0  0  0
   71.1134   50.2132   53.4698 N   0  0  0  0  0  0  0  0  0  0  0  0
   72.2532   50.0535   53.8973 O   0  0  0  0  0  0  0  0  0  0  0  0
   70.6388   51.4614   53.2329 O   0  0  0  0  0  0  0  0  0  0  0  0
   68.1737   44.3265   56.3522 O   0  0  0  0  0  0  0  0  0  0  0  0
   67.8355   43.0545   56.0154 C   0  0  0  0  0  0  0  0  0  0  0  0
   69.9619   38.6472   59.0220 C   0  0  0  0  0  0  0  0  0  0  0  0
   69.4328   39.7955   58.2448 C   0  0  0  0  0  0  0  0  0  0  0  0
   70.0705   41.0008   58.2353 C   0  0  0  0  0  0  0  0  0  0  0  0
   69.5865   42.0680   57.5231 C   0  0  0  0  0  0  0  0  0  0  0  0
   68.4312   41.9703   56.7846 C   0  0  0  0  0  0  0  0  0  0  0  0
   67.7938   40.7259   56.8070 C   0  0  0  0  0  0  0  0  0  0  0  0
   68.2698   39.6636   57.5126 C   0  0  0  0  0  0  0  0  0  0  0  0
 16 17  1  0  0  0
 17 18  2  0  0  0
 17 22  1  0  0  0
 18 19  1  0  0  0
 19 20  2  0  0  0
 20 15  1  0  0  0
 20 21  1  0  0  0
 15 14  1  0  0  0
 14  1  1  0  0  0
  1  2  1  0  0  0
  2  3  2  0  0  0
  2  4  1  0  0  0
  4  5  2  0  0  0
  4  9  1  0  0  0
  5  6  1  0  0  0
  6 11  1  0  0  0
  6  7  2  0  0  0
 11 12  2  0  0  0
 11 13  1  0  0  0
  7  8  1  0  0  0
  8  9  2  0  0  0
  9 10  1  0  0  0
 21 22  2  0  0  0
M  CHG 1  11   1
M  CHG 1  13  -1
M  END
> <minimizedAffinity>
-8.30397

$$$$
cs_R2_output_folder/data/smiles/32.pdb


 29 31  0  0  0  0  0  0  0  0999 V2000
   68.2733   45.7894   53.9803 C   0  0  0  0  0  0  0  0  0  0  0  0
   67.6373   45.2838   52.8660 C   0  0  0  0  0  0  0  0  0  0  0  0
   67.6755   45.9324   51.6474 C   0  0  0  0  0  0  0  0  0  0  0  0
   68.3689   47.1193   51.5407 C   0  0  0  0  0  0  0  0  0  0  0  0
   69.0289   47.6720   52.6396 C   0  0  0  0  0  0  0  0  0  0  0  0
   68.9519   46.9745   53.8280 C   0  0  0  0  0  0  0  0  0  0  0  0
   67.6816   43.7245   55.3418 N   0  0  0  0  0  0  0  0  0  0  0  0
   68.1856   45.0470   55.2216 C   0  0  0  0  0  0  0  0  0  0  0  0
   68.5722   45.5611   56.3199 O   0  0  0  0  0  0  0  0  0  0  0  0
   67.4644   41.0588   55.4929 O   0  0  0  0  0  0  0  0  0  0  0  0
   67.5154   41.6631   56.6169 C   0  0  0  0  0  0  0  0  0  0  0  0
   67.6306   43.0653   56.6017 N   0  0  0  0  0  0  0  0  0  0  0  0
   67.4510   40.8402   57.8451 C   0  0  0  0  0  0  0  0  0  0  0  0
   68.0997   39.6371   57.9074 C   0  0  0  0  0  0  0  0  0  0  0  0
   68.0285   38.8884   59.0597 C   0  0  0  0  0  0  0  0  0  0  0  0
   67.3259   39.3313   60.1234 N   0  0  0  0  0  0  0  0  0  0  0  0
   66.6847   40.5198   60.0642 C   0  0  0  0  0  0  0  0  0  0  0  0
   66.7412   41.2781   58.9339 C   0  0  0  0  0  0  0  0  0  0  0  0
   69.9004   49.1845   52.4967 S   0  0  0  0  0  0  0  0  0  0  0  0
   71.2569   48.9697   53.0576 O   0  0  0  0  0  0  0  0  0  0  0  0
   70.0633   49.4209   51.0094 O   0  0  0  0  0  0  0  0  0  0  0  0
   69.1115   50.4937   53.2584 N   0  0  0  0  0  0  0  0  0  0  0  0
   68.9867   50.7125   54.6384 C   0  0  0  0  0  0  0  0  0  0  0  0
   69.1516   49.6952   55.5665 C   0  0  0  0  0  0  0  0  0  0  0  0
   69.0254   49.8954   56.9236 C   0  0  0  0  0  0  0  0  0  0  0  0
   68.7275   51.1315   57.4106 C   0  0  0  0  0  0  0  0  0  0  0  0
   68.5576   52.1687   56.4950 C   0  0  0  0  0  0  0  0  0  0  0  0
   68.6849   51.9611   55.1405 C   0  0  0  0  0  0  0  0  0  0  0  0
   68.5021   53.0311   54.3231 F   0  0  0  0  0  0  0  0  0  0  0  0
 10 11  2  0  0  0
 11 12  1  0  0  0
 11 13  1  0  0  0
 12  7  1  0  0  0
  7  8  1  0  0  0
  8  9  2  0  0  0
  8  1  1  0  0  0
  1  2  2  0  0  0
  1  6  1  0  0  0
  2  3  1  0  0  0
  3  4  2  0  0  0
  4  5  1  0  0  0
  5 19  1  0  0  0
  5  6  2  0  0  0
 19 20  2  0  0  0
 19 21  2  0  0  0
 19 22  1  0  0  0
 22 23  1  0  0  0
 23 24  2  0  0  0
 23 28  1  0  0  0
 24 25  1  0  0  0
 25 26  2  0  0  0
 26 27  1  0  0  0
 27 28  2  0  0  0
 28 29  1  0  0  0
 13 14  2  0  0  0
 13 18  1  0  0  0
 14 15  1  0  0  0
 15 16  2  0  0  0
 16 17  1  0  0  0
 17 18  2  0  0  0
M  END
> <minimizedAffinity>
-10.65472

$$$$
cs_R2_output_folder/data/smiles/33.pdb


 23 25  0  0  0  0  0  0  0  0999 V2000
   68.4227   43.6210   56.2321 C   0  0  0  0  0  0  0  0  0  0  0  0
   69.3947   44.1844   57.0639 N   0  0  0  0  0  0  0  0  0  0  0  0
   70.0009   43.5313   58.0387 C   0  0  0  0  0  0  0  0  0  0  0  0
   70.9669   44.1221   58.8510 C   0  0  0  0  0  0  0  0  0  0  0  0
   71.6058   43.4607   59.8666 C   0  0  0  0  0  0  0  0  0  0  0  0
   71.2951   42.1399   60.1177 C   0  0  0  0  0  0  0  0  0  0  0  0
   70.3406   41.5417   59.3222 C   0  0  0  0  0  0  0  0  0  0  0  0
   69.7005   42.2127   58.3010 C   0  0  0  0  0  0  0  0  0  0  0  0
   68.7822   41.6429   57.5310 N   0  0  0  0  0  0  0  0  0  0  0  0
   68.1379   42.3069   56.5093 C   0  0  0  0  0  0  0  0  0  0  0  0
   67.1540   41.5716   55.7409 C   0  0  0  0  0  0  0  0  0  0  0  0
   67.4966   40.3843   55.3708 O   0  0  0  0  0  0  0  0  0  0  0  0
   65.9107   41.9403   55.3437 O   0  0  0  0  0  0  0  0  0  0  0  0
   67.8988   44.3864   55.2989 O   0  0  0  0  0  0  0  0  0  0  0  0
   68.6072   47.2805   53.4450 C   0  0  0  0  0  0  0  0  0  0  0  0
   68.0406   46.4943   52.4729 C   0  0  0  0  0  0  0  0  0  0  0  0
   67.6882   45.2922   53.0172 C   0  0  0  0  0  0  0  0  0  0  0  0
   68.0375   45.3072   54.3746 C   0  0  0  0  0  0  0  0  0  0  0  0
   68.5923   46.5566   54.5522 N   0  0  0  0  0  0  0  0  0  0  0  0
   69.1390   48.6753   53.2965 C   0  0  0  0  0  0  0  0  0  0  0  0
   70.2192   48.3288   51.1726 O   0  0  0  0  0  0  0  0  0  0  0  0
   70.2938   48.6753   52.3708 C   0  0  0  0  0  0  0  0  0  0  0  0
   71.5218   49.0800   52.8580 O   0  0  0  0  0  0  0  0  0  0  0  0
 21 22  2  0  0  0
 22 23  1  0  0  0
 22 20  1  0  0  0
 20 15  1  0  0  0
 15 16  2  0  0  0
 15 19  1  0  0  0
 16 17  1  0  0  0
 17 18  2  0  0  0
 18 14  1  0  0  0
 18 19  1  0  0  0
 14  1  1  0  0  0
  1  2  2  0  0  0
  1 10  1  0  0  0
  2  3  1  0  0  0
  3  4  2  0  0  0
  3  8  1  0  0  0
  4  5  1  0  0  0
  5  6  2  0  0  0
  6  7  1  0  0  0
  7  8  2  0  0  0
  8  9  1  0  0  0
  9 10  2  0  0  0
 10 11  1  0  0  0
 11 12  2  0  0  0
 11 13  1  0  0  0
M  END
> <minimizedAffinity>
-8.67443

$$$$
cs_R2_output_folder/data/smiles/34.pdb


 24 26  0  0  0  0  0  0  0  0999 V2000
   70.0254   45.8011   59.2559 O   0  0  0  0  0  0  0  0  0  0  0  0
   70.4412   45.4248   58.1335 C   0  0  0  0  0  0  0  0  0  0  0  0
   69.7538   45.9226   56.9820 N   0  0  0  0  0  0  0  0  0  0  0  0
   71.5707   44.5236   58.0497 C   0  0  0  0  0  0  0  0  0  0  0  0
   71.4934   43.2093   57.6580 C   0  0  0  0  0  0  0  0  0  0  0  0
   72.6168   42.4020   57.6004 C   0  0  0  0  0  0  0  0  0  0  0  0
   73.8643   42.8628   57.9300 C   0  0  0  0  0  0  0  0  0  0  0  0
   74.9679   42.0809   57.8763 N   0  0  0  0  0  0  0  0  0  0  0  0
   76.1871   42.5545   58.2050 C   0  0  0  0  0  0  0  0  0  0  0  0
   76.3642   43.8642   58.6113 C   0  0  0  0  0  0  0  0  0  0  0  0
   75.2401   44.6609   58.6651 C   0  0  0  0  0  0  0  0  0  0  0  0
   73.9746   44.1794   58.3271 C   0  0  0  0  0  0  0  0  0  0  0  0
   72.8582   44.9769   58.3825 C   0  0  0  0  0  0  0  0  0  0  0  0
   68.7032   46.7594   57.0294 N   0  0  0  0  0  0  0  0  0  0  0  0
   68.0487   47.2639   56.0936 C   0  0  0  0  0  0  0  0  0  0  0  0
   68.3086   47.0328   54.6896 C   0  0  0  0  0  0  0  0  0  0  0  0
   67.7697   46.0692   53.9095 C   0  0  0  0  0  0  0  0  0  0  0  0
   68.1209   45.9682   52.5528 C   0  0  0  0  0  0  0  0  0  0  0  0
   69.0080   46.8242   51.9678 C   0  0  0  0  0  0  0  0  0  0  0  0
   69.5619   47.8165   52.7736 C   0  0  0  0  0  0  0  0  0  0  0  0
   69.2283   47.9236   54.0918 C   0  0  0  0  0  0  0  0  0  0  0  0
   70.4772   48.7053   52.1866 N   0  0  0  0  0  0  0  0  0  0  0  0
   71.4714   49.1069   52.8311 O   0  0  0  0  0  0  0  0  0  0  0  0
   70.3308   49.1687   50.9056 O   0  0  0  0  0  0  0  0  0  0  0  0
  1  2  2  0  0  0
  2  3  1  0  0  0
  2  4  1  0  0  0
  3 14  1  0  0  0
 14 15  2  0  0  0
 15 16  1  0  0  0
 16 17  2  0  0  0
 16 21  1  0  0  0
 17 18  1  0  0  0
 18 19  2  0  0  0
 19 20  1  0  0  0
 20 22  1  0  0  0
 20 21  2  0  0  0
 22 23  2  0  0  0
 22 24  1  0  0  0
  4  5  2  0  0  0
  4 13  1  0  0  0
  5  6  1  0  0  0
  6  7  2  0  0  0
  7  8  1  0  0  0
  7 12  1  0  0  0
  8  9  2  0  0  0
  9 10  1  0  0  0
 10 11  2  0  0  0
 11 12  1  0  0  0
 12 13  2  0  0  0
M  CHG 1  22   1
M  CHG 1  24  -1
M  END
> <minimizedAffinity>
-9.26380

$$$$
cs_R2_output_folder/data/smiles/35.pdb


 31 34  0  0  0  0  0  0  0  0999 V2000
   71.4486   46.9805   58.7946 C   0  0  0  0  0  0  0  0  0  0  0  0
   71.3350   45.6169   58.6443 C   0  0  0  0  0  0  0  0  0  0  0  0
   70.4289   45.0983   57.7383 C   0  0  0  0  0  0  0  0  0  0  0  0
   69.6553   45.9703   57.0070 C   0  0  0  0  0  0  0  0  0  0  0  0
   69.7606   47.3773   57.1525 C   0  0  0  0  0  0  0  0  0  0  0  0
   70.6670   47.8250   58.0498 C   0  0  0  0  0  0  0  0  0  0  0  0
   75.9418   45.7407   60.0047 N   0  0  0  0  0  0  0  0  0  0  0  0
   75.0117   45.3610   58.9483 C   0  0  0  0  0  0  0  0  0  0  0  0
   74.3262   46.5948   58.4542 C   0  0  0  0  0  0  0  0  0  0  0  0
   73.8048   47.3256   59.6133 N   0  0  0  0  0  0  0  0  0  0  0  0
   72.4143   47.5127   59.7880 C   0  0  0  0  0  0  0  0  0  0  0  0
   71.9691   48.1245   60.7663 O   0  0  0  0  0  0  0  0  0  0  0  0
   74.8154   47.8206   60.5187 C   0  0  0  0  0  0  0  0  0  0  0  0
   76.1307   47.1807   60.0896 C   0  0  0  0  0  0  0  0  0  0  0  0
   74.8715   44.7215   62.7393 C   0  0  0  0  0  0  0  0  0  0  0  0
   75.3335   45.1649   61.5307 S   0  0  0  0  0  0  0  0  0  0  0  0
   73.3707   43.5253   64.0815 O   0  0  0  0  0  0  0  0  0  0  0  0
   74.3767   44.2296   64.0087 C   0  0  0  0  0  0  0  0  0  0  0  0
   75.0467   44.5544   65.2042 O   0  0  0  0  0  0  0  0  0  0  0  0
   68.8661   48.2162   56.2996 C   0  0  0  0  0  0  0  0  0  0  0  0
   69.2367   48.3142   54.8944 C   0  0  0  0  0  0  0  0  0  0  0  0
   70.1346   49.2514   54.5127 N   0  0  0  0  0  0  0  0  0  0  0  0
   70.5782   49.4001   53.2843 N   0  0  0  0  0  0  0  0  0  0  0  0
   70.1806   48.6240   52.2508 C   0  0  0  0  0  0  0  0  0  0  0  0
   70.6231   48.7735   51.0713 O   0  0  0  0  0  0  0  0  0  0  0  0
   69.2648   47.6459   52.5721 C   0  0  0  0  0  0  0  0  0  0  0  0
   68.7983   46.8459   51.5565 C   0  0  0  0  0  0  0  0  0  0  0  0
   67.8562   45.8516   51.7849 C   0  0  0  0  0  0  0  0  0  0  0  0
   67.4138   45.7302   53.0974 C   0  0  0  0  0  0  0  0  0  0  0  0
   67.8724   46.5355   54.1211 C   0  0  0  0  0  0  0  0  0  0  0  0
   68.7899   47.4924   53.8711 C   0  0  0  0  0  0  0  0  0  0  0  0
 17 18  2  0  0  0
 18 19  1  0  0  0
 18 15  1  0  0  0
 15 16  3  0  0  0
 16  7  1  0  0  0
  7  8  1  0  0  0
  7 14  1  0  0  0
  8  9  1  0  0  0
  9 10  1  0  0  0
 10 11  1  0  0  0
 10 13  1  0  0  0
 11 12  2  0  0  0
 11  1  1  0  0  0
  1  2  2  0  0  0
  1  6  1  0  0  0
  2  3  1  0  0  0
  3  4  2  0  0  0
  4  5  1  0  0  0
  5 20  1  0  0  0
  5  6  2  0  0  0
 20 21  1  0  0  0
 21 22  2  0  0  0
 21 31  1  0  0  0
 22 23  1  0  0  0
 23 24  1  0  0  0
 24 25  2  0  0  0
 24 26  1  0  0  0
 26 27  1  0  0  0
 26 31  2  0  0  0
 27 28  2  0  0  0
 28 29  1  0  0  0
 29 30  2  0  0  0
 30 31  1  0  0  0
 13 14  1  0  0  0
M  END
> <minimizedAffinity>
-9.14114

$$$$
cs_R2_output_folder/data/smiles/36.pdb


 23 25  0  0  0  0  0  0  0  0999 V2000
   68.6067   44.6225   56.4046 C   0  0  0  0  0  0  0  0  0  0  0  0
   69.7136   44.5113   57.1551 N   0  0  0  0  0  0  0  0  0  0  0  0
   70.1573   43.3413   57.6653 C   0  0  0  0  0  0  0  0  0  0  0  0
   69.4621   42.1702   57.4274 C   0  0  0  0  0  0  0  0  0  0  0  0
   68.3210   42.2768   56.6565 C   0  0  0  0  0  0  0  0  0  0  0  0
   67.9227   43.4654   56.1713 N   0  0  0  0  0  0  0  0  0  0  0  0
   69.9239   40.8915   57.9629 C   0  0  0  0  0  0  0  0  0  0  0  0
   69.0869   39.8092   58.1458 C   0  0  0  0  0  0  0  0  0  0  0  0
   69.5810   38.6126   58.6572 C   0  0  0  0  0  0  0  0  0  0  0  0
   70.9110   38.4617   58.9979 C   0  0  0  0  0  0  0  0  0  0  0  0
   71.7525   39.5380   58.8185 C   0  0  0  0  0  0  0  0  0  0  0  0
   71.2486   40.7199   58.3105 C   0  0  0  0  0  0  0  0  0  0  0  0
   68.1479   45.8567   55.8804 N   0  0  0  0  0  0  0  0  0  0  0  0
   69.1481   47.7663   52.8509 C   0  0  0  0  0  0  0  0  0  0  0  0
   68.6255   46.9895   51.8392 C   0  0  0  0  0  0  0  0  0  0  0  0
   67.9486   45.8385   52.1596 C   0  0  0  0  0  0  0  0  0  0  0  0
   67.8033   45.4817   53.4876 C   0  0  0  0  0  0  0  0  0  0  0  0
   68.3114   46.2324   54.5218 C   0  0  0  0  0  0  0  0  0  0  0  0
   68.9905   47.3888   54.1687 C   0  0  0  0  0  0  0  0  0  0  0  0
   69.3374   50.5667   53.2930 N   0  0  0  0  0  0  0  0  0  0  0  0
   70.0006   49.2199   52.4077 S   0  0  0  0  0  0  0  0  0  0  0  0
   71.4465   49.1026   52.8391 O   0  0  0  0  0  0  0  0  0  0  0  0
   69.9861   49.4593   50.9367 O   0  0  0  0  0  0  0  0  0  0  0  0
 20 21  1  0  0  0
 21 22  2  0  0  0
 21 23  2  0  0  0
 21 14  1  0  0  0
 14 15  2  0  0  0
 14 19  1  0  0  0
 15 16  1  0  0  0
 16 17  2  0  0  0
 17 18  1  0  0  0
 18 13  1  0  0  0
 18 19  2  0  0  0
 13  1  1  0  0  0
  1  2  2  0  0  0
  1  6  1  0  0  0
  2  3  1  0  0  0
  3  4  2  0  0  0
  4  7  1  0  0  0
  4  5  1  0  0  0
  7  8  2  0  0  0
  7 12  1  0  0  0
  8  9  1  0  0  0
  9 10  2  0  0  0
 10 11  1  0  0  0
 11 12  2  0  0  0
  5  6  2  0  0  0
M  END
> <minimizedAffinity>
-9.44716

$$$$
cs_R2_output_folder/data/smiles/37.pdb


 26 27  0  0  0  0  0  0  0  0999 V2000
   71.5992   46.8519   59.1814 C   0  0  0  0  0  0  0  0  0  0  0  0
   71.2782   45.5565   58.7926 C   0  0  0  0  0  0  0  0  0  0  0  0
   70.3773   45.2855   57.7962 C   0  0  0  0  0  0  0  0  0  0  0  0
   69.7703   46.3351   57.1596 C   0  0  0  0  0  0  0  0  0  0  0  0
   70.0458   47.6423   57.5057 C   0  0  0  0  0  0  0  0  0  0  0  0
   70.9538   47.8988   58.5090 C   0  0  0  0  0  0  0  0  0  0  0  0
   73.3523   47.3201   61.0328 C   0  0  0  0  0  0  0  0  0  0  0  0
   72.5558   47.1035   60.2051 C   0  0  0  0  0  0  0  0  0  0  0  0
   75.0927   47.7986   62.8111 C   0  0  0  0  0  0  0  0  0  0  0  0
   74.3107   47.5888   62.0006 C   0  0  0  0  0  0  0  0  0  0  0  0
   76.8215   48.2729   64.6323 C   0  0  0  0  0  0  0  0  0  0  0  0
   76.0154   48.0497   63.7762 C   0  0  0  0  0  0  0  0  0  0  0  0
   78.1479   49.6901   66.0009 O   0  0  0  0  0  0  0  0  0  0  0  0
   77.6051   48.5643   65.7696 C   0  0  0  0  0  0  0  0  0  0  0  0
   77.8235   47.5401   66.7785 N   0  0  0  0  0  0  0  0  0  0  0  0
   78.5302   47.6988   67.9158 O   0  0  0  0  0  0  0  0  0  0  0  0
   69.3746   48.6783   56.7767 N   0  0  0  0  0  0  0  0  0  0  0  0
   69.6407   49.1329   55.1702 S   0  0  0  0  0  0  0  0  0  0  0  0
   69.0020   50.4773   54.8295 O   0  0  0  0  0  0  0  0  0  0  0  0
   71.1332   49.3342   54.9935 O   0  0  0  0  0  0  0  0  0  0  0  0
   69.1484   47.9957   53.9628 C   0  0  0  0  0  0  0  0  0  0  0  0
   68.2303   46.9844   54.2736 C   0  0  0  0  0  0  0  0  0  0  0  0
   67.7844   46.0747   53.3587 C   0  0  0  0  0  0  0  0  0  0  0  0
   68.2703   46.1696   52.0521 C   0  0  0  0  0  0  0  0  0  0  0  0
   69.1708   47.1617   51.7447 C   0  0  0  0  0  0  0  0  0  0  0  0
   69.6245   48.0787   52.6652 C   0  0  0  0  0  0  0  0  0  0  0  0
 13 14  2  0  0  0
 14 11  1  0  0  0
 14 15  1  0  0  0
 11 12  2  0  0  0
 12  9  1  0  0  0
  9 10  3  0  0  0
 10  7  1  0  0  0
  7  8  3  0  0  0
  8  1  1  0  0  0
  1  2  2  0  0  0
  1  6  1  0  0  0
  2  3  1  0  0  0
  3  4  2  0  0  0
  4  5  1  0  0  0
  5 17  1  0  0  0
  5  6  2  0  0  0
 17 18  1  0  0  0
 18 19  2  0  0  0
 18 20  2  0  0  0
 18 21  1  0  0  0
 21 22  2  0  0  0
 21 26  1  0  0  0
 22 23  1  0  0  0
 23 24  2  0  0  0
 24 25  1  0  0  0
 25 26  2  0  0  0
 15 16  1  0  0  0
M  END
> <minimizedAffinity>
-8.48015

$$$$
cs_R2_output_folder/data/smiles/38.pdb


 26 29  0  0  0  0  0  0  0  0999 V2000
   68.3803   45.1144   55.5690 C   0  0  0  0  0  0  0  0  0  0  0  0
   69.0101   45.7408   56.5580 N   0  0  0  0  0  0  0  0  0  0  0  0
   69.5713   46.9520   56.5107 C   0  0  0  0  0  0  0  0  0  0  0  0
   69.4963   47.6179   55.3416 N   0  0  0  0  0  0  0  0  0  0  0  0
   68.8893   47.1040   54.2582 C   0  0  0  0  0  0  0  0  0  0  0  0
   68.3299   45.8564   54.3599 C   0  0  0  0  0  0  0  0  0  0  0  0
   67.7138   45.4725   53.0702 C   0  0  0  0  0  0  0  0  0  0  0  0
   68.2681   46.4500   52.0748 C   0  0  0  0  0  0  0  0  0  0  0  0
   68.6948   47.6542   52.8882 C   0  0  0  0  0  0  0  0  0  0  0  0
   70.2473   47.5740   57.6457 C   0  0  0  0  0  0  0  0  0  0  0  0
   70.9429   46.8077   58.5666 C   0  0  0  0  0  0  0  0  0  0  0  0
   71.5777   47.4133   59.6369 C   0  0  0  0  0  0  0  0  0  0  0  0
   71.5591   48.7316   59.8383 N   0  0  0  0  0  0  0  0  0  0  0  0
   70.8927   49.5022   58.9633 C   0  0  0  0  0  0  0  0  0  0  0  0
   70.2360   48.9334   57.8654 C   0  0  0  0  0  0  0  0  0  0  0  0
   67.7977   43.8895   55.5694 O   0  0  0  0  0  0  0  0  0  0  0  0
   68.7760   40.4298   57.7472 C   0  0  0  0  0  0  0  0  0  0  0  0
   69.4344   41.6097   57.9915 C   0  0  0  0  0  0  0  0  0  0  0  0
   69.1345   42.7746   57.2884 C   0  0  0  0  0  0  0  0  0  0  0  0
   68.1671   42.8157   56.3109 C   0  0  0  0  0  0  0  0  0  0  0  0
   67.4922   41.5955   56.0647 C   0  0  0  0  0  0  0  0  0  0  0  0
   67.8086   40.4709   56.7696 C   0  0  0  0  0  0  0  0  0  0  0  0
   70.5574   37.3977   59.3023 C   0  0  0  0  0  0  0  0  0  0  0  0
   70.3466   38.6900   58.5630 C   0  0  0  0  0  0  0  0  0  0  0  0
   71.3136   39.3137   58.0583 O   0  0  0  0  0  0  0  0  0  0  0  0
   69.0394   39.2149   58.4330 N   0  0  0  0  0  0  0  0  0  0  0  0
 23 24  1  0  0  0
 24 25  2  0  0  0
 24 26  1  0  0  0
 26 17  1  0  0  0
 17 18  2  0  0  0
 17 22  1  0  0  0
 18 19  1  0  0  0
 19 20  2  0  0  0
 20 16  1  0  0  0
 20 21  1  0  0  0
 16  1  1  0  0  0
  1  2  2  0  0  0
  1  6  1  0  0  0
  2  3  1  0  0  0
  3 10  1  0  0  0
  3  4  2  0  0  0
 10 11  2  0  0  0
 10 15  1  0  0  0
 11 12  1  0  0  0
 12 13  2  0  0  0
 13 14  1  0  0  0
 14 15  2  0  0  0
  4  5  1  0  0  0
  5  6  2  0  0  0
  5  9  1  0  0  0
  6  7  1  0  0  0
  7  8  1  0  0  0
  8  9  1  0  0  0
 21 22  2  0  0  0
M  END
> <minimizedAffinity>
-8.81171

$$$$
cs_R2_output_folder/data/smiles/39.pdb


 23 25  0  0  0  0  0  0  0  0999 V2000
   71.6269   49.4888   53.3301 O   0  0  0  0  0  0  0  0  0  0  0  0
   70.4384   49.5220   53.6683 C   0  0  0  0  0  0  0  0  0  0  0  0
   69.6071   48.4844   54.2280 C   0  0  0  0  0  0  0  0  0  0  0  0
   69.4532   48.3833   55.6212 C   0  0  0  0  0  0  0  0  0  0  0  0
   68.6738   47.4133   56.2007 C   0  0  0  0  0  0  0  0  0  0  0  0
   68.5686   47.3659   57.4463 O   0  0  0  0  0  0  0  0  0  0  0  0
   68.0265   46.5219   55.4477 N   0  0  0  0  0  0  0  0  0  0  0  0
   68.1364   46.5701   54.1037 C   0  0  0  0  0  0  0  0  0  0  0  0
   67.4535   45.6331   53.3565 C   0  0  0  0  0  0  0  0  0  0  0  0
   67.5394   45.6490   51.9906 C   0  0  0  0  0  0  0  0  0  0  0  0
   68.3079   46.6025   51.3953 C   0  0  0  0  0  0  0  0  0  0  0  0
   68.9977   47.5460   52.1211 C   0  0  0  0  0  0  0  0  0  0  0  0
   68.9304   47.5556   53.4798 C   0  0  0  0  0  0  0  0  0  0  0  0
   69.8468   50.7896   53.4573 O   0  0  0  0  0  0  0  0  0  0  0  0
   68.6245   51.0841   54.0446 C   0  0  0  0  0  0  0  0  0  0  0  0
   68.7227   52.0439   55.1191 N   0  0  0  0  0  0  0  0  0  0  0  0
   69.2302   51.6698   56.3774 C   0  0  0  0  0  0  0  0  0  0  0  0
   70.5787   51.8465   56.6754 C   0  0  0  0  0  0  0  0  0  0  0  0
   71.1415   51.5095   57.8693 C   0  0  0  0  0  0  0  0  0  0  0  0
   70.3578   50.9587   58.8614 C   0  0  0  0  0  0  0  0  0  0  0  0
   68.9992   50.7681   58.5947 C   0  0  0  0  0  0  0  0  0  0  0  0
   68.4604   51.1207   57.3745 C   0  0  0  0  0  0  0  0  0  0  0  0
   67.1391   50.9155   57.1659 F   0  0  0  0  0  0  0  0  0  0  0  0
  1  2  2  0  0  0
  2 14  1  0  0  0
  2  3  1  0  0  0
 14 15  1  0  0  0
 15 16  1  0  0  0
 16 17  1  0  0  0
 17 18  2  0  0  0
 17 22  1  0  0  0
 18 19  1  0  0  0
 19 20  2  0  0  0
 20 21  1  0  0  0
 21 22  2  0  0  0
 22 23  1  0  0  0
  3  4  2  0  0  0
  3 13  1  0  0  0
  4  5  1  0  0  0
  5  6  2  0  0  0
  5  7  1  0  0  0
  7  8  1  0  0  0
  8  9  1  0  0  0
  8 13  2  0  0  0
  9 10  2  0  0  0
 10 11  1  0  0  0
 11 12  2  0  0  0
 12 13  1  0  0  0
M  END
> <minimizedAffinity>
-8.13810

$$$$
cs_R2_output_folder/data/smiles/40.pdb


 33 37  0  0  0  0  0  0  0  0999 V2000
   71.2878   46.6595   58.8130 C   0  0  0  0  0  0  0  0  0  0  0  0
   70.3597   47.3633   58.0868 C   0  0  0  0  0  0  0  0  0  0  0  0
   69.5243   46.7609   57.1612 C   0  0  0  0  0  0  0  0  0  0  0  0
   69.6514   45.3982   56.9812 C   0  0  0  0  0  0  0  0  0  0  0  0
   70.5711   44.6522   57.6894 C   0  0  0  0  0  0  0  0  0  0  0  0
   71.3959   45.3082   58.6167 C   0  0  0  0  0  0  0  0  0  0  0  0
   72.2874   44.5580   59.2970 F   0  0  0  0  0  0  0  0  0  0  0  0
   71.7678   47.3956   60.9959 O   0  0  0  0  0  0  0  0  0  0  0  0
   72.1404   47.3326   59.7689 C   0  0  0  0  0  0  0  0  0  0  0  0
   73.3703   47.9344   59.4540 N   0  0  0  0  0  0  0  0  0  0  0  0
   74.1500   48.5810   60.4673 C   0  0  0  0  0  0  0  0  0  0  0  0
   75.1977   49.4957   59.9246 C   0  0  0  0  0  0  0  0  0  0  0  0
   75.8730   49.0349   58.7394 N   0  0  0  0  0  0  0  0  0  0  0  0
   75.4172   47.8222   58.1254 C   0  0  0  0  0  0  0  0  0  0  0  0
   73.8771   47.9168   58.1063 C   0  0  0  0  0  0  0  0  0  0  0  0
   76.9576   49.7400   58.1686 C   0  0  0  0  0  0  0  0  0  0  0  0
   77.9379   50.3161   58.9266 C   0  0  0  0  0  0  0  0  0  0  0  0
   79.0175   51.0079   58.3937 C   0  0  0  0  0  0  0  0  0  0  0  0
   79.1072   51.1200   57.0297 C   0  0  0  0  0  0  0  0  0  0  0  0
   78.1322   50.5497   56.2317 C   0  0  0  0  0  0  0  0  0  0  0  0
   77.0769   49.8727   56.7788 C   0  0  0  0  0  0  0  0  0  0  0  0
   68.5567   47.6173   56.4318 C   0  0  0  0  0  0  0  0  0  0  0  0
   69.1295   47.9306   55.0855 C   0  0  0  0  0  0  0  0  0  0  0  0
   70.0759   48.8717   54.9330 N   0  0  0  0  0  0  0  0  0  0  0  0
   70.6226   49.2015   53.7967 N   0  0  0  0  0  0  0  0  0  0  0  0
   70.2560   48.5950   52.6717 C   0  0  0  0  0  0  0  0  0  0  0  0
   70.8130   48.9486   51.6035 O   0  0  0  0  0  0  0  0  0  0  0  0
   69.2902   47.6153   52.7369 C   0  0  0  0  0  0  0  0  0  0  0  0
   68.8997   46.9757   51.5740 C   0  0  0  0  0  0  0  0  0  0  0  0
   67.9322   45.9936   51.6385 C   0  0  0  0  0  0  0  0  0  0  0  0
   67.3743   45.6684   52.8516 C   0  0  0  0  0  0  0  0  0  0  0  0
   67.7488   46.2929   54.0237 C   0  0  0  0  0  0  0  0  0  0  0  0
   68.7134   47.2700   53.9483 C   0  0  0  0  0  0  0  0  0  0  0  0
  8  9  2  0  0  0
  9  1  1  0  0  0
  9 10  1  0  0  0
  1  2  2  0  0  0
  1  6  1  0  0  0
  2  3  1  0  0  0
  3 22  1  0  0  0
  3  4  2  0  0  0
 22 23  1  0  0  0
 23 24  2  0  0  0
 23 33  1  0  0  0
 24 25  1  0  0  0
 25 26  1  0  0  0
 26 27  2  0  0  0
 26 28  1  0  0  0
 28 29  1  0  0  0
 28 33  2  0  0  0
 29 30  2  0  0  0
 30 31  1  0  0  0
 31 32  2  0  0  0
 32 33  1  0  0  0
  4  5  1  0  0  0
  5  6  2  0  0  0
  6  7  1  0  0  0
 10 11  1  0  0  0
 10 15  1  0  0  0
 11 12  1  0  0  0
 12 13  1  0  0  0
 13 16  1  0  0  0
 13 14  1  0  0  0
 16 17  2  0  0  0
 16 21  1  0  0  0
 17 18  1  0  0  0
 18 19  2  0  0  0
 19 20  1  0  0  0
 20 21  2  0  0  0
 14 15  1  0  0  0
M  END
> <minimizedAffinity>
-10.01960

$$$$
cs_R2_output_folder/data/smiles/41.pdb


 29 32  0  0  0  0  0  0  0  0999 V2000
   71.4655   47.1215   58.8909 C   0  0  0  0  0  0  0  0  0  0  0  0
   70.6322   47.8808   58.0903 C   0  0  0  0  0  0  0  0  0  0  0  0
   69.7808   47.3592   57.1637 C   0  0  0  0  0  0  0  0  0  0  0  0
   69.7667   45.9650   57.0290 C   0  0  0  0  0  0  0  0  0  0  0  0
   70.5810   45.1580   57.8039 C   0  0  0  0  0  0  0  0  0  0  0  0
   71.4195   45.7498   58.7250 C   0  0  0  0  0  0  0  0  0  0  0  0
   72.2388   45.0087   59.5117 F   0  0  0  0  0  0  0  0  0  0  0  0
   73.9365   50.8687   58.5636 C   0  0  0  0  0  0  0  0  0  0  0  0
   73.8918   49.8474   57.4426 C   0  0  0  0  0  0  0  0  0  0  0  0
   73.8047   48.4445   57.9658 C   0  0  0  0  0  0  0  0  0  0  0  0
   73.5086   48.4174   59.3926 N   0  0  0  0  0  0  0  0  0  0  0  0
   72.3474   47.7593   59.8609 C   0  0  0  0  0  0  0  0  0  0  0  0
   72.0884   47.7310   61.0819 O   0  0  0  0  0  0  0  0  0  0  0  0
   74.4518   49.0861   60.2552 C   0  0  0  0  0  0  0  0  0  0  0  0
   74.9220   50.3440   59.5951 C   0  0  0  0  0  0  0  0  0  0  0  0
   71.7955   51.6809   58.3168 C   0  0  0  0  0  0  0  0  0  0  0  0
   72.6831   51.0066   59.1452 O   0  0  0  0  0  0  0  0  0  0  0  0
   68.8826   48.1659   56.3216 C   0  0  0  0  0  0  0  0  0  0  0  0
   69.2463   48.2844   54.9165 C   0  0  0  0  0  0  0  0  0  0  0  0
   70.1470   49.2516   54.5614 N   0  0  0  0  0  0  0  0  0  0  0  0
   70.5682   49.4134   53.3221 N   0  0  0  0  0  0  0  0  0  0  0  0
   70.1469   48.6427   52.3048 C   0  0  0  0  0  0  0  0  0  0  0  0
   70.5842   48.8363   51.1188 O   0  0  0  0  0  0  0  0  0  0  0  0
   69.2415   47.6504   52.5838 C   0  0  0  0  0  0  0  0  0  0  0  0
   68.7753   46.8435   51.5718 C   0  0  0  0  0  0  0  0  0  0  0  0
   67.8579   45.8672   51.8877 C   0  0  0  0  0  0  0  0  0  0  0  0
   67.3931   45.6654   53.1576 C   0  0  0  0  0  0  0  0  0  0  0  0
   67.8776   46.4918   54.1692 C   0  0  0  0  0  0  0  0  0  0  0  0
   68.7997   47.4862   53.9057 C   0  0  0  0  0  0  0  0  0  0  0  0
 16 17  1  0  0  0
 17  8  1  0  0  0
  8  9  1  0  0  0
  8 15  1  0  0  0
  9 10  1  0  0  0
 10 11  1  0  0  0
 11 12  1  0  0  0
 11 14  1  0  0  0
 12 13  2  0  0  0
 12  1  1  0  0  0
  1  2  2  0  0  0
  1  6  1  0  0  0
  2  3  1  0  0  0
  3 18  1  0  0  0
  3  4  2  0  0  0
 18 19  1  0  0  0
 19 20  2  0  0  0
 19 29  1  0  0  0
 20 21  1  0  0  0
 21 22  1  0  0  0
 22 23  2  0  0  0
 22 24  1  0  0  0
 24 25  1  0  0  0
 24 29  2  0  0  0
 25 26  2  0  0  0
 26 27  1  0  0  0
 27 28  2  0  0  0
 28 29  1  0  0  0
  4  5  1  0  0  0
  5  6  2  0  0  0
  6  7  1  0  0  0
 14 15  1  0  0  0
M  END
> <minimizedAffinity>
-9.34697

$$$$
cs_R2_output_folder/data/smiles/42.pdb


 19 20  0  0  0  0  0  0  0  0999 V2000
   68.4136   48.2187   57.2608 O   0  0  0  0  0  0  0  0  0  0  0  0
   68.7854   47.2051   56.6312 C   0  0  0  0  0  0  0  0  0  0  0  0
   68.8021   47.0970   55.1826 C   0  0  0  0  0  0  0  0  0  0  0  0
   68.0367   46.1477   54.5313 C   0  0  0  0  0  0  0  0  0  0  0  0
   68.0507   46.0437   53.1534 C   0  0  0  0  0  0  0  0  0  0  0  0
   68.8194   46.8728   52.3645 C   0  0  0  0  0  0  0  0  0  0  0  0
   69.5819   47.8183   53.0076 C   0  0  0  0  0  0  0  0  0  0  0  0
   69.5681   47.9229   54.3933 C   0  0  0  0  0  0  0  0  0  0  0  0
   70.3873   48.6930   52.2451 N   0  0  0  0  0  0  0  0  0  0  0  0
   70.0895   49.0444   51.0875 O   0  0  0  0  0  0  0  0  0  0  0  0
   71.5417   49.1755   52.8011 O   0  0  0  0  0  0  0  0  0  0  0  0
   69.2071   46.1136   57.3654 O   0  0  0  0  0  0  0  0  0  0  0  0
   70.4040   46.1151   58.1067 C   0  0  0  0  0  0  0  0  0  0  0  0
   71.0165   44.7868   57.9621 C   0  0  0  0  0  0  0  0  0  0  0  0
   70.2215   43.7046   57.6976 C   0  0  0  0  0  0  0  0  0  0  0  0
   70.7659   42.4393   57.5551 C   0  0  0  0  0  0  0  0  0  0  0  0
   72.1269   42.2730   57.6826 C   0  0  0  0  0  0  0  0  0  0  0  0
   72.9369   43.3611   57.9503 C   0  0  0  0  0  0  0  0  0  0  0  0
   72.3662   44.6270   58.0888 C   0  0  0  0  0  0  0  0  0  0  0  0
  1  2  2  0  0  0
  2 12  1  0  0  0
  2  3  1  0  0  0
 12 13  1  0  0  0
 13 14  1  0  0  0
 14 15  2  0  0  0
 14 19  1  0  0  0
 15 16  1  0  0  0
 16 17  2  0  0  0
 17 18  1  0  0  0
 18 19  2  0  0  0
  3  4  2  0  0  0
  3  8  1  0  0  0
  4  5  1  0  0  0
  5  6  2  0  0  0
  6  7  1  0  0  0
  7  9  1  0  0  0
  7  8  2  0  0  0
  9 10  2  0  0  0
  9 11  1  0  0  0
M  CHG 1   9   1
M  CHG 1  11  -1
M  END
> <minimizedAffinity>
-7.61493

$$$$
cs_R2_output_folder/data/smiles/43.pdb


 23 24  0  0  0  0  0  0  0  0999 V2000
   71.0964   49.4477   56.4554 C   0  0  0  0  0  0  0  0  0  0  0  0
   72.2817   49.1332   56.3657 O   0  0  0  0  0  0  0  0  0  0  0  0
   70.4068   48.7738   57.5450 N   0  0  0  0  0  0  0  0  0  0  0  0
   71.0524   47.8526   58.4049 C   0  0  0  0  0  0  0  0  0  0  0  0
   70.7896   46.4838   58.2748 C   0  0  0  0  0  0  0  0  0  0  0  0
   71.4247   45.5924   59.1187 C   0  0  0  0  0  0  0  0  0  0  0  0
   72.3134   46.0075   60.0907 C   0  0  0  0  0  0  0  0  0  0  0  0
   72.5774   47.3536   60.2242 C   0  0  0  0  0  0  0  0  0  0  0  0
   71.9370   48.2392   59.3743 C   0  0  0  0  0  0  0  0  0  0  0  0
   73.6944   47.9457   61.4361 S   0  0  0  0  0  0  0  0  0  0  0  0
   74.4699   49.4428   60.9353 C   0  0  0  0  0  0  0  0  0  0  0  0
   73.0086   48.1257   62.7582 O   0  0  0  0  0  0  0  0  0  0  0  0
   74.7434   46.8564   61.6102 O   0  0  0  0  0  0  0  0  0  0  0  0
   69.8980   50.2043   54.4420 C   0  0  0  0  0  0  0  0  0  0  0  0
   70.4224   50.3720   55.6029 C   0  0  0  0  0  0  0  0  0  0  0  0
   69.6291   48.9566   53.7640 C   0  0  0  0  0  0  0  0  0  0  0  0
   70.0674   48.6323   52.5151 C   0  0  0  0  0  0  0  0  0  0  0  0
   69.6746   47.4545   51.8963 C   0  0  0  0  0  0  0  0  0  0  0  0
   68.8335   46.5790   52.5271 C   0  0  0  0  0  0  0  0  0  0  0  0
   68.3848   46.8924   53.7922 C   0  0  0  0  0  0  0  0  0  0  0  0
   68.7629   48.0411   54.4014 C   0  0  0  0  0  0  0  0  0  0  0  0
   68.6761   52.2919   54.8040 C   0  0  0  0  0  0  0  0  0  0  0  0
   69.2489   51.4032   53.7361 C   0  0  0  0  0  0  0  0  0  0  0  0
 22 23  1  0  0  0
 23 14  1  0  0  0
 14 15  2  0  0  0
 14 16  1  0  0  0
 15  1  1  0  0  0
  1  2  2  0  0  0
  1  3  1  0  0  0
  3  4  1  0  0  0
  4  5  2  0  0  0
  4  9  1  0  0  0
  5  6  1  0  0  0
  6  7  2  0  0  0
  7  8  1  0  0  0
  8 10  1  0  0  0
  8  9  2  0  0  0
 10 11  1  0  0  0
 10 12  2  0  0  0
 10 13  2  0  0  0
 16 17  2  0  0  0
 16 21  1  0  0  0
 17 18  1  0  0  0
 18 19  2  0  0  0
 19 20  1  0  0  0
 20 21  2  0  0  0
M  END
> <minimizedAffinity>
-6.78289

$$$$
cs_R2_output_folder/data/smiles/44.pdb


 23 25  0  0  0  0  0  0  0  0999 V2000
   67.8708   46.2960   54.7718 N   0  0  0  0  0  0  0  0  0  0  0  0
   69.8547   49.1728   53.4035 C   0  0  0  0  0  0  0  0  0  0  0  0
   70.0873   48.7632   52.1078 C   0  0  0  0  0  0  0  0  0  0  0  0
   69.5837   47.5507   51.7043 C   0  0  0  0  0  0  0  0  0  0  0  0
   68.8505   46.7411   52.5730 C   0  0  0  0  0  0  0  0  0  0  0  0
   68.6114   47.1370   53.8658 C   0  0  0  0  0  0  0  0  0  0  0  0
   69.1181   48.3550   54.2687 C   0  0  0  0  0  0  0  0  0  0  0  0
   68.2557   51.8723   54.5225 C   0  0  0  0  0  0  0  0  0  0  0  0
   69.3815   51.1566   55.1005 N   0  0  0  0  0  0  0  0  0  0  0  0
   70.4419   50.6783   54.0752 S   0  0  0  0  0  0  0  0  0  0  0  0
   72.0641   50.5277   54.7632 C   0  0  0  0  0  0  0  0  0  0  0  0
   70.4199   51.6745   52.9408 O   0  0  0  0  0  0  0  0  0  0  0  0
   68.5666   45.5950   55.7841 C   0  0  0  0  0  0  0  0  0  0  0  0
   69.4382   46.2090   56.6530 C   0  0  0  0  0  0  0  0  0  0  0  0
   70.1235   45.5517   57.6415 C   0  0  0  0  0  0  0  0  0  0  0  0
   69.9037   44.2172   57.7397 N   0  0  0  0  0  0  0  0  0  0  0  0
   69.0535   43.5815   56.9010 C   0  0  0  0  0  0  0  0  0  0  0  0
   68.3926   44.2819   55.9289 N   0  0  0  0  0  0  0  0  0  0  0  0
   71.0092   46.2088   58.5756 C   0  0  0  0  0  0  0  0  0  0  0  0
   71.7612   45.6200   59.4814 C   0  0  0  0  0  0  0  0  0  0  0  0
   72.5213   46.5838   60.2430 C   0  0  0  0  0  0  0  0  0  0  0  0
   72.2422   47.7862   59.8124 C   0  0  0  0  0  0  0  0  0  0  0  0
   71.2514   47.6485   58.7062 C   0  0  0  0  0  0  0  0  0  0  0  0
  8  9  1  0  0  0
  9 10  2  0  0  0
 10 11  1  0  0  0
 10 12  2  0  0  0
 10  2  1  0  0  0
  2  3  2  0  0  0
  2  7  1  0  0  0
  3  4  1  0  0  0
  4  5  2  0  0  0
  5  6  1  0  0  0
  6  1  1  0  0  0
  6  7  2  0  0  0
  1 13  1  0  0  0
 13 14  2  0  0  0
 13 18  1  0  0  0
 14 15  1  0  0  0
 15 19  1  0  0  0
 15 16  2  0  0  0
 19 20  2  0  0  0
 19 23  1  0  0  0
 20 21  1  0  0  0
 21 22  2  0  0  0
 22 23  1  0  0  0
 16 17  1  0  0  0
 17 18  2  0  0  0
M  END
> <minimizedAffinity>
-7.81146

$$$$
cs_R2_output_folder/data/smiles/45.pdb


 25 26  0  0  0  0  0  0  0  0999 V2000
   70.2795   49.8795   55.6394 N   0  0  0  0  0  0  0  0  0  0  0  0
   73.6023   48.8453   58.0812 C   0  0  0  0  0  0  0  0  0  0  0  0
   72.4100   48.1789   58.2271 C   0  0  0  0  0  0  0  0  0  0  0  0
   71.3066   48.5182   57.4350 C   0  0  0  0  0  0  0  0  0  0  0  0
   71.3420   49.5137   56.4839 C   0  0  0  0  0  0  0  0  0  0  0  0
   72.5869   50.1623   56.3761 C   0  0  0  0  0  0  0  0  0  0  0  0
   73.6746   49.8443   57.1410 C   0  0  0  0  0  0  0  0  0  0  0  0
   74.8930   50.5861   56.9317 N   0  0  0  0  0  0  0  0  0  0  0  0
   75.6839   50.4114   55.7647 C   0  0  0  0  0  0  0  0  0  0  0  0
   76.8963   51.1473   55.5511 N   0  0  0  0  0  0  0  0  0  0  0  0
   75.2976   49.5830   54.8999 O   0  0  0  0  0  0  0  0  0  0  0  0
   75.5288   47.4327   58.5711 C   0  0  0  0  0  0  0  0  0  0  0  0
   74.7040   48.5216   58.8576 O   0  0  0  0  0  0  0  0  0  0  0  0
   70.3218   49.7161   53.9525 S   0  0  0  0  0  0  0  0  0  0  0  0
   71.7464   49.5771   53.4386 O   0  0  0  0  0  0  0  0  0  0  0  0
   69.7384   50.9390   53.2766 O   0  0  0  0  0  0  0  0  0  0  0  0
   69.4610   48.2889   53.4483 C   0  0  0  0  0  0  0  0  0  0  0  0
   69.5317   47.8268   52.1314 C   0  0  0  0  0  0  0  0  0  0  0  0
   70.3445   48.5305   51.2753 F   0  0  0  0  0  0  0  0  0  0  0  0
   68.8370   46.7267   51.6796 C   0  0  0  0  0  0  0  0  0  0  0  0
   68.0323   46.0372   52.5467 C   0  0  0  0  0  0  0  0  0  0  0  0
   67.3145   44.9403   52.1712 F   0  0  0  0  0  0  0  0  0  0  0  0
   67.9457   46.4734   53.8492 C   0  0  0  0  0  0  0  0  0  0  0  0
   68.6381   47.5721   54.3033 C   0  0  0  0  0  0  0  0  0  0  0  0
   68.5456   47.9924   55.5909 F   0  0  0  0  0  0  0  0  0  0  0  0
 12 13  1  0  0  0
 13  2  1  0  0  0
  2  3  2  0  0  0
  2  7  1  0  0  0
  3  4  1  0  0  0
  4  5  2  0  0  0
  5  1  1  0  0  0
  5  6  1  0  0  0
  1 14  1  0  0  0
 14 15  2  0  0  0
 14 16  2  0  0  0
 14 17  1  0  0  0
 17 18  2  0  0  0
 17 24  1  0  0  0
 18 19  1  0  0  0
 18 20  1  0  0  0
 20 21  2  0  0  0
 21 22  1  0  0  0
 21 23  1  0  0  0
 23 24  2  0  0  0
 24 25  1  0  0  0
  6  7  2  0  0  0
  7  8  1  0  0  0
  8  9  1  0  0  0
  9 10  1  0  0  0
  9 11  2  0  0  0
M  END
> <minimizedAffinity>
-8.00364

$$$$
cs_R2_output_folder/data/smiles/46.pdb


 22 24  0  0  0  0  0  0  0  0999 V2000
   68.4776   45.4031   56.3386 N   0  0  0  0  0  0  0  0  0  0  0  0
   68.7893   46.4658   55.6369 C   0  0  0  0  0  0  0  0  0  0  0  0
   68.5836   46.5507   54.1944 C   0  0  0  0  0  0  0  0  0  0  0  0
   69.2334   47.4510   53.3846 C   0  0  0  0  0  0  0  0  0  0  0  0
   69.0762   47.5319   52.0237 C   0  0  0  0  0  0  0  0  0  0  0  0
   68.2137   46.6637   51.3997 C   0  0  0  0  0  0  0  0  0  0  0  0
   67.5467   45.7390   52.2186 C   0  0  0  0  0  0  0  0  0  0  0  0
   67.7360   45.7012   53.5464 N   0  0  0  0  0  0  0  0  0  0  0  0
   67.9872   44.2355   55.7494 N   0  0  0  0  0  0  0  0  0  0  0  0
   68.7941   40.7986   57.9476 C   0  0  0  0  0  0  0  0  0  0  0  0
   67.9096   40.6892   56.9012 C   0  0  0  0  0  0  0  0  0  0  0  0
   67.6369   41.8148   56.1472 C   0  0  0  0  0  0  0  0  0  0  0  0
   68.2399   43.0123   56.4447 C   0  0  0  0  0  0  0  0  0  0  0  0
   69.0905   43.0696   57.4693 N   0  0  0  0  0  0  0  0  0  0  0  0
   69.3779   42.0138   58.2155 C   0  0  0  0  0  0  0  0  0  0  0  0
   69.2799   47.5589   56.3983 N   0  0  0  0  0  0  0  0  0  0  0  0
   68.4739   48.6540   56.8024 C   0  0  0  0  0  0  0  0  0  0  0  0
   68.7750   49.9368   56.4185 C   0  0  0  0  0  0  0  0  0  0  0  0
   68.0170   51.0432   56.7975 C   0  0  0  0  0  0  0  0  0  0  0  0
   66.9072   50.8541   57.5987 C   0  0  0  0  0  0  0  0  0  0  0  0
   66.6278   49.5597   57.9710 C   0  0  0  0  0  0  0  0  0  0  0  0
   67.3830   48.4963   57.5865 N   0  0  0  0  0  0  0  0  0  0  0  0
 10 11  2  0  0  0
 10 15  1  0  0  0
 11 12  1  0  0  0
 12 13  2  0  0  0
 13  9  1  0  0  0
 13 14  1  0  0  0
  9  1  1  0  0  0
  1  2  2  0  0  0
  2 16  1  0  0  0
  2  3  1  0  0  0
 16 17  1  0  0  0
 17 18  2  0  0  0
 17 22  1  0  0  0
 18 19  1  0  0  0
 19 20  2  0  0  0
 20 21  1  0  0  0
 21 22  2  0  0  0
  3  4  2  0  0  0
  3  8  1  0  0  0
  4  5  1  0  0  0
  5  6  2  0  0  0
  6  7  1  0  0  0
  7  8  2  0  0  0
 14 15  2  0  0  0
M  CHG 1   1   1
M  END
> <minimizedAffinity>
-9.06428

$$$$
cs_R2_output_folder/data/smiles/47.pdb


 28 30  0  0  0  0  0  0  0  0999 V2000
   68.3954   45.9978   54.0836 C   0  0  0  0  0  0  0  0  0  0  0  0
   67.9038   45.5481   52.8897 C   0  0  0  0  0  0  0  0  0  0  0  0
   68.0742   46.3377   51.7611 C   0  0  0  0  0  0  0  0  0  0  0  0
   68.7299   47.5480   51.8675 C   0  0  0  0  0  0  0  0  0  0  0  0
   69.2308   48.0125   53.0665 C   0  0  0  0  0  0  0  0  0  0  0  0
   69.0555   47.2207   54.1776 C   0  0  0  0  0  0  0  0  0  0  0  0
   67.7570   43.8597   55.3275 N   0  0  0  0  0  0  0  0  0  0  0  0
   68.2315   45.1898   55.2858 C   0  0  0  0  0  0  0  0  0  0  0  0
   68.5297   45.6832   56.4306 O   0  0  0  0  0  0  0  0  0  0  0  0
   67.5318   41.7394   56.6050 C   0  0  0  0  0  0  0  0  0  0  0  0
   67.5706   41.0968   55.5237 O   0  0  0  0  0  0  0  0  0  0  0  0
   67.6258   43.1451   56.5247 N   0  0  0  0  0  0  0  0  0  0  0  0
   65.7823   41.3113   61.2344 C   0  0  0  0  0  0  0  0  0  0  0  0
   66.5403   40.7761   60.0858 C   0  0  0  0  0  0  0  0  0  0  0  0
   67.1164   39.5305   60.2110 C   0  0  0  0  0  0  0  0  0  0  0  0
   67.8235   39.0019   59.1729 C   0  0  0  0  0  0  0  0  0  0  0  0
   67.9557   39.7286   57.9986 C   0  0  0  0  0  0  0  0  0  0  0  0
   67.3953   40.9755   57.8350 C   0  0  0  0  0  0  0  0  0  0  0  0
   66.6846   41.4966   58.8910 C   0  0  0  0  0  0  0  0  0  0  0  0
   70.0577   49.5586   53.1459 S   0  0  0  0  0  0  0  0  0  0  0  0
   71.5533   49.2744   53.1820 O   0  0  0  0  0  0  0  0  0  0  0  0
   69.8186   50.3415   51.8940 O   0  0  0  0  0  0  0  0  0  0  0  0
   69.6751   50.4241   54.5582 N   0  0  0  0  0  0  0  0  0  0  0  0
   68.9178   51.6046   54.3465 C   0  0  0  0  0  0  0  0  0  0  0  0
   68.8953   52.5638   55.4765 C   0  0  0  0  0  0  0  0  0  0  0  0
   69.1640   51.9420   56.8214 C   0  0  0  0  0  0  0  0  0  0  0  0
   70.3512   51.0332   56.8343 C   0  0  0  0  0  0  0  0  0  0  0  0
   70.7661   50.5482   55.4820 C   0  0  0  0  0  0  0  0  0  0  0  0
 13 14  1  0  0  0
 14 15  2  0  0  0
 14 19  1  0  0  0
 15 16  1  0  0  0
 16 17  2  0  0  0
 17 18  1  0  0  0
 18 10  1  0  0  0
 18 19  2  0  0  0
 10 11  2  0  0  0
 10 12  1  0  0  0
 12  7  1  0  0  0
  7  8  1  0  0  0
  8  9  2  0  0  0
  8  1  1  0  0  0
  1  2  2  0  0  0
  1  6  1  0  0  0
  2  3  1  0  0  0
  3  4  2  0  0  0
  4  5  1  0  0  0
  5 20  1  0  0  0
  5  6  2  0  0  0
 20 21  2  0  0  0
 20 22  2  0  0  0
 20 23  1  0  0  0
 23 24  1  0  0  0
 23 28  1  0  0  0
 24 25  1  0  0  0
 25 26  1  0  0  0
 26 27  1  0  0  0
 27 28  1  0  0  0
M  END
> <minimizedAffinity>
-9.94436

$$$$
cs_R2_output_folder/data/smiles/48.pdb


 21 23  0  0  0  0  0  0  0  0999 V2000
   68.2410   46.1014   56.1755 N   0  0  0  0  0  0  0  0  0  0  0  0
   69.2094   47.8595   52.9968 C   0  0  0  0  0  0  0  0  0  0  0  0
   68.6682   47.0244   52.0513 C   0  0  0  0  0  0  0  0  0  0  0  0
   67.9978   45.9098   52.5024 C   0  0  0  0  0  0  0  0  0  0  0  0
   67.8668   45.6314   53.8381 C   0  0  0  0  0  0  0  0  0  0  0  0
   68.4124   46.4717   54.8273 C   0  0  0  0  0  0  0  0  0  0  0  0
   69.0721   47.5695   54.3497 C   0  0  0  0  0  0  0  0  0  0  0  0
   69.3309   50.6509   53.1816 N   0  0  0  0  0  0  0  0  0  0  0  0
   70.0615   49.2782   52.4405 S   0  0  0  0  0  0  0  0  0  0  0  0
   71.4841   49.1917   52.9475 O   0  0  0  0  0  0  0  0  0  0  0  0
   70.0236   49.4035   50.9499 O   0  0  0  0  0  0  0  0  0  0  0  0
   69.3100   45.6984   56.9853 C   0  0  0  0  0  0  0  0  0  0  0  0
   70.0536   46.6816   57.6550 C   0  0  0  0  0  0  0  0  0  0  0  0
   71.1131   46.3686   58.4454 C   0  0  0  0  0  0  0  0  0  0  0  0
   71.5021   45.0541   58.6217 C   0  0  0  0  0  0  0  0  0  0  0  0
   70.7646   44.0887   57.9570 C   0  0  0  0  0  0  0  0  0  0  0  0
   69.7337   44.4470   57.1944 N   0  0  0  0  0  0  0  0  0  0  0  0
   71.1676   42.6968   58.1365 C   0  0  0  0  0  0  0  0  0  0  0  0
   72.2607   41.9764   58.0919 C   0  0  0  0  0  0  0  0  0  0  0  0
   71.5590   40.7560   58.4116 C   0  0  0  0  0  0  0  0  0  0  0  0
   70.4471   41.4538   58.4635 C   0  0  0  0  0  0  0  0  0  0  0  0
  8  9  1  0  0  0
  9 10  2  0  0  0
  9 11  2  0  0  0
  9  2  1  0  0  0
  2  3  2  0  0  0
  2  7  1  0  0  0
  3  4  1  0  0  0
  4  5  2  0  0  0
  5  6  1  0  0  0
  6  1  1  0  0  0
  6  7  2  0  0  0
  1 12  1  0  0  0
 12 13  2  0  0  0
 12 17  1  0  0  0
 13 14  1  0  0  0
 14 15  2  0  0  0
 15 16  1  0  0  0
 16 18  1  0  0  0
 16 17  2  0  0  0
 18 19  2  0  0  0
 18 21  1  0  0  0
 19 20  1  0  0  0
 20 21  2  0  0  0
M  END
> <minimizedAffinity>
-8.62045

$$$$
cs_R2_output_folder/data/smiles/49.pdb


 22 24  0  0  0  0  0  0  0  0999 V2000
   70.0734   49.5813   55.1248 C   0  0  0  0  0  0  0  0  0  0  0  0
   70.0189   49.1811   53.8125 N   0  0  0  0  0  0  0  0  0  0  0  0
   69.3347   48.1096   53.4105 C   0  0  0  0  0  0  0  0  0  0  0  0
   69.2938   47.7225   52.0721 C   0  0  0  0  0  0  0  0  0  0  0  0
   68.5888   46.6154   51.6510 C   0  0  0  0  0  0  0  0  0  0  0  0
   67.9207   45.9055   52.6249 C   0  0  0  0  0  0  0  0  0  0  0  0
   67.9435   46.2650   53.9510 C   0  0  0  0  0  0  0  0  0  0  0  0
   68.6611   47.3907   54.3727 C   0  0  0  0  0  0  0  0  0  0  0  0
   68.6880   47.7485   55.6624 N   0  0  0  0  0  0  0  0  0  0  0  0
   69.3937   48.8516   56.0593 C   0  0  0  0  0  0  0  0  0  0  0  0
   72.5008   52.9802   56.1296 C   0  0  0  0  0  0  0  0  0  0  0  0
   73.0016   51.6969   56.1402 C   0  0  0  0  0  0  0  0  0  0  0  0
   72.2013   50.6295   55.7940 C   0  0  0  0  0  0  0  0  0  0  0  0
   70.8666   50.7801   55.4199 C   0  0  0  0  0  0  0  0  0  0  0  0
   70.3729   52.0616   55.4116 C   0  0  0  0  0  0  0  0  0  0  0  0
   71.1840   53.1460   55.7622 C   0  0  0  0  0  0  0  0  0  0  0  0
   73.4248   54.2922   58.0167 C   0  0  0  0  0  0  0  0  0  0  0  0
   73.3323   54.1602   56.4962 C   0  0  0  0  0  0  0  0  0  0  0  0
   74.6459   53.9595   56.0568 O   0  0  0  0  0  0  0  0  0  0  0  0
   69.3328   49.2531   57.4435 C   0  0  0  0  0  0  0  0  0  0  0  0
   68.3679   49.8635   57.9080 O   0  0  0  0  0  0  0  0  0  0  0  0
   70.3727   48.9603   58.3104 O   0  0  0  0  0  0  0  0  0  0  0  0
 18 17  1  0  0  0
 18 19  1  0  0  0
 18 11  1  0  0  0
 11 12  2  0  0  0
 11 16  1  0  0  0
 12 13  1  0  0  0
 13 14  2  0  0  0
 14  1  1  0  0  0
 14 15  1  0  0  0
  1  2  2  0  0  0
  1 10  1  0  0  0
  2  3  1  0  0  0
  3  4  2  0  0  0
  3  8  1  0  0  0
  4  5  1  0  0  0
  5  6  2  0  0  0
  6  7  1  0  0  0
  7  8  2  0  0  0
  8  9  1  0  0  0
  9 10  2  0  0  0
 10 20  1  0  0  0
 20 21  2  0  0  0
 20 22  1  0  0  0
 15 16  2  0  0  0
M  END
> <minimizedAffinity>
-6.35766

$$$$
cs_R2_output_folder/data/smiles/50.pdb


 24 26  0  0  0  0  0  0  0  0999 V2000
   68.7838   45.6832   56.8217 O   0  0  0  0  0  0  0  0  0  0  0  0
   69.0958   46.7770   56.2520 C   0  0  0  0  0  0  0  0  0  0  0  0
   68.8944   46.8434   54.8264 C   0  0  0  0  0  0  0  0  0  0  0  0
   68.0512   45.9341   54.2006 C   0  0  0  0  0  0  0  0  0  0  0  0
   67.8127   45.9477   52.8358 C   0  0  0  0  0  0  0  0  0  0  0  0
   66.9460   44.9901   52.2962 O   0  0  0  0  0  0  0  0  0  0  0  0
   68.4258   46.8912   52.0633 C   0  0  0  0  0  0  0  0  0  0  0  0
   68.1694   46.8866   50.6833 O   0  0  0  0  0  0  0  0  0  0  0  0
   69.2694   47.8093   52.6579 C   0  0  0  0  0  0  0  0  0  0  0  0
   69.4998   47.7857   54.0167 C   0  0  0  0  0  0  0  0  0  0  0  0
   69.8864   48.7758   51.8104 N   0  0  0  0  0  0  0  0  0  0  0  0
   70.6150   48.3808   50.9021 O   0  0  0  0  0  0  0  0  0  0  0  0
   69.7071   50.1294   51.9590 O   0  0  0  0  0  0  0  0  0  0  0  0
   69.6237   47.8541   57.0878 C   0  0  0  0  0  0  0  0  0  0  0  0
   68.7527   49.0389   57.1891 C   0  0  0  0  0  0  0  0  0  0  0  0
   67.4871   48.9846   57.7280 C   0  0  0  0  0  0  0  0  0  0  0  0
   66.6362   50.0593   57.8437 C   0  0  0  0  0  0  0  0  0  0  0  0
   67.0729   51.2861   57.3891 C   0  0  0  0  0  0  0  0  0  0  0  0
   68.3335   51.3831   56.8420 C   0  0  0  0  0  0  0  0  0  0  0  0
   69.1714   50.3058   56.7331 C   0  0  0  0  0  0  0  0  0  0  0  0
   70.3732   50.3900   56.2227 C   0  0  0  0  0  0  0  0  0  0  0  0
   70.9497   51.6348   55.7055 C   0  0  0  0  0  0  0  0  0  0  0  0
   70.0571   52.7939   55.7997 C   0  0  0  0  0  0  0  0  0  0  0  0
   68.7472   52.5490   56.4021 C   0  0  0  0  0  0  0  0  0  0  0  0
  1  2  2  0  0  0
  2 14  1  0  0  0
  2  3  1  0  0  0
 14 15  1  0  0  0
 15 16  2  0  0  0
 15 20  1  0  0  0
 16 17  1  0  0  0
 17 18  2  0  0  0
 18 19  1  0  0  0
 19 20  1  0  0  0
 19 24  2  0  0  0
 20 21  2  0  0  0
 21 22  1  0  0  0
 22 23  1  0  0  0
 23 24  1  0  0  0
  3  4  2  0  0  0
  3 10  1  0  0  0
  4  5  1  0  0  0
  5  6  1  0  0  0
  5  7  2  0  0  0
  7  8  1  0  0  0
  7  9  1  0  0  0
  9 11  1  0  0  0
  9 10  2  0  0  0
 11 12  2  0  0  0
 11 13  1  0  0  0
M  CHG 1  11   1
M  CHG 1  13  -1
M  END
> <minimizedAffinity>
-9.72008

$$$$
cs_R2_output_folder/data/smiles/51.pdb


 26 27  0  0  0  0  0  0  0  0999 V2000
   69.6580   46.5017   58.1644 N   0  0  0  0  0  0  0  0  0  0  0  0
   68.6963   47.3646   54.1171 C   0  0  0  0  0  0  0  0  0  0  0  0
   68.5414   46.1081   54.6462 C   0  0  0  0  0  0  0  0  0  0  0  0
   68.8442   45.7997   55.9543 C   0  0  0  0  0  0  0  0  0  0  0  0
   69.3269   46.7784   56.7885 C   0  0  0  0  0  0  0  0  0  0  0  0
   69.4847   48.0440   56.2591 C   0  0  0  0  0  0  0  0  0  0  0  0
   69.1884   48.3763   54.9540 C   0  0  0  0  0  0  0  0  0  0  0  0
   69.3363   49.6568   54.3804 N   0  0  0  0  0  0  0  0  0  0  0  0
   70.3971   50.1453   53.6058 C   0  0  0  0  0  0  0  0  0  0  0  0
   70.3975   51.4994   53.0847 N   0  0  0  0  0  0  0  0  0  0  0  0
   71.3706   49.4048   53.3539 O   0  0  0  0  0  0  0  0  0  0  0  0
   69.0146   46.8796   51.7578 C   0  0  0  0  0  0  0  0  0  0  0  0
   68.3703   47.6164   52.7782 O   0  0  0  0  0  0  0  0  0  0  0  0
   71.2704   46.5023   58.6858 S   0  0  0  0  0  0  0  0  0  0  0  0
   72.0884   47.5926   58.0221 O   0  0  0  0  0  0  0  0  0  0  0  0
   71.3199   46.7807   60.1605 O   0  0  0  0  0  0  0  0  0  0  0  0
   72.1049   45.0045   58.4037 C   0  0  0  0  0  0  0  0  0  0  0  0
   73.4279   45.0101   58.4438 C   0  0  0  0  0  0  0  0  0  0  0  0
   74.1467   46.1302   58.6962 F   0  0  0  0  0  0  0  0  0  0  0  0
   74.1652   43.7693   58.2118 C   0  0  0  0  0  0  0  0  0  0  0  0
   75.4368   43.7751   58.2496 O   0  0  0  0  0  0  0  0  0  0  0  0
   73.5365   42.4684   57.9267 C   0  0  0  0  0  0  0  0  0  0  0  0
   72.0835   42.6133   57.9128 C   0  0  0  0  0  0  0  0  0  0  0  0
   71.3629   41.4676   57.6568 F   0  0  0  0  0  0  0  0  0  0  0  0
   71.4601   43.7511   58.1274 C   0  0  0  0  0  0  0  0  0  0  0  0
   70.1076   43.7279   58.0822 F   0  0  0  0  0  0  0  0  0  0  0  0
 12 13  1  0  0  0
 13  2  1  0  0  0
  2  3  2  0  0  0
  2  7  1  0  0  0
  3  4  1  0  0  0
  4  5  2  0  0  0
  5  1  1  0  0  0
  5  6  1  0  0  0
  1 14  1  0  0  0
 14 15  2  0  0  0
 14 16  2  0  0  0
 14 17  1  0  0  0
 17 18  2  0  0  0
 17 25  1  0  0  0
 18 19  1  0  0  0
 18 20  1  0  0  0
 20 21  2  0  0  0
 20 22  1  0  0  0
 22 23  1  0  0  0
 23 24  1  0  0  0
 23 25  2  0  0  0
 25 26  1  0  0  0
  6  7  2  0  0  0
  7  8  1  0  0  0
  8  9  1  0  0  0
  9 10  1  0  0  0
  9 11  2  0  0  0
M  END
> <minimizedAffinity>
-7.12654

$$$$
cs_R2_output_folder/data/smiles/52.pdb


 30 33  0  0  0  0  0  0  0  0999 V2000
   71.5219   46.8866   58.8261 C   0  0  0  0  0  0  0  0  0  0  0  0
   71.6023   45.5098   58.6967 C   0  0  0  0  0  0  0  0  0  0  0  0
   70.7060   44.8463   57.8711 C   0  0  0  0  0  0  0  0  0  0  0  0
   69.7483   45.5517   57.1875 C   0  0  0  0  0  0  0  0  0  0  0  0
   69.6793   46.9057   57.3236 C   0  0  0  0  0  0  0  0  0  0  0  0
   70.5541   47.5798   58.1352 C   0  0  0  0  0  0  0  0  0  0  0  0
   75.3344   49.6896   58.6877 C   0  0  0  0  0  0  0  0  0  0  0  0
   74.7918   49.1708   57.4010 C   0  0  0  0  0  0  0  0  0  0  0  0
   74.1454   47.8627   57.7601 C   0  0  0  0  0  0  0  0  0  0  0  0
   73.7004   48.0753   59.1130 N   0  0  0  0  0  0  0  0  0  0  0  0
   72.4644   47.6299   59.6590 C   0  0  0  0  0  0  0  0  0  0  0  0
   72.1894   47.8758   60.8503 O   0  0  0  0  0  0  0  0  0  0  0  0
   74.7596   48.8255   59.7690 C   0  0  0  0  0  0  0  0  0  0  0  0
   77.0772   49.7652   58.6186 S   0  0  0  0  0  0  0  0  0  0  0  0
   77.4431   51.2492   58.6509 O   0  0  0  0  0  0  0  0  0  0  0  0
   77.7408   49.1766   59.8297 O   0  0  0  0  0  0  0  0  0  0  0  0
   79.3252   49.2531   57.1258 C   0  0  0  0  0  0  0  0  0  0  0  0
   77.8251   49.0929   57.1960 C   0  0  0  0  0  0  0  0  0  0  0  0
   68.6891   47.6981   56.5394 C   0  0  0  0  0  0  0  0  0  0  0  0
   69.1972   47.9973   55.1782 C   0  0  0  0  0  0  0  0  0  0  0  0
   70.1270   48.9587   54.9981 N   0  0  0  0  0  0  0  0  0  0  0  0
   70.6513   49.2840   53.8354 N   0  0  0  0  0  0  0  0  0  0  0  0
   70.2782   48.6519   52.7095 C   0  0  0  0  0  0  0  0  0  0  0  0
   70.7863   48.9627   51.5827 O   0  0  0  0  0  0  0  0  0  0  0  0
   69.3335   47.6574   52.8127 C   0  0  0  0  0  0  0  0  0  0  0  0
   68.9450   46.9900   51.6801 C   0  0  0  0  0  0  0  0  0  0  0  0
   67.9955   45.9790   51.7878 C   0  0  0  0  0  0  0  0  0  0  0  0
   67.4593   45.6594   53.0156 C   0  0  0  0  0  0  0  0  0  0  0  0
   67.8436   46.3248   54.1638 C   0  0  0  0  0  0  0  0  0  0  0  0
   68.7780   47.3186   54.0613 C   0  0  0  0  0  0  0  0  0  0  0  0
 17 18  1  0  0  0
 18 14  1  0  0  0
 14 15  2  0  0  0
 14 16  2  0  0  0
  7 14  1  0  0  0
  7  8  1  0  0  0
  7 13  1  0  0  0
  8  9  1  0  0  0
  9 10  1  0  0  0
 10 11  1  0  0  0
 10 13  1  0  0  0
 11 12  2  0  0  0
 11  1  1  0  0  0
  1  2  2  0  0  0
  1  6  1  0  0  0
  2  3  1  0  0  0
  3  4  2  0  0  0
  4  5  1  0  0  0
  5 19  1  0  0  0
  5  6  2  0  0  0
 19 20  1  0  0  0
 20 21  2  0  0  0
 20 30  1  0  0  0
 21 22  1  0  0  0
 22 23  1  0  0  0
 23 24  2  0  0  0
 23 25  1  0  0  0
 25 26  1  0  0  0
 25 30  2  0  0  0
 26 27  2  0  0  0
 27 28  1  0  0  0
 28 29  2  0  0  0
 29 30  1  0  0  0
M  END
> <minimizedAffinity>
-8.93203

$$$$
cs_R2_output_folder/data/smiles/53.pdb


 20 22  0  0  0  0  0  0  0  0999 V2000
   66.6198   45.0075   50.7949 O   0  0  0  0  0  0  0  0  0  0  0  0
   67.3075   45.7798   51.5480 C   0  0  0  0  0  0  0  0  0  0  0  0
   68.1864   46.6249   51.0231 N   0  0  0  0  0  0  0  0  0  0  0  0
   68.9147   47.4427   51.8177 C   0  0  0  0  0  0  0  0  0  0  0  0
   69.7532   48.2413   51.2836 O   0  0  0  0  0  0  0  0  0  0  0  0
   68.7883   47.4469   53.1737 C   0  0  0  0  0  0  0  0  0  0  0  0
   69.5100   48.2593   54.0059 C   0  0  0  0  0  0  0  0  0  0  0  0
   69.2607   48.1297   55.3671 C   0  0  0  0  0  0  0  0  0  0  0  0
   68.3292   47.2232   55.8327 C   0  0  0  0  0  0  0  0  0  0  0  0
   68.0894   47.0902   57.0559 O   0  0  0  0  0  0  0  0  0  0  0  0
   67.6666   46.4708   54.9876 O   0  0  0  0  0  0  0  0  0  0  0  0
   67.8530   46.5431   53.7083 C   0  0  0  0  0  0  0  0  0  0  0  0
   67.1600   45.7573   52.8814 N   0  0  0  0  0  0  0  0  0  0  0  0
   70.4636   49.2545   53.4661 C   0  0  0  0  0  0  0  0  0  0  0  0
   70.5021   50.4339   54.3132 C   0  0  0  0  0  0  0  0  0  0  0  0
   69.5895   51.5596   54.2967 C   0  0  0  0  0  0  0  0  0  0  0  0
   68.3807   51.7057   55.0648 C   0  0  0  0  0  0  0  0  0  0  0  0
   68.3756   51.8714   56.5453 C   0  0  0  0  0  0  0  0  0  0  0  0
   67.3064   51.0930   57.2955 C   0  0  0  0  0  0  0  0  0  0  0  0
   68.7589   50.9475   57.5875 C   0  0  0  0  0  0  0  0  0  0  0  0
  1  2  2  0  0  0
  2  3  1  0  0  0
  2 13  1  0  0  0
  3  4  1  0  0  0
  4  5  2  0  0  0
  4  6  1  0  0  0
  6  7  1  0  0  0
  6 12  2  0  0  0
  7 14  1  0  0  0
  7  8  2  0  0  0
 14 15  1  0  0  0
 15 16  1  0  0  0
 16 17  1  0  0  0
 17 18  1  0  0  0
 18 19  1  0  0  0
 18 20  1  0  0  0
 19 20  1  0  0  0
  8  9  1  0  0  0
  9 10  2  0  0  0
  9 11  1  0  0  0
 11 12  1  0  0  0
 12 13  1  0  0  0
M  END
> <minimizedAffinity>
-9.18582

$$$$
cs_R2_output_folder/data/smiles/54.pdb


 29 32  0  0  0  0  0  0  0  0999 V2000
   70.9082   45.5293   57.9771 C   0  0  0  0  0  0  0  0  0  0  0  0
   71.8557   46.1630   58.7990 C   0  0  0  0  0  0  0  0  0  0  0  0
   71.9668   47.5142   58.8768 C   0  0  0  0  0  0  0  0  0  0  0  0
   71.1408   48.3205   58.1400 C   0  0  0  0  0  0  0  0  0  0  0  0
   70.1964   47.7695   57.3211 C   0  0  0  0  0  0  0  0  0  0  0  0
   70.1048   46.3632   57.2616 C   0  0  0  0  0  0  0  0  0  0  0  0
   69.3740   43.7277   59.6281 O   0  0  0  0  0  0  0  0  0  0  0  0
   70.0746   43.2527   58.7131 C   0  0  0  0  0  0  0  0  0  0  0  0
   70.8147   44.1412   57.9187 N   0  0  0  0  0  0  0  0  0  0  0  0
   70.0695   41.7963   58.5391 C   0  0  0  0  0  0  0  0  0  0  0  0
   68.9492   41.0510   58.2743 C   0  0  0  0  0  0  0  0  0  0  0  0
   68.9566   39.6758   58.1126 C   0  0  0  0  0  0  0  0  0  0  0  0
   67.8169   38.9799   57.8494 F   0  0  0  0  0  0  0  0  0  0  0  0
   70.1614   39.0087   58.2224 C   0  0  0  0  0  0  0  0  0  0  0  0
   71.3145   39.7144   58.4881 C   0  0  0  0  0  0  0  0  0  0  0  0
   72.4666   39.0101   58.5859 F   0  0  0  0  0  0  0  0  0  0  0  0
   71.2635   41.0845   58.6424 C   0  0  0  0  0  0  0  0  0  0  0  0
   69.2279   48.5401   56.4839 C   0  0  0  0  0  0  0  0  0  0  0  0
   69.5650   48.5513   55.0566 C   0  0  0  0  0  0  0  0  0  0  0  0
   70.6201   49.2914   54.5858 N   0  0  0  0  0  0  0  0  0  0  0  0
   70.9813   49.2910   53.3173 N   0  0  0  0  0  0  0  0  0  0  0  0
   70.3285   48.5512   52.3805 C   0  0  0  0  0  0  0  0  0  0  0  0
   70.7066   48.5733   51.1567 O   0  0  0  0  0  0  0  0  0  0  0  0
   69.2710   47.7928   52.7812 C   0  0  0  0  0  0  0  0  0  0  0  0
   68.9074   47.8134   54.1361 C   0  0  0  0  0  0  0  0  0  0  0  0
   67.7254   46.9974   54.4524 C   0  0  0  0  0  0  0  0  0  0  0  0
   67.8396   45.5888   53.9216 C   0  0  0  0  0  0  0  0  0  0  0  0
   68.2631   45.5569   52.4763 C   0  0  0  0  0  0  0  0  0  0  0  0
   68.4778   46.9322   51.8766 C   0  0  0  0  0  0  0  0  0  0  0  0
  7  8  2  0  0  0
  8  9  1  0  0  0
  8 10  1  0  0  0
  9  1  1  0  0  0
  1  2  2  0  0  0
  1  6  1  0  0  0
  2  3  1  0  0  0
  3  4  2  0  0  0
  4  5  1  0  0  0
  5 18  1  0  0  0
  5  6  2  0  0  0
 18 19  1  0  0  0
 19 20  2  0  0  0
 19 25  1  0  0  0
 20 21  1  0  0  0
 21 22  1  0  0  0
 22 23  2  0  0  0
 22 24  1  0  0  0
 24 25  2  0  0  0
 24 29  1  0  0  0
 25 26  1  0  0  0
 26 27  1  0  0  0
 27 28  1  0  0  0
 28 29  1  0  0  0
 10 11  2  0  0  0
 10 17  1  0  0  0
 11 12  1  0  0  0
 12 13  1  0  0  0
 12 14  2  0  0  0
 14 15  1  0  0  0
 15 16  1  0  0  0
 15 17  2  0  0  0
M  END
> <minimizedAffinity>
-9.38409

$$$$
cs_R2_output_folder/data/smiles/55.pdb


 25 27  0  0  0  0  0  0  0  0999 V2000
   70.2248   42.2498   58.2759 C   0  0  0  0  0  0  0  0  0  0  0  0
   69.0105   41.9291   57.4452 C   0  0  0  0  0  0  0  0  0  0  0  0
   68.3484   42.7526   56.5606 C   0  0  0  0  0  0  0  0  0  0  0  0
   67.3186   41.9824   56.0756 C   0  0  0  0  0  0  0  0  0  0  0  0
   67.3847   40.7674   56.6563 N   0  0  0  0  0  0  0  0  0  0  0  0
   68.4125   40.6990   57.5038 N   0  0  0  0  0  0  0  0  0  0  0  0
   68.8059   39.5936   58.2865 C   0  0  0  0  0  0  0  0  0  0  0  0
   67.9405   39.0615   59.2078 C   0  0  0  0  0  0  0  0  0  0  0  0
   68.3005   37.9776   59.9902 C   0  0  0  0  0  0  0  0  0  0  0  0
   69.5651   37.3954   59.8596 C   0  0  0  0  0  0  0  0  0  0  0  0
   70.0650   35.8985   60.9313 Br  0  0  0  0  0  0  0  0  0  0  0  0
   70.4395   37.9301   58.9304 C   0  0  0  0  0  0  0  0  0  0  0  0
   70.0447   39.0208   58.1605 C   0  0  0  0  0  0  0  0  0  0  0  0
   68.7197   44.1303   56.2500 C   0  0  0  0  0  0  0  0  0  0  0  0
   69.5073   44.8161   56.9203 O   0  0  0  0  0  0  0  0  0  0  0  0
   68.1711   44.8006   55.1003 N   0  0  0  0  0  0  0  0  0  0  0  0
   68.4771   46.1286   54.7260 C   0  0  0  0  0  0  0  0  0  0  0  0
   68.3150   47.1483   55.6468 C   0  0  0  0  0  0  0  0  0  0  0  0
   68.5947   48.4707   55.3331 C   0  0  0  0  0  0  0  0  0  0  0  0
   69.0506   48.8446   54.0891 C   0  0  0  0  0  0  0  0  0  0  0  0
   69.2140   47.8130   53.1603 C   0  0  0  0  0  0  0  0  0  0  0  0
   68.9275   46.5109   53.5015 C   0  0  0  0  0  0  0  0  0  0  0  0
   69.6967   48.1743   51.8277 C   0  0  0  0  0  0  0  0  0  0  0  0
   69.8481   49.5323   51.4295 N   0  0  0  0  0  0  0  0  0  0  0  0
   69.9844   47.2447   51.0189 O   0  0  0  0  0  0  0  0  0  0  0  0
  1  2  1  0  0  0
  2  3  2  0  0  0
  2  6  1  0  0  0
  3 14  1  0  0  0
  3  4  1  0  0  0
 14 15  2  0  0  0
 14 16  1  0  0  0
 16 17  1  0  0  0
 17 18  2  0  0  0
 17 22  1  0  0  0
 18 19  1  0  0  0
 19 20  2  0  0  0
 20 21  1  0  0  0
 21 23  1  0  0  0
 21 22  2  0  0  0
 23 24  1  0  0  0
 23 25  2  0  0  0
  4  5  2  0  0  0
  5  6  1  0  0  0
  6  7  1  0  0  0
  7  8  2  0  0  0
  7 13  1  0  0  0
  8  9  1  0  0  0
  9 10  2  0  0  0
 10 11  1  0  0  0
 10 12  1  0  0  0
 12 13  2  0  0  0
M  END
> <minimizedAffinity>
-8.74470

$$$$
cs_R2_output_folder/data/smiles/56.pdb


 28 29  0  0  0  0  0  0  0  0999 V2000
   72.1841   43.3224   58.2289 C   0  0  0  0  0  0  0  0  0  0  0  0
   73.0270   43.9210   57.5440 O   0  0  0  0  0  0  0  0  0  0  0  0
   71.1432   44.1161   58.7968 N   0  0  0  0  0  0  0  0  0  0  0  0
   72.2082   39.0696   58.9185 C   0  0  0  0  0  0  0  0  0  0  0  0
   73.3119   39.8397   59.1721 C   0  0  0  0  0  0  0  0  0  0  0  0
   73.3133   41.2244   58.9559 C   0  0  0  0  0  0  0  0  0  0  0  0
   72.2056   41.8688   58.4821 C   0  0  0  0  0  0  0  0  0  0  0  0
   71.0879   41.0898   58.2248 C   0  0  0  0  0  0  0  0  0  0  0  0
   71.0746   39.7334   58.4304 C   0  0  0  0  0  0  0  0  0  0  0  0
   72.1568   37.6119   59.2121 C   0  0  0  0  0  0  0  0  0  0  0  0
   71.0777   37.3445   60.2293 C   0  0  0  0  0  0  0  0  0  0  0  0
   73.4642   37.2087   59.8690 C   0  0  0  0  0  0  0  0  0  0  0  0
   73.1391   36.1224   57.4244 C   0  0  0  0  0  0  0  0  0  0  0  0
   71.9218   36.8154   57.9740 C   0  0  0  0  0  0  0  0  0  0  0  0
   70.9812   45.5038   58.6402 C   0  0  0  0  0  0  0  0  0  0  0  0
   72.0267   46.6546   59.0909 S   0  0  0  0  0  0  0  0  0  0  0  0
   69.7070   45.9438   58.0977 N   0  0  0  0  0  0  0  0  0  0  0  0
   69.5387   46.0335   56.7171 N   0  0  0  0  0  0  0  0  0  0  0  0
   68.5510   46.6974   55.9915 C   0  0  0  0  0  0  0  0  0  0  0  0
   67.6440   47.3268   56.5564 O   0  0  0  0  0  0  0  0  0  0  0  0
   68.5495   46.6697   54.5030 C   0  0  0  0  0  0  0  0  0  0  0  0
   67.8971   45.6944   53.8908 C   0  0  0  0  0  0  0  0  0  0  0  0
   67.7693   45.6292   52.4813 C   0  0  0  0  0  0  0  0  0  0  0  0
   68.3802   46.6586   51.7896 C   0  0  0  0  0  0  0  0  0  0  0  0
   69.0630   47.6820   52.3914 C   0  0  0  0  0  0  0  0  0  0  0  0
   69.1523   47.6863   53.7915 C   0  0  0  0  0  0  0  0  0  0  0  0
   69.6009   48.7000   51.6168 N   0  0  0  0  0  0  0  0  0  0  0  0
   70.0529   49.5173   50.9932 N   0  0  0  0  0  0  0  0  0  0  0  0
 13 14  1  0  0  0
 14 10  1  0  0  0
 10 11  1  0  0  0
 10 12  1  0  0  0
 10  4  1  0  0  0
  4  5  2  0  0  0
  4  9  1  0  0  0
  5  6  1  0  0  0
  6  7  2  0  0  0
  7  1  1  0  0  0
  7  8  1  0  0  0
  1  2  2  0  0  0
  1  3  1  0  0  0
  3 15  1  0  0  0
 15 16  2  0  0  0
 15 17  1  0  0  0
 17 18  1  0  0  0
 18 19  1  0  0  0
 19 20  2  0  0  0
 19 21  1  0  0  0
 21 22  2  0  0  0
 21 26  1  0  0  0
 22 23  1  0  0  0
 23 24  2  0  0  0
 24 25  1  0  0  0
 25 27  1  0  0  0
 25 26  2  0  0  0
 27 28  3  0  0  0
  8  9  2  0  0  0
M  CHG 1  27   1
M  END
> <minimizedAffinity>
-9.42414

$$$$
cs_R2_output_folder/data/smiles/57.pdb


 19 20  0  0  0  0  0  0  0  0999 V2000
   71.0715   49.5829   53.5599 O   0  0  0  0  0  0  0  0  0  0  0  0
   70.1434   48.6061   53.2190 C   0  0  0  0  0  0  0  0  0  0  0  0
   69.2637   48.0484   54.1233 C   0  0  0  0  0  0  0  0  0  0  0  0
   68.3502   47.0741   53.7488 C   0  0  0  0  0  0  0  0  0  0  0  0
   68.2861   46.6265   52.4606 C   0  0  0  0  0  0  0  0  0  0  0  0
   69.1544   47.1672   51.5357 C   0  0  0  0  0  0  0  0  0  0  0  0
   70.0727   48.1478   51.9188 C   0  0  0  0  0  0  0  0  0  0  0  0
   67.3575   45.6264   52.0418 N   0  0  0  0  0  0  0  0  0  0  0  0
   67.0968   44.6642   52.7700 O   0  0  0  0  0  0  0  0  0  0  0  0
   66.7172   45.6872   50.8279 O   0  0  0  0  0  0  0  0  0  0  0  0
   71.0891   51.8309   53.4277 O   0  0  0  0  0  0  0  0  0  0  0  0
   70.7200   50.8102   54.0891 C   0  0  0  0  0  0  0  0  0  0  0  0
   69.9753   50.9794   55.3197 C   0  0  0  0  0  0  0  0  0  0  0  0
   70.5723   50.6843   56.5229 C   0  0  0  0  0  0  0  0  0  0  0  0
   69.8310   50.8572   57.6937 C   0  0  0  0  0  0  0  0  0  0  0  0
   68.5325   51.3123   57.6469 C   0  0  0  0  0  0  0  0  0  0  0  0
   67.9301   51.6099   56.4409 C   0  0  0  0  0  0  0  0  0  0  0  0
   68.6789   51.4325   55.2931 C   0  0  0  0  0  0  0  0  0  0  0  0
   68.0945   51.7253   54.0643 O   0  0  0  0  0  0  0  0  0  0  0  0
 11 12  2  0  0  0
 12  1  1  0  0  0
 12 13  1  0  0  0
  1  2  1  0  0  0
  2  3  2  0  0  0
  2  7  1  0  0  0
  3  4  1  0  0  0
  4  5  2  0  0  0
  5  8  1  0  0  0
  5  6  1  0  0  0
  8  9  2  0  0  0
  8 10  1  0  0  0
  6  7  2  0  0  0
 13 14  2  0  0  0
 13 18  1  0  0  0
 14 15  1  0  0  0
 15 16  2  0  0  0
 16 17  1  0  0  0
 17 18  2  0  0  0
 18 19  1  0  0  0
M  CHG 1   8   1
M  CHG 1  10  -1
M  END
> <minimizedAffinity>
-7.27430

$$$$
cs_R2_output_folder/data/smiles/58.pdb


 24 25  0  0  0  0  0  0  0  0999 V2000
   69.8087   37.2669   60.5259 S   0  0  0  0  0  0  0  0  0  0  0  0
   70.6209   37.9651   61.6193 O   0  0  0  0  0  0  0  0  0  0  0  0
   69.2386   36.0281   61.2447 O   0  0  0  0  0  0  0  0  0  0  0  0
   72.6043   35.4566   57.4634 C   0  0  0  0  0  0  0  0  0  0  0  0
   72.3555   36.8126   57.4320 C   0  0  0  0  0  0  0  0  0  0  0  0
   71.5048   37.4290   58.3590 C   0  0  0  0  0  0  0  0  0  0  0  0
   70.8918   36.6973   59.3284 C   0  0  0  0  0  0  0  0  0  0  0  0
   71.1544   35.3538   59.3379 N   0  0  0  0  0  0  0  0  0  0  0  0
   71.9573   34.7612   58.4658 C   0  0  0  0  0  0  0  0  0  0  0  0
   73.2232   35.3705   55.0778 C   0  0  0  0  0  0  0  0  0  0  0  0
   73.5089   34.8115   56.4763 C   0  0  0  0  0  0  0  0  0  0  0  0
   74.9552   35.0759   56.7688 C   0  0  0  0  0  0  0  0  0  0  0  0
   73.2507   33.3207   56.3921 C   0  0  0  0  0  0  0  0  0  0  0  0
   68.4657   38.2390   60.0759 C   0  0  0  0  0  0  0  0  0  0  0  0
   68.6946   39.4507   59.2891 C   0  0  0  0  0  0  0  0  0  0  0  0
   69.5646   40.4520   59.7278 C   0  0  0  0  0  0  0  0  0  0  0  0
   69.7323   41.5925   59.0067 C   0  0  0  0  0  0  0  0  0  0  0  0
   69.0527   41.8034   57.8174 C   0  0  0  0  0  0  0  0  0  0  0  0
   69.2799   43.2751   56.8992 Cl  0  0  0  0  0  0  0  0  0  0  0  0
   68.1936   40.8140   57.3847 C   0  0  0  0  0  0  0  0  0  0  0  0
   68.0211   39.6565   58.1138 C   0  0  0  0  0  0  0  0  0  0  0  0
   67.4853   41.0062   56.1692 N   0  0  0  0  0  0  0  0  0  0  0  0
   67.5796   40.2456   55.1965 O   0  0  0  0  0  0  0  0  0  0  0  0
   66.6282   42.0939   56.0186 O   0  0  0  0  0  0  0  0  0  0  0  0
 10 11  1  0  0  0
 11 12  1  0  0  0
 11 13  1  0  0  0
 11  4  1  0  0  0
  4  5  2  0  0  0
  4  9  1  0  0  0
  5  6  1  0  0  0
  6  7  2  0  0  0
  7  1  1  0  0  0
  7  8  1  0  0  0
  1  2  2  0  0  0
  1  3  2  0  0  0
  1 14  1  0  0  0
 14 15  1  0  0  0
 15 16  2  0  0  0
 15 21  1  0  0  0
 16 17  1  0  0  0
 17 18  2  0  0  0
 18 19  1  0  0  0
 18 20  1  0  0  0
 20 22  1  0  0  0
 20 21  2  0  0  0
 22 23  2  0  0  0
 22 24  1  0  0  0
  8  9  2  0  0  0
M  CHG 1  22   1
M  CHG 1  24  -1
M  END
> <minimizedAffinity>
-7.34968

$$$$
cs_R2_output_folder/data/smiles/59.pdb


 24 26  0  0  0  0  0  0  0  0999 V2000
   67.8216   45.4589   54.8160 N   0  0  0  0  0  0  0  0  0  0  0  0
   69.6339   48.4531   53.4737 C   0  0  0  0  0  0  0  0  0  0  0  0
   69.6017   48.2272   52.1348 C   0  0  0  0  0  0  0  0  0  0  0  0
   68.9788   47.0875   51.6507 C   0  0  0  0  0  0  0  0  0  0  0  0
   68.3879   46.1736   52.5133 C   0  0  0  0  0  0  0  0  0  0  0  0
   68.4074   46.3824   53.8786 C   0  0  0  0  0  0  0  0  0  0  0  0
   69.0347   47.5263   54.3310 C   0  0  0  0  0  0  0  0  0  0  0  0
   71.4995   49.5999   56.4900 C   0  0  0  0  0  0  0  0  0  0  0  0
   70.2813   49.8745   55.7387 N   0  0  0  0  0  0  0  0  0  0  0  0
   70.3902   49.8612   54.2139 S   0  0  0  0  0  0  0  0  0  0  0  0
   69.7237   51.3013   53.4174 C   0  0  0  0  0  0  0  0  0  0  0  0
   71.8750   49.8623   53.8582 O   0  0  0  0  0  0  0  0  0  0  0  0
   68.5675   44.9502   55.8869 C   0  0  0  0  0  0  0  0  0  0  0  0
   68.5235   43.6172   56.1998 C   0  0  0  0  0  0  0  0  0  0  0  0
   69.2377   43.0769   57.2488 C   0  0  0  0  0  0  0  0  0  0  0  0
   70.0052   43.9415   57.9782 N   0  0  0  0  0  0  0  0  0  0  0  0
   70.0551   45.2430   57.6831 C   0  0  0  0  0  0  0  0  0  0  0  0
   69.3371   45.7514   56.6358 N   0  0  0  0  0  0  0  0  0  0  0  0
   69.2264   41.6774   57.5922 C   0  0  0  0  0  0  0  0  0  0  0  0
   68.1866   40.8434   57.3267 C   0  0  0  0  0  0  0  0  0  0  0  0
   68.2135   39.4870   57.6707 C   0  0  0  0  0  0  0  0  0  0  0  0
   69.3230   38.9453   58.3058 C   0  0  0  0  0  0  0  0  0  0  0  0
   70.3979   39.7866   58.5857 C   0  0  0  0  0  0  0  0  0  0  0  0
   70.3291   41.1047   58.2307 C   0  0  0  0  0  0  0  0  0  0  0  0
  8  9  1  0  0  0
  9 10  2  0  0  0
 10 11  1  0  0  0
 10 12  2  0  0  0
 10  2  1  0  0  0
  2  3  2  0  0  0
  2  7  1  0  0  0
  3  4  1  0  0  0
  4  5  2  0  0  0
  5  6  1  0  0  0
  6  1  1  0  0  0
  6  7  2  0  0  0
  1 13  1  0  0  0
 13 14  2  0  0  0
 13 18  1  0  0  0
 14 15  1  0  0  0
 15 19  1  0  0  0
 15 16  2  0  0  0
 19 20  2  0  0  0
 19 24  1  0  0  0
 20 21  1  0  0  0
 21 22  2  0  0  0
 22 23  1  0  0  0
 23 24  2  0  0  0
 16 17  1  0  0  0
 17 18  2  0  0  0
M  END
> <minimizedAffinity>
-8.35891

$$$$
cs_R2_output_folder/data/smiles/60.pdb


 32 35  0  0  0  0  0  0  0  0999 V2000
   71.6520   47.1685   59.0025 C   0  0  0  0  0  0  0  0  0  0  0  0
   71.7844   45.7881   58.7907 C   0  0  0  0  0  0  0  0  0  0  0  0
   70.9352   45.1026   57.9499 C   0  0  0  0  0  0  0  0  0  0  0  0
   69.9311   45.7875   57.3021 C   0  0  0  0  0  0  0  0  0  0  0  0
   69.7566   47.1855   57.4864 C   0  0  0  0  0  0  0  0  0  0  0  0
   70.6267   47.7978   58.3257 C   0  0  0  0  0  0  0  0  0  0  0  0
   76.4237   48.6511   58.6604 N   0  0  0  0  0  0  0  0  0  0  0  0
   76.1263   48.7258   60.0695 C   0  0  0  0  0  0  0  0  0  0  0  0
   74.6779   49.1142   60.2721 C   0  0  0  0  0  0  0  0  0  0  0  0
   73.7736   48.3837   59.3739 N   0  0  0  0  0  0  0  0  0  0  0  0
   72.5772   47.8620   59.8896 C   0  0  0  0  0  0  0  0  0  0  0  0
   72.2647   47.9764   61.1130 O   0  0  0  0  0  0  0  0  0  0  0  0
   74.2031   48.2425   58.0089 C   0  0  0  0  0  0  0  0  0  0  0  0
   75.6048   47.6209   58.1347 C   0  0  0  0  0  0  0  0  0  0  0  0
   78.6840   48.4267   58.0584 C   0  0  0  0  0  0  0  0  0  0  0  0
   77.4394   49.4625   57.9311 S   0  0  0  0  0  0  0  0  0  0  0  0
   76.5671   50.6263   57.6718 O   0  0  0  0  0  0  0  0  0  0  0  0
   76.2240   49.6998   58.4933 H   0  0  0  0  0  0  0  0  0  0  0  0
   78.4641   50.6719   58.8381 C   0  0  0  0  0  0  0  0  0  0  0  0
   79.5396   50.2738   59.1093 O   0  0  0  0  0  0  0  0  0  0  0  0
   68.6599   47.8269   56.7146 C   0  0  0  0  0  0  0  0  0  0  0  0
   69.1643   48.0988   55.3553 C   0  0  0  0  0  0  0  0  0  0  0  0
   70.1115   49.0893   55.2023 N   0  0  0  0  0  0  0  0  0  0  0  0
   70.6671   49.3553   54.0392 N   0  0  0  0  0  0  0  0  0  0  0  0
   70.3701   48.7041   52.9125 C   0  0  0  0  0  0  0  0  0  0  0  0
   70.8840   48.9332   51.7837 O   0  0  0  0  0  0  0  0  0  0  0  0
   69.4284   47.7004   52.9881 C   0  0  0  0  0  0  0  0  0  0  0  0
   69.0338   47.0002   51.8689 C   0  0  0  0  0  0  0  0  0  0  0  0
   68.0727   46.0260   51.9333 C   0  0  0  0  0  0  0  0  0  0  0  0
   67.4862   45.7356   53.1389 C   0  0  0  0  0  0  0  0  0  0  0  0
   67.8687   46.4278   54.2707 C   0  0  0  0  0  0  0  0  0  0  0  0
   68.8371   47.4109   54.2131 C   0  0  0  0  0  0  0  0  0  0  0  0
 15 16  1  0  0  0
 16 17  2  0  0  0
 16 19  1  0  0  0
 16  7  1  0  0  0
 16 18  1  0  0  0
 19 20  2  0  0  0
  7  8  1  0  0  0
  7 14  1  0  0  0
  8  9  1  0  0  0
  9 10  1  0  0  0
 10 11  1  0  0  0
 10 13  1  0  0  0
 11 12  2  0  0  0
 11  1  1  0  0  0
  1  2  2  0  0  0
  1  6  1  0  0  0
  2  3  1  0  0  0
  3  4  2  0  0  0
  4  5  1  0  0  0
  5 21  1  0  0  0
  5  6  2  0  0  0
 21 22  1  0  0  0
 22 23  2  0  0  0
 22 32  1  0  0  0
 23 24  1  0  0  0
 24 25  1  0  0  0
 25 26  2  0  0  0
 25 27  1  0  0  0
 27 28  1  0  0  0
 27 32  2  0  0  0
 28 29  2  0  0  0
 29 30  1  0  0  0
 30 31  2  0  0  0
 31 32  1  0  0  0
 13 14  1  0  0  0
M  END
> <minimizedAffinity>
-9.25661

$$$$
cs_R2_output_folder/data/smiles/61.pdb


 28 31  0  0  0  0  0  0  0  0999 V2000
   71.5440   47.0050   59.0608 C   0  0  0  0  0  0  0  0  0  0  0  0
   71.6716   48.3430   58.7808 C   0  0  0  0  0  0  0  0  0  0  0  0
   70.8062   48.9700   57.9072 C   0  0  0  0  0  0  0  0  0  0  0  0
   69.7919   48.2876   57.2874 C   0  0  0  0  0  0  0  0  0  0  0  0
   69.6935   46.9286   57.5972 C   0  0  0  0  0  0  0  0  0  0  0  0
   70.5476   46.3447   58.4502 N   0  0  0  0  0  0  0  0  0  0  0  0
   72.4274   46.3760   59.9505 N   0  0  0  0  0  0  0  0  0  0  0  0
   71.0142   44.0652   61.9495 O   0  0  0  0  0  0  0  0  0  0  0  0
   72.5187   44.4046   61.6130 S   0  0  0  0  0  0  0  0  0  0  0  0
   72.5914   44.9975   60.0889 C   0  0  0  0  0  0  0  0  0  0  0  0
   72.7784   44.0690   59.0265 C   0  0  0  0  0  0  0  0  0  0  0  0
   74.0584   43.9401   58.4698 C   0  0  0  0  0  0  0  0  0  0  0  0
   74.2323   43.0408   57.4441 C   0  0  0  0  0  0  0  0  0  0  0  0
   73.2645   42.2830   56.9448 N   0  0  0  0  0  0  0  0  0  0  0  0
   72.0294   42.4212   57.4968 C   0  0  0  0  0  0  0  0  0  0  0  0
   71.7638   43.2816   58.5104 C   0  0  0  0  0  0  0  0  0  0  0  0
   68.8225   48.8659   56.3306 C   0  0  0  0  0  0  0  0  0  0  0  0
   69.3045   48.7691   54.9327 C   0  0  0  0  0  0  0  0  0  0  0  0
   70.2182   49.6730   54.4666 N   0  0  0  0  0  0  0  0  0  0  0  0
   70.6905   49.6689   53.2437 N   0  0  0  0  0  0  0  0  0  0  0  0
   70.2500   48.7256   52.4141 C   0  0  0  0  0  0  0  0  0  0  0  0
   70.6798   48.6857   51.2279 O   0  0  0  0  0  0  0  0  0  0  0  0
   69.3170   47.7445   52.7734 C   0  0  0  0  0  0  0  0  0  0  0  0
   68.8511   47.7982   54.0805 C   0  0  0  0  0  0  0  0  0  0  0  0
   67.8721   46.8055   54.5688 C   0  0  0  0  0  0  0  0  0  0  0  0
   68.0398   45.5532   53.6926 C   0  0  0  0  0  0  0  0  0  0  0  0
   67.6593   46.0520   52.2899 C   0  0  0  0  0  0  0  0  0  0  0  0
   68.8975   46.7338   51.7719 C   0  0  0  0  0  0  0  0  0  0  0  0
  8  9  2  0  0  0
  9 10  2  0  0  0
 10  7  1  0  0  0
 10 11  1  0  0  0
  7  1  1  0  0  0
  1  2  2  0  0  0
  1  6  1  0  0  0
  2  3  1  0  0  0
  3  4  2  0  0  0
  4 17  1  0  0  0
  4  5  1  0  0  0
 17 18  1  0  0  0
 18 19  2  0  0  0
 18 24  1  0  0  0
 19 20  1  0  0  0
 20 21  1  0  0  0
 21 22  2  0  0  0
 21 23  1  0  0  0
 23 24  2  0  0  0
 23 28  1  0  0  0
 24 25  1  0  0  0
 25 26  1  0  0  0
 26 27  1  0  0  0
 27 28  1  0  0  0
  5  6  2  0  0  0
 11 12  2  0  0  0
 11 16  1  0  0  0
 12 13  1  0  0  0
 13 14  2  0  0  0
 14 15  1  0  0  0
 15 16  2  0  0  0
M  END
> <minimizedAffinity>
-8.59193

$$$$
cs_R2_output_folder/data/smiles/62.pdb


 30 32  0  0  0  0  0  0  0  0999 V2000
   69.2984   48.9306   57.0557 C   0  0  0  0  0  0  0  0  0  0  0  0
   68.8296   50.2105   57.3511 C   0  0  0  0  0  0  0  0  0  0  0  0
   69.7010   51.2241   57.6769 C   0  0  0  0  0  0  0  0  0  0  0  0
   71.0683   50.9607   57.7090 C   0  0  0  0  0  0  0  0  0  0  0  0
   71.9749   52.0756   58.0618 C   0  0  0  0  0  0  0  0  0  0  0  0
   71.5602   49.7059   57.4222 C   0  0  0  0  0  0  0  0  0  0  0  0
   70.6828   48.7032   57.0989 C   0  0  0  0  0  0  0  0  0  0  0  0
   68.1964   47.6594   56.6531 S   0  0  0  0  0  0  0  0  0  0  0  0
   66.9801   47.7966   57.5357 O   0  0  0  0  0  0  0  0  0  0  0  0
   68.8548   46.3610   57.1020 O   0  0  0  0  0  0  0  0  0  0  0  0
   67.7986   47.5096   55.0118 N   0  0  0  0  0  0  0  0  0  0  0  0
   67.7934   45.6397   52.9189 C   0  0  0  0  0  0  0  0  0  0  0  0
   68.6215   46.8621   52.8759 C   0  0  0  0  0  0  0  0  0  0  0  0
   69.4211   47.0947   51.7856 C   0  0  0  0  0  0  0  0  0  0  0  0
   70.2251   48.2065   51.6604 C   0  0  0  0  0  0  0  0  0  0  0  0
   70.2023   49.1083   52.6990 C   0  0  0  0  0  0  0  0  0  0  0  0
   69.4214   48.9242   53.8111 C   0  0  0  0  0  0  0  0  0  0  0  0
   68.6332   47.8034   53.8992 C   0  0  0  0  0  0  0  0  0  0  0  0
   72.9898   49.4662   57.4676 C   0  0  0  0  0  0  0  0  0  0  0  0
   73.5315   49.2637   58.5992 O   0  0  0  0  0  0  0  0  0  0  0  0
   73.8316   49.4408   56.3420 N   0  0  0  0  0  0  0  0  0  0  0  0
   75.2018   49.2181   56.3520 N   0  0  0  0  0  0  0  0  0  0  0  0
   76.0703   50.2485   55.9294 C   0  0  0  0  0  0  0  0  0  0  0  0
   75.5461   51.3546   55.5506 O   0  0  0  0  0  0  0  0  0  0  0  0
   77.5054   50.1400   55.8946 C   0  0  0  0  0  0  0  0  0  0  0  0
   78.3148   51.0995   56.4628 C   0  0  0  0  0  0  0  0  0  0  0  0
   79.6910   51.0099   56.4405 C   0  0  0  0  0  0  0  0  0  0  0  0
   80.3188   49.9425   55.8378 C   0  0  0  0  0  0  0  0  0  0  0  0
   79.5252   48.9734   55.2637 C   0  0  0  0  0  0  0  0  0  0  0  0
   78.1332   49.0758   55.2939 C   0  0  0  0  0  0  0  0  0  0  0  0
 12 13  1  0  0  0
 13 14  2  0  0  0
 13 18  1  0  0  0
 14 15  1  0  0  0
 15 16  2  0  0  0
 16 17  1  0  0  0
 17 18  2  0  0  0
 18 11  1  0  0  0
 11  8  1  0  0  0
  8  9  2  0  0  0
  8 10  2  0  0  0
  8  1  1  0  0  0
  1  2  2  0  0  0
  1  7  1  0  0  0
  2  3  1  0  0  0
  3  4  2  0  0  0
  4  5  1  0  0  0
  4  6  1  0  0  0
  6 19  1  0  0  0
  6  7  2  0  0  0
 19 20  2  0  0  0
 19 21  1  0  0  0
 21 22  1  0  0  0
 22 23  1  0  0  0
 23 24  2  0  0  0
 23 25  1  0  0  0
 25 26  2  0  0  0
 25 30  1  0  0  0
 26 27  1  0  0  0
 27 28  2  0  0  0
 28 29  1  0  0  0
 29 30  2  0  0  0
M  END
> <minimizedAffinity>
-9.19285

$$$$
cs_R2_output_folder/data/smiles/63.pdb


 22 24  0  0  0  0  0  0  0  0999 V2000
   71.2085   50.6852   55.8772 N   0  0  0  0  0  0  0  0  0  0  0  0
   71.2295   50.4121   54.4903 C   0  0  0  0  0  0  0  0  0  0  0  0
   72.2972   50.0460   53.9463 O   0  0  0  0  0  0  0  0  0  0  0  0
   72.3508   50.5712   56.7494 C   0  0  0  0  0  0  0  0  0  0  0  0
   71.7494   47.3231   59.5521 C   0  0  0  0  0  0  0  0  0  0  0  0
   72.7234   48.2660   59.7587 C   0  0  0  0  0  0  0  0  0  0  0  0
   72.9406   49.3237   58.8668 C   0  0  0  0  0  0  0  0  0  0  0  0
   72.1679   49.4493   57.7372 C   0  0  0  0  0  0  0  0  0  0  0  0
   71.1865   48.5081   57.5226 C   0  0  0  0  0  0  0  0  0  0  0  0
   70.9772   47.4566   58.4172 C   0  0  0  0  0  0  0  0  0  0  0  0
   72.5358   45.3689   60.8609 C   0  0  0  0  0  0  0  0  0  0  0  0
   71.5164   46.2507   60.4326 O   0  0  0  0  0  0  0  0  0  0  0  0
   70.0002   50.5553   53.6524 C   0  0  0  0  0  0  0  0  0  0  0  0
   69.6580   49.2743   52.9892 C   0  0  0  0  0  0  0  0  0  0  0  0
   69.8598   48.9908   51.6322 C   0  0  0  0  0  0  0  0  0  0  0  0
   69.4452   47.7413   51.3784 N   0  0  0  0  0  0  0  0  0  0  0  0
   68.9779   47.2086   52.5458 C   0  0  0  0  0  0  0  0  0  0  0  0
   68.4500   45.9663   52.8062 C   0  0  0  0  0  0  0  0  0  0  0  0
   68.0299   45.6317   54.0905 C   0  0  0  0  0  0  0  0  0  0  0  0
   68.1567   46.5668   55.0860 C   0  0  0  0  0  0  0  0  0  0  0  0
   68.6928   47.8227   54.8109 C   0  0  0  0  0  0  0  0  0  0  0  0
   69.1082   48.1566   53.5445 C   0  0  0  0  0  0  0  0  0  0  0  0
 11 12  1  0  0  0
 12  5  1  0  0  0
  5  6  2  0  0  0
  5 10  1  0  0  0
  6  7  1  0  0  0
  7  8  2  0  0  0
  8  4  1  0  0  0
  8  9  1  0  0  0
  4  1  1  0  0  0
  1  2  1  0  0  0
  2  3  2  0  0  0
  2 13  1  0  0  0
 13 14  1  0  0  0
 14 15  2  0  0  0
 14 22  1  0  0  0
 15 16  1  0  0  0
 16 17  1  0  0  0
 17 18  1  0  0  0
 17 22  2  0  0  0
 18 19  2  0  0  0
 19 20  1  0  0  0
 20 21  2  0  0  0
 21 22  1  0  0  0
  9 10  2  0  0  0
M  END
> <minimizedAffinity>
-7.42057

$$$$
cs_R2_output_folder/data/smiles/65.pdb


 25 27  0  0  0  0  0  0  0  0999 V2000
   69.8251   39.4307   58.7835 C   0  0  0  0  0  0  0  0  0  0  0  0
   70.4081   40.6915   58.8133 C   0  0  0  0  0  0  0  0  0  0  0  0
   69.9435   41.7580   58.0822 C   0  0  0  0  0  0  0  0  0  0  0  0
   68.8601   41.6166   57.2759 C   0  0  0  0  0  0  0  0  0  0  0  0
   68.2483   40.3834   57.2145 C   0  0  0  0  0  0  0  0  0  0  0  0
   68.7250   39.3047   57.9581 C   0  0  0  0  0  0  0  0  0  0  0  0
   67.1363   40.4549   56.3137 N   0  0  0  0  0  0  0  0  0  0  0  0
   67.0753   41.7987   55.8059 C   0  0  0  0  0  0  0  0  0  0  0  0
   66.2472   42.2754   54.9907 O   0  0  0  0  0  0  0  0  0  0  0  0
   68.1638   42.5595   56.4050 C   0  0  0  0  0  0  0  0  0  0  0  0
   68.4048   43.7957   56.1731 N   0  0  0  0  0  0  0  0  0  0  0  0
   70.1116   38.1965   60.8642 C   0  0  0  0  0  0  0  0  0  0  0  0
   70.3581   38.3341   59.5784 C   0  0  0  0  0  0  0  0  0  0  0  0
   71.2160   37.3335   58.8967 C   0  0  0  0  0  0  0  0  0  0  0  0
   67.6006   44.5229   55.2903 N   0  0  0  0  0  0  0  0  0  0  0  0
   68.1748   45.6699   54.6725 C   0  0  0  0  0  0  0  0  0  0  0  0
   68.7754   46.6744   55.4053 C   0  0  0  0  0  0  0  0  0  0  0  0
   69.3328   47.7866   54.8200 C   0  0  0  0  0  0  0  0  0  0  0  0
   69.3128   47.9437   53.4551 C   0  0  0  0  0  0  0  0  0  0  0  0
   68.7151   46.9508   52.6792 C   0  0  0  0  0  0  0  0  0  0  0  0
   68.1650   45.8477   53.2999 C   0  0  0  0  0  0  0  0  0  0  0  0
   70.0206   49.3606   52.6767 S   0  0  0  0  0  0  0  0  0  0  0  0
   69.2452   50.7994   53.2675 N   0  0  0  0  0  0  0  0  0  0  0  0
   69.9686   49.2627   51.1937 O   0  0  0  0  0  0  0  0  0  0  0  0
   71.4700   49.3966   53.1167 O   0  0  0  0  0  0  0  0  0  0  0  0
 12 13  2  0  0  0
 13 14  1  0  0  0
 13  1  1  0  0  0
  1  2  2  0  0  0
  1  6  1  0  0  0
  2  3  1  0  0  0
  3  4  2  0  0  0
  4  5  1  0  0  0
  4 10  1  0  0  0
  5  6  2  0  0  0
  5  7  1  0  0  0
  7  8  1  0  0  0
  8  9  2  0  0  0
  8 10  1  0  0  0
 10 11  2  0  0  0
 11 15  1  0  0  0
 15 16  1  0  0  0
 16 17  2  0  0  0
 16 21  1  0  0  0
 17 18  1  0  0  0
 18 19  2  0  0  0
 19 22  1  0  0  0
 19 20  1  0  0  0
 22 23  1  0  0  0
 22 24  2  0  0  0
 22 25  2  0  0  0
 20 21  2  0  0  0
M  END
> <minimizedAffinity>
-9.22497

$$$$
cs_R2_output_folder/data/smiles/66.pdb


 21 22  0  0  0  0  0  0  0  0999 V2000
   67.7898   43.9991   55.4428 N   0  0  0  0  0  0  0  0  0  0  0  0
   68.2371   45.3316   55.3882 C   0  0  0  0  0  0  0  0  0  0  0  0
   68.5315   45.9275   56.4398 O   0  0  0  0  0  0  0  0  0  0  0  0
   68.3566   46.0106   54.1157 C   0  0  0  0  0  0  0  0  0  0  0  0
   67.7936   45.4056   52.9848 C   0  0  0  0  0  0  0  0  0  0  0  0
   67.8647   45.9839   51.7455 C   0  0  0  0  0  0  0  0  0  0  0  0
   68.5092   47.2055   51.5927 C   0  0  0  0  0  0  0  0  0  0  0  0
   69.0792   47.8437   52.6714 C   0  0  0  0  0  0  0  0  0  0  0  0
   68.9752   47.2073   53.9033 C   0  0  0  0  0  0  0  0  0  0  0  0
   69.8919   49.3822   52.4852 S   0  0  0  0  0  0  0  0  0  0  0  0
   69.8751   49.7460   50.8312 O   0  0  0  0  0  0  0  0  0  0  0  0
   71.5233   49.1198   52.8853 O   0  0  0  0  0  0  0  0  0  0  0  0
   67.6591   43.3205   56.6020 O   0  0  0  0  0  0  0  0  0  0  0  0
   67.4821   41.9702   56.4572 C   0  0  0  0  0  0  0  0  0  0  0  0
   71.2150   38.6081   59.3476 C   0  0  0  0  0  0  0  0  0  0  0  0
   70.2637   39.4856   58.6038 C   0  0  0  0  0  0  0  0  0  0  0  0
   69.0443   39.0224   58.1532 C   0  0  0  0  0  0  0  0  0  0  0  0
   68.1495   39.8114   57.4652 C   0  0  0  0  0  0  0  0  0  0  0  0
   68.4523   41.1301   57.1956 C   0  0  0  0  0  0  0  0  0  0  0  0
   69.6692   41.6015   57.6428 C   0  0  0  0  0  0  0  0  0  0  0  0
   70.5598   40.8056   58.3317 C   0  0  0  0  0  0  0  0  0  0  0  0
 15 16  1  0  0  0
 16 17  2  0  0  0
 16 21  1  0  0  0
 17 18  1  0  0  0
 18 19  2  0  0  0
 19 14  1  0  0  0
 19 20  1  0  0  0
 14 13  1  0  0  0
 13  1  1  0  0  0
  1  2  1  0  0  0
  2  3  2  0  0  0
  2  4  1  0  0  0
  4  5  2  0  0  0
  4  9  1  0  0  0
  5  6  1  0  0  0
  6  7  2  0  0  0
  7  8  1  0  0  0
  8 10  1  0  0  0
  8  9  2  0  0  0
 10 11  1  0  0  0
 10 12  1  0  0  0
 20 21  2  0  0  0
M  CHG 1  10   1
M  CHG 1  11  -1
M  END
> <minimizedAffinity>
-8.94983

$$$$
cs_R2_output_folder/data/smiles/67.pdb


 23 26  0  0  0  0  0  0  0  0999 V2000
   69.9897   47.5940   57.4098 C   0  0  0  0  0  0  0  0  0  0  0  0
   69.5070   46.4329   57.9314 N   0  0  0  0  0  0  0  0  0  0  0  0
   68.8647   45.7381   57.0091 N   0  0  0  0  0  0  0  0  0  0  0  0
   68.8948   46.4067   55.8449 C   0  0  0  0  0  0  0  0  0  0  0  0
   68.4101   46.1871   54.5724 C   0  0  0  0  0  0  0  0  0  0  0  0
   68.6045   47.0899   53.5451 C   0  0  0  0  0  0  0  0  0  0  0  0
   69.3005   48.2539   53.7649 C   0  0  0  0  0  0  0  0  0  0  0  0
   69.7852   48.4709   55.0414 C   0  0  0  0  0  0  0  0  0  0  0  0
   69.5953   47.5692   56.0814 C   0  0  0  0  0  0  0  0  0  0  0  0
   69.5059   49.2082   52.6820 C   0  0  0  0  0  0  0  0  0  0  0  0
   69.7449   50.5256   52.7912 N   0  0  0  0  0  0  0  0  0  0  0  0
   69.8791   51.0731   51.5913 N   0  0  0  0  0  0  0  0  0  0  0  0
   69.7250   50.1019   50.6960 N   0  0  0  0  0  0  0  0  0  0  0  0
   69.4962   48.9635   51.3606 N   0  0  0  0  0  0  0  0  0  0  0  0
   70.7598   48.6471   58.0893 C   0  0  0  0  0  0  0  0  0  0  0  0
   69.9814   49.8430   58.5653 C   0  0  0  0  0  0  0  0  0  0  0  0
   67.1535   50.1494   57.8120 C   0  0  0  0  0  0  0  0  0  0  0  0
   68.2248   50.8741   57.1860 C   0  0  0  0  0  0  0  0  0  0  0  0
   67.8861   51.7644   56.1581 C   0  0  0  0  0  0  0  0  0  0  0  0
   68.8281   52.5339   55.5102 C   0  0  0  0  0  0  0  0  0  0  0  0
   70.1518   52.4111   55.8992 C   0  0  0  0  0  0  0  0  0  0  0  0
   70.4885   51.5366   56.9089 C   0  0  0  0  0  0  0  0  0  0  0  0
   69.5116   50.7569   57.5599 C   0  0  0  0  0  0  0  0  0  0  0  0
 17 18  1  0  0  0
 18 19  2  0  0  0
 18 23  1  0  0  0
 19 20  1  0  0  0
 20 21  2  0  0  0
 21 22  1  0  0  0
 22 23  2  0  0  0
 23 16  1  0  0  0
 16 15  1  0  0  0
 15  1  1  0  0  0
  1  2  2  0  0  0
  1  9  1  0  0  0
  2  3  1  0  0  0
  3  4  1  0  0  0
  4  5  1  0  0  0
  4  9  2  0  0  0
  5  6  2  0  0  0
  6  7  1  0  0  0
  7 10  1  0  0  0
  7  8  2  0  0  0
 10 11  2  0  0  0
 10 14  1  0  0  0
 11 12  1  0  0  0
 12 13  2  0  0  0
 13 14  1  0  0  0
  8  9  1  0  0  0
M  END
> <minimizedAffinity>
-7.92826

$$$$
cs_R2_output_folder/data/smiles/68.pdb


 26 28  0  0  0  0  0  0  0  0999 V2000
   72.1051   50.5850   55.5350 C   0  0  0  0  0  0  0  0  0  0  0  0
   73.2572   50.3386   55.1271 O   0  0  0  0  0  0  0  0  0  0  0  0
   71.5141   50.3022   56.8063 C   0  0  0  0  0  0  0  0  0  0  0  0
   72.0613   51.0415   57.7732 O   0  0  0  0  0  0  0  0  0  0  0  0
   70.5056   49.4199   57.2873 C   0  0  0  0  0  0  0  0  0  0  0  0
   70.8626   48.0363   57.4281 C   0  0  0  0  0  0  0  0  0  0  0  0
   69.8746   47.1329   57.6216 C   0  0  0  0  0  0  0  0  0  0  0  0
   70.2271   45.9192   57.7413 O   0  0  0  0  0  0  0  0  0  0  0  0
   68.5806   47.4271   57.6947 N   0  0  0  0  0  0  0  0  0  0  0  0
   68.2016   48.7177   57.5737 C   0  0  0  0  0  0  0  0  0  0  0  0
   66.8533   49.0319   57.7158 C   0  0  0  0  0  0  0  0  0  0  0  0
   66.4815   50.3525   57.6656 C   0  0  0  0  0  0  0  0  0  0  0  0
   67.4245   51.3281   57.4808 C   0  0  0  0  0  0  0  0  0  0  0  0
   68.7469   51.0310   57.3391 C   0  0  0  0  0  0  0  0  0  0  0  0
   69.1704   49.7021   57.3747 C   0  0  0  0  0  0  0  0  0  0  0  0
   71.2724   51.2909   54.4580 C   0  0  0  0  0  0  0  0  0  0  0  0
   69.1515   50.7897   53.6397 O   0  0  0  0  0  0  0  0  0  0  0  0
   70.2426   50.3201   53.9894 C   0  0  0  0  0  0  0  0  0  0  0  0
   70.4489   48.9343   53.9285 N   0  0  0  0  0  0  0  0  0  0  0  0
   69.5317   47.9809   53.4925 C   0  0  0  0  0  0  0  0  0  0  0  0
   68.6369   47.2694   54.2289 C   0  0  0  0  0  0  0  0  0  0  0  0
   67.7739   46.3118   53.7166 C   0  0  0  0  0  0  0  0  0  0  0  0
   67.8095   46.0479   52.3716 C   0  0  0  0  0  0  0  0  0  0  0  0
   68.6974   46.7365   51.5598 C   0  0  0  0  0  0  0  0  0  0  0  0
   69.5301   47.6741   52.1187 C   0  0  0  0  0  0  0  0  0  0  0  0
   70.3763   48.3137   51.2699 F   0  0  0  0  0  0  0  0  0  0  0  0
 17 18  2  0  0  0
 18 16  1  0  0  0
 18 19  1  0  0  0
 16  1  1  0  0  0
  1  2  2  0  0  0
  1  3  1  0  0  0
  3  4  2  0  0  0
  3  5  1  0  0  0
  5  6  2  0  0  0
  5 15  1  0  0  0
  6  7  1  0  0  0
  7  8  2  0  0  0
  7  9  1  0  0  0
  9 10  1  0  0  0
 10 11  1  0  0  0
 10 15  2  0  0  0
 11 12  2  0  0  0
 12 13  1  0  0  0
 13 14  2  0  0  0
 14 15  1  0  0  0
 19 20  1  0  0  0
 20 21  2  0  0  0
 20 25  1  0  0  0
 21 22  1  0  0  0
 22 23  2  0  0  0
 23 24  1  0  0  0
 24 25  2  0  0  0
 25 26  1  0  0  0
M  END
> <minimizedAffinity>
-8.12137

$$$$
cs_R2_output_folder/data/smiles/69.pdb


 24 25  0  0  0  0  0  0  0  0999 V2000
   67.8336   41.9237   57.5837 S   0  0  0  0  0  0  0  0  0  0  0  0
   67.2068   41.6629   56.2535 O   0  0  0  0  0  0  0  0  0  0  0  0
   68.6271   43.2132   57.4821 O   0  0  0  0  0  0  0  0  0  0  0  0
   68.9442   40.6400   57.9724 C   0  0  0  0  0  0  0  0  0  0  0  0
   68.5653   39.3266   58.1254 C   0  0  0  0  0  0  0  0  0  0  0  0
   69.5233   38.3917   58.4328 C   0  0  0  0  0  0  0  0  0  0  0  0
   70.8576   38.6771   58.6027 C   0  0  0  0  0  0  0  0  0  0  0  0
   71.2290   40.0005   58.4471 C   0  0  0  0  0  0  0  0  0  0  0  0
   70.2756   40.9528   58.1376 C   0  0  0  0  0  0  0  0  0  0  0  0
   71.8593   37.6303   58.9359 C   0  0  0  0  0  0  0  0  0  0  0  0
   72.2695   36.8570   57.6998 C   0  0  0  0  0  0  0  0  0  0  0  0
   73.0579   38.2259   59.6404 C   0  0  0  0  0  0  0  0  0  0  0  0
   71.2125   36.6504   59.8911 C   0  0  0  0  0  0  0  0  0  0  0  0
   66.6453   42.1509   58.7829 N   0  0  0  0  0  0  0  0  0  0  0  0
   67.9567   41.8601   62.2117 C   0  0  0  0  0  0  0  0  0  0  0  0
   67.1322   40.8933   62.7444 C   0  0  0  0  0  0  0  0  0  0  0  0
   66.1167   40.3136   61.9687 C   0  0  0  0  0  0  0  0  0  0  0  0
   65.9535   40.7254   60.6655 C   0  0  0  0  0  0  0  0  0  0  0  0
   66.7674   41.6893   60.1191 C   0  0  0  0  0  0  0  0  0  0  0  0
   67.7738   42.2496   60.9197 C   0  0  0  0  0  0  0  0  0  0  0  0
   68.9991   42.4415   63.0420 C   0  0  0  0  0  0  0  0  0  0  0  0
   69.4163   43.6024   62.8073 O   0  0  0  0  0  0  0  0  0  0  0  0
   70.8654   41.2473   64.1256 C   0  0  0  0  0  0  0  0  0  0  0  0
   69.5752   41.7731   64.1086 O   0  0  0  0  0  0  0  0  0  0  0  0
 23 24  1  0  0  0
 24 21  1  0  0  0
 21 22  2  0  0  0
 21 15  1  0  0  0
 15 16  2  0  0  0
 15 20  1  0  0  0
 16 17  1  0  0  0
 17 18  2  0  0  0
 18 19  1  0  0  0
 19 14  1  0  0  0
 19 20  2  0  0  0
 14  1  1  0  0  0
  1  2  2  0  0  0
  1  3  2  0  0  0
  1  4  1  0  0  0
  4  5  2  0  0  0
  4  9  1  0  0  0
  5  6  1  0  0  0
  6  7  2  0  0  0
  7 10  1  0  0  0
  7  8  1  0  0  0
 10 11  1  0  0  0
 10 12  1  0  0  0
 10 13  1  0  0  0
  8  9  2  0  0  0
M  END
> <minimizedAffinity>
-6.75936

$$$$
cs_R2_output_folder/data/smiles/70.pdb


 23 25  0  0  0  0  0  0  0  0999 V2000
   68.5734   45.0384   56.1448 N   0  0  0  0  0  0  0  0  0  0  0  0
   68.5912   43.6410   56.4978 C   0  0  0  0  0  0  0  0  0  0  0  0
   67.9088   42.9089   55.7380 O   0  0  0  0  0  0  0  0  0  0  0  0
   69.3429   43.1582   57.6383 C   0  0  0  0  0  0  0  0  0  0  0  0
   68.7056   42.6949   58.6179 O   0  0  0  0  0  0  0  0  0  0  0  0
   70.7963   43.1925   57.6883 C   0  0  0  0  0  0  0  0  0  0  0  0
   71.6733   42.1541   57.4526 C   0  0  0  0  0  0  0  0  0  0  0  0
   72.9530   42.5422   57.5869 N   0  0  0  0  0  0  0  0  0  0  0  0
   72.9101   43.8354   57.9095 C   0  0  0  0  0  0  0  0  0  0  0  0
   73.9839   44.6964   58.1558 C   0  0  0  0  0  0  0  0  0  0  0  0
   73.6747   45.9961   58.4733 C   0  0  0  0  0  0  0  0  0  0  0  0
   72.3664   46.4513   58.5506 C   0  0  0  0  0  0  0  0  0  0  0  0
   71.3136   45.5647   58.2977 C   0  0  0  0  0  0  0  0  0  0  0  0
   71.6087   44.2725   57.9824 C   0  0  0  0  0  0  0  0  0  0  0  0
   67.8513   45.5112   55.0487 N   0  0  0  0  0  0  0  0  0  0  0  0
   69.6390   48.0606   52.1725 C   0  0  0  0  0  0  0  0  0  0  0  0
   68.9823   46.9119   51.7810 C   0  0  0  0  0  0  0  0  0  0  0  0
   68.3959   46.0761   52.7236 C   0  0  0  0  0  0  0  0  0  0  0  0
   68.4457   46.3560   54.0726 C   0  0  0  0  0  0  0  0  0  0  0  0
   69.1075   47.5104   54.4370 C   0  0  0  0  0  0  0  0  0  0  0  0
   69.6953   48.3512   53.5185 C   0  0  0  0  0  0  0  0  0  0  0  0
   69.6386   49.9751   50.8711 O   0  0  0  0  0  0  0  0  0  0  0  0
   70.2469   48.9303   51.2167 N   0  0  0  0  0  0  0  0  0  0  0  0
 22 23  2  0  0  0
 23 16  1  0  0  0
 16 17  2  0  0  0
 16 21  1  0  0  0
 17 18  1  0  0  0
 18 19  2  0  0  0
 19 15  1  0  0  0
 19 20  1  0  0  0
 15  1  1  0  0  0
  1  2  1  0  0  0
  2  3  2  0  0  0
  2  4  1  0  0  0
  4  5  2  0  0  0
  4  6  1  0  0  0
  6  7  2  0  0  0
  6 14  1  0  0  0
  7  8  1  0  0  0
  8  9  1  0  0  0
  9 10  1  0  0  0
  9 14  2  0  0  0
 10 11  2  0  0  0
 11 12  1  0  0  0
 12 13  2  0  0  0
 13 14  1  0  0  0
 20 21  2  0  0  0
M  END
> <minimizedAffinity>
-8.68934

$$$$
cs_R2_output_folder/data/smiles/71.pdb


 27 28  0  0  0  0  0  0  0  0999 V2000
   70.5082   44.8222   58.2091 C   0  0  0  0  0  0  0  0  0  0  0  0
   71.7480   45.6295   59.0077 S   0  0  0  0  0  0  0  0  0  0  0  0
   69.5510   42.4732   58.2083 C   0  0  0  0  0  0  0  0  0  0  0  0
   68.3892   42.8159   57.9775 O   0  0  0  0  0  0  0  0  0  0  0  0
   70.5542   43.4557   58.3124 N   0  0  0  0  0  0  0  0  0  0  0  0
   70.8958   38.9844   58.7033 C   0  0  0  0  0  0  0  0  0  0  0  0
   69.6186   38.7642   58.4967 C   0  0  0  0  0  0  0  0  0  0  0  0
   68.9516   40.0373   58.2856 C   0  0  0  0  0  0  0  0  0  0  0  0
   69.8185   41.0247   58.3631 C   0  0  0  0  0  0  0  0  0  0  0  0
   71.1307   40.4320   58.6368 C   0  0  0  0  0  0  0  0  0  0  0  0
   71.3705   36.9105   59.9825 C   0  0  0  0  0  0  0  0  0  0  0  0
   71.9062   37.8997   58.9606 C   0  0  0  0  0  0  0  0  0  0  0  0
   72.1616   37.1187   57.6929 C   0  0  0  0  0  0  0  0  0  0  0  0
   73.1900   38.4544   59.4718 C   0  0  0  0  0  0  0  0  0  0  0  0
   69.5885   45.6342   57.5788 N   0  0  0  0  0  0  0  0  0  0  0  0
   69.4986   46.1100   56.2815 N   0  0  0  0  0  0  0  0  0  0  0  0
   68.5997   45.5725   55.3202 C   0  0  0  0  0  0  0  0  0  0  0  0
   67.8692   44.6239   55.7027 O   0  0  0  0  0  0  0  0  0  0  0  0
   68.5300   46.0968   53.9631 C   0  0  0  0  0  0  0  0  0  0  0  0
   67.7097   45.6121   52.9765 C   0  0  0  0  0  0  0  0  0  0  0  0
   67.6480   46.1125   51.6952 C   0  0  0  0  0  0  0  0  0  0  0  0
   68.4693   47.1751   51.3854 C   0  0  0  0  0  0  0  0  0  0  0  0
   69.3246   47.7142   52.3394 C   0  0  0  0  0  0  0  0  0  0  0  0
   69.3376   47.1678   53.5986 C   0  0  0  0  0  0  0  0  0  0  0  0
   70.1383   48.8028   51.9511 N   0  0  0  0  0  0  0  0  0  0  0  0
   71.2080   48.9936   52.5599 O   0  0  0  0  0  0  0  0  0  0  0  0
   69.7951   49.6506   50.9337 O   0  0  0  0  0  0  0  0  0  0  0  0
 11 12  1  0  0  0
 12 13  1  0  0  0
 12 14  1  0  0  0
 12  6  1  0  0  0
  6  7  2  0  0  0
  6 10  1  0  0  0
  7  8  1  0  0  0
  8  9  2  0  0  0
  9  3  1  0  0  0
  9 10  1  0  0  0
  3  4  2  0  0  0
  3  5  1  0  0  0
  5  1  1  0  0  0
  1  2  2  0  0  0
  1 15  1  0  0  0
 15 16  1  0  0  0
 16 17  1  0  0  0
 17 18  2  0  0  0
 17 19  1  0  0  0
 19 20  2  0  0  0
 19 24  1  0  0  0
 20 21  1  0  0  0
 21 22  2  0  0  0
 22 23  1  0  0  0
 23 25  1  0  0  0
 23 24  2  0  0  0
 25 26  2  0  0  0
 25 27  1  0  0  0
M  CHG 1  25   1
M  CHG 1  27  -1
M  END
> <minimizedAffinity>
-9.27491

$$$$
cs_R2_output_folder/data/smiles/72.pdb


 22 24  0  0  0  0  0  0  0  0999 V2000
   76.2188   34.6953   54.3096 O   0  0  0  0  0  0  0  0  0  0  0  0
   73.1829   35.6887   57.0479 C   0  0  0  0  0  0  0  0  0  0  0  0
   72.9515   35.6345   55.6969 C   0  0  0  0  0  0  0  0  0  0  0  0
   73.9774   35.2991   54.8279 C   0  0  0  0  0  0  0  0  0  0  0  0
   75.2661   35.0073   55.2704 C   0  0  0  0  0  0  0  0  0  0  0  0
   75.4960   35.0585   56.6075 C   0  0  0  0  0  0  0  0  0  0  0  0
   74.4800   35.3923   57.4800 C   0  0  0  0  0  0  0  0  0  0  0  0
   72.1307   36.0407   58.0270 C   0  0  0  0  0  0  0  0  0  0  0  0
   71.2597   38.2850   57.8147 O   0  0  0  0  0  0  0  0  0  0  0  0
   72.1016   37.5323   58.2865 C   0  0  0  0  0  0  0  0  0  0  0  0
   73.1111   38.0643   59.1266 O   0  0  0  0  0  0  0  0  0  0  0  0
   76.7189   35.6961   53.4448 C   0  0  0  0  0  0  0  0  0  0  0  0
   76.5639   35.2579   52.0068 C   0  0  0  0  0  0  0  0  0  0  0  0
   75.6038   34.3622   51.6053 C   0  0  0  0  0  0  0  0  0  0  0  0
   75.4836   33.9246   50.3012 C   0  0  0  0  0  0  0  0  0  0  0  0
   76.3679   34.4017   49.3277 C   0  0  0  0  0  0  0  0  0  0  0  0
   76.2738   33.9848   48.0199 C   0  0  0  0  0  0  0  0  0  0  0  0
   77.1749   34.4838   47.0613 C   0  0  0  0  0  0  0  0  0  0  0  0
   78.1146   35.3838   47.5141 C   0  0  0  0  0  0  0  0  0  0  0  0
   78.1996   35.7910   48.8234 C   0  0  0  0  0  0  0  0  0  0  0  0
   77.3091   35.2979   49.7845 C   0  0  0  0  0  0  0  0  0  0  0  0
   77.4035   35.7070   51.0641 N   0  0  0  0  0  0  0  0  0  0  0  0
  9 10  2  0  0  0
 10 11  1  0  0  0
 10  8  1  0  0  0
  8  2  1  0  0  0
  2  3  2  0  0  0
  2  7  1  0  0  0
  3  4  1  0  0  0
  4  5  2  0  0  0
  5  1  1  0  0  0
  5  6  1  0  0  0
  1 12  1  0  0  0
 12 13  1  0  0  0
 13 14  2  0  0  0
 13 22  1  0  0  0
 14 15  1  0  0  0
 15 16  2  0  0  0
 16 17  1  0  0  0
 16 21  1  0  0  0
 17 18  2  0  0  0
 18 19  1  0  0  0
 19 20  2  0  0  0
 20 21  1  0  0  0
 21 22  2  0  0  0
  6  7  2  0  0  0
M  END
> <minimizedAffinity>
-7.49759

$$$$
cs_R2_output_folder/data/smiles/73.pdb


 27 29  0  0  0  0  0  0  0  0999 V2000
   69.9997   41.5702   58.5209 C   0  0  0  0  0  0  0  0  0  0  0  0
   69.6378   41.6415   59.7216 O   0  0  0  0  0  0  0  0  0  0  0  0
   71.1120   40.8204   58.0878 N   0  0  0  0  0  0  0  0  0  0  0  0
   70.6161   44.4216   57.5160 C   0  0  0  0  0  0  0  0  0  0  0  0
   69.4838   43.5851   57.0791 C   0  0  0  0  0  0  0  0  0  0  0  0
   69.2048   42.3179   57.5234 C   0  0  0  0  0  0  0  0  0  0  0  0
   68.0670   41.9354   56.8479 C   0  0  0  0  0  0  0  0  0  0  0  0
   67.7081   42.9692   56.0339 N   0  0  0  0  0  0  0  0  0  0  0  0
   68.5546   43.9787   56.1590 N   0  0  0  0  0  0  0  0  0  0  0  0
   68.5449   45.2380   55.4945 C   0  0  0  0  0  0  0  0  0  0  0  0
   68.9507   46.4018   56.1073 C   0  0  0  0  0  0  0  0  0  0  0  0
   68.9454   47.6250   55.4728 C   0  0  0  0  0  0  0  0  0  0  0  0
   68.5129   47.6652   54.1704 C   0  0  0  0  0  0  0  0  0  0  0  0
   68.5213   48.8997   53.5762 F   0  0  0  0  0  0  0  0  0  0  0  0
   68.0971   46.5411   53.5083 C   0  0  0  0  0  0  0  0  0  0  0  0
   68.1204   45.3344   54.1870 C   0  0  0  0  0  0  0  0  0  0  0  0
   71.9269   40.0739   59.0082 C   0  0  0  0  0  0  0  0  0  0  0  0
   71.6051   38.6337   59.0628 C   0  0  0  0  0  0  0  0  0  0  0  0
   70.5793   38.1110   59.8177 C   0  0  0  0  0  0  0  0  0  0  0  0
   70.3278   36.7442   59.8377 C   0  0  0  0  0  0  0  0  0  0  0  0
   71.1148   35.8773   59.0884 C   0  0  0  0  0  0  0  0  0  0  0  0
   72.1492   36.3760   58.3227 C   0  0  0  0  0  0  0  0  0  0  0  0
   72.3624   37.7296   58.3323 C   0  0  0  0  0  0  0  0  0  0  0  0
   72.9806   35.4273   57.5288 C   0  0  0  0  0  0  0  0  0  0  0  0
   72.8861   35.7604   56.0427 C   0  0  0  0  0  0  0  0  0  0  0  0
   74.4335   35.5945   57.9684 C   0  0  0  0  0  0  0  0  0  0  0  0
   72.5448   34.1127   57.6751 O   0  0  0  0  0  0  0  0  0  0  0  0
  4  5  1  0  0  0
  5  6  2  0  0  0
  5  9  1  0  0  0
  6  1  1  0  0  0
  6  7  1  0  0  0
  1  2  2  0  0  0
  1  3  1  0  0  0
  3 17  1  0  0  0
 17 18  1  0  0  0
 18 19  2  0  0  0
 18 23  1  0  0  0
 19 20  1  0  0  0
 20 21  2  0  0  0
 21 22  1  0  0  0
 22 24  1  0  0  0
 22 23  2  0  0  0
 24 25  1  0  0  0
 24 26  1  0  0  0
 24 27  1  0  0  0
  7  8  2  0  0  0
  8  9  1  0  0  0
  9 10  1  0  0  0
 10 11  2  0  0  0
 10 16  1  0  0  0
 11 12  1  0  0  0
 12 13  2  0  0  0
 13 14  1  0  0  0
 13 15  1  0  0  0
 15 16  2  0  0  0
M  END
> <minimizedAffinity>
-8.08551

$$$$
cs_R2_output_folder/data/smiles/74.pdb


 23 26  0  0  0  0  0  0  0  0999 V2000
   70.2358   46.4323   57.7727 C   0  0  0  0  0  0  0  0  0  0  0  0
   71.2611   47.2792   58.1375 C   0  0  0  0  0  0  0  0  0  0  0  0
   72.5194   46.8238   58.4729 C   0  0  0  0  0  0  0  0  0  0  0  0
   72.8354   45.4864   58.4655 C   0  0  0  0  0  0  0  0  0  0  0  0
   71.8206   44.6281   58.1036 C   0  0  0  0  0  0  0  0  0  0  0  0
   70.5684   45.0643   57.7687 C   0  0  0  0  0  0  0  0  0  0  0  0
   71.9668   43.1381   58.0353 C   0  0  0  0  0  0  0  0  0  0  0  0
   73.2458   42.7986   57.3477 C   0  0  0  0  0  0  0  0  0  0  0  0
   74.4163   42.6811   58.2958 C   0  0  0  0  0  0  0  0  0  0  0  0
   74.9454   44.0138   58.6874 C   0  0  0  0  0  0  0  0  0  0  0  0
   76.1785   44.2987   58.9498 N   0  0  0  0  0  0  0  0  0  0  0  0
   76.2490   45.6587   59.2733 N   0  0  0  0  0  0  0  0  0  0  0  0
   74.9832   46.1032   59.4414 O   0  0  0  0  0  0  0  0  0  0  0  0
   74.1771   45.2022   58.8375 N   0  0  0  0  0  0  0  0  0  0  0  0
   68.9890   46.8078   57.4334 O   0  0  0  0  0  0  0  0  0  0  0  0
   68.3705   47.6230   56.5583 C   0  0  0  0  0  0  0  0  0  0  0  0
   67.5122   45.0306   52.5931 F   0  0  0  0  0  0  0  0  0  0  0  0
   68.1113   46.1058   53.1747 C   0  0  0  0  0  0  0  0  0  0  0  0
   68.8675   46.9370   52.3711 C   0  0  0  0  0  0  0  0  0  0  0  0
   69.4742   48.0247   52.9594 C   0  0  0  0  0  0  0  0  0  0  0  0
   69.2991   48.2313   54.3118 C   0  0  0  0  0  0  0  0  0  0  0  0
   68.5507   47.4116   55.1168 C   0  0  0  0  0  0  0  0  0  0  0  0
   67.9383   46.3130   54.5225 C   0  0  0  0  0  0  0  0  0  0  0  0
 17 18  1  0  0  0
 18 19  2  0  0  0
 18 23  1  0  0  0
 19 20  1  0  0  0
 20 21  2  0  0  0
 21 22  1  0  0  0
 22 16  1  0  0  0
 22 23  2  0  0  0
 16 15  1  0  0  0
 15  1  1  0  0  0
  1  2  2  0  0  0
  1  6  1  0  0  0
  2  3  1  0  0  0
  3  4  2  0  0  0
  4  5  1  0  0  0
  4 14  1  0  0  0
  5  6  2  0  0  0
  5  7  1  0  0  0
  7  8  1  0  0  0
  8  9  1  0  0  0
  9 10  1  0  0  0
 10 11  2  0  0  0
 10 14  1  0  0  0
 11 12  1  0  0  0
 12 13  1  0  0  0
 13 14  1  0  0  0
M  CHG 1  11   1
M  END
> <minimizedAffinity>
-7.31793

$$$$
cs_R2_output_folder/data/smiles/75.pdb


 27 28  0  0  0  0  0  0  0  0999 V2000
   70.0680   43.5148   56.9378 O   0  0  0  0  0  0  0  0  0  0  0  0
   68.9390   43.1689   57.3314 C   0  0  0  0  0  0  0  0  0  0  0  0
   68.7540   42.5400   58.5677 N   0  0  0  0  0  0  0  0  0  0  0  0
   67.8637   43.4621   56.4323 N   0  0  0  0  0  0  0  0  0  0  0  0
   68.0834   44.0903   55.2039 N   0  0  0  0  0  0  0  0  0  0  0  0
   68.2392   45.4979   55.1548 C   0  0  0  0  0  0  0  0  0  0  0  0
   68.1698   46.1150   56.2454 O   0  0  0  0  0  0  0  0  0  0  0  0
   68.4726   46.2418   53.9104 C   0  0  0  0  0  0  0  0  0  0  0  0
   67.9164   45.7770   52.7400 C   0  0  0  0  0  0  0  0  0  0  0  0
   68.1365   46.4753   51.5817 C   0  0  0  0  0  0  0  0  0  0  0  0
   68.8877   47.6242   51.5066 C   0  0  0  0  0  0  0  0  0  0  0  0
   69.4338   48.0645   52.6993 C   0  0  0  0  0  0  0  0  0  0  0  0
   69.2261   47.3808   53.8780 C   0  0  0  0  0  0  0  0  0  0  0  0
   70.2189   49.2506   52.6812 N   0  0  0  0  0  0  0  0  0  0  0  0
   69.7163   50.3011   52.2986 O   0  0  0  0  0  0  0  0  0  0  0  0
   71.5296   49.1703   53.0976 O   0  0  0  0  0  0  0  0  0  0  0  0
   69.8600   42.2685   59.4468 C   0  0  0  0  0  0  0  0  0  0  0  0
   70.4726   40.9437   59.1083 C   0  0  0  0  0  0  0  0  0  0  0  0
   69.6183   39.8414   58.9651 C   0  0  0  0  0  0  0  0  0  0  0  0
   70.1026   38.5961   58.6403 C   0  0  0  0  0  0  0  0  0  0  0  0
   71.4530   38.4071   58.4470 C   0  0  0  0  0  0  0  0  0  0  0  0
   72.2915   39.4869   58.5863 C   0  0  0  0  0  0  0  0  0  0  0  0
   71.8024   40.7289   58.9113 C   0  0  0  0  0  0  0  0  0  0  0  0
   72.0083   37.0553   58.0898 C   0  0  0  0  0  0  0  0  0  0  0  0
   72.1659   36.9095   56.7437 F   0  0  0  0  0  0  0  0  0  0  0  0
   73.1835   36.8914   58.8002 F   0  0  0  0  0  0  0  0  0  0  0  0
   71.1306   36.0939   58.5248 F   0  0  0  0  0  0  0  0  0  0  0  0
  1  2  2  0  0  0
  2  3  1  0  0  0
  2  4  1  0  0  0
  3 17  1  0  0  0
 17 18  1  0  0  0
 18 19  2  0  0  0
 18 23  1  0  0  0
 19 20  1  0  0  0
 20 21  2  0  0  0
 21 24  1  0  0  0
 21 22  1  0  0  0
 24 25  1  0  0  0
 24 26  1  0  0  0
 24 27  1  0  0  0
 22 23  2  0  0  0
  4  5  1  0  0  0
  5  6  1  0  0  0
  6  7  2  0  0  0
  6  8  1  0  0  0
  8  9  2  0  0  0
  8 13  1  0  0  0
  9 10  1  0  0  0
 10 11  2  0  0  0
 11 12  1  0  0  0
 12 14  1  0  0  0
 12 13  2  0  0  0
 14 15  2  0  0  0
 14 16  1  0  0  0
M  CHG 1  14   1
M  CHG 1  16  -1
M  END
> <minimizedAffinity>
-8.93161

$$$$
cs_R2_output_folder/data/smiles/76.pdb


 19 21  0  0  0  0  0  0  0  0999 V2000
   66.7790   45.2855   51.0461 N   0  0  0  0  0  0  0  0  0  0  0  0
   67.6712   46.0841   51.8096 C   0  0  0  0  0  0  0  0  0  0  0  0
   67.7524   46.0305   53.1833 C   0  0  0  0  0  0  0  0  0  0  0  0
   68.6209   46.8108   53.9126 C   0  0  0  0  0  0  0  0  0  0  0  0
   69.4392   47.6782   53.2222 C   0  0  0  0  0  0  0  0  0  0  0  0
   70.3871   48.5719   53.5668 N   0  0  0  0  0  0  0  0  0  0  0  0
   70.8608   49.1397   52.4781 N   0  0  0  0  0  0  0  0  0  0  0  0
   70.2434   48.6388   51.4230 N   0  0  0  0  0  0  0  0  0  0  0  0
   69.3520   47.7270   51.8330 C   0  0  0  0  0  0  0  0  0  0  0  0
   68.4812   46.9384   51.1777 N   0  0  0  0  0  0  0  0  0  0  0  0
   68.7495   46.7562   55.6936 S   0  0  0  0  0  0  0  0  0  0  0  0
   69.6677   48.2690   56.1792 C   0  0  0  0  0  0  0  0  0  0  0  0
   68.6299   49.2142   56.6843 C   0  0  0  0  0  0  0  0  0  0  0  0
   67.6150   48.8421   57.5397 C   0  0  0  0  0  0  0  0  0  0  0  0
   66.6821   49.7439   57.9823 C   0  0  0  0  0  0  0  0  0  0  0  0
   66.7383   51.0619   57.5747 C   0  0  0  0  0  0  0  0  0  0  0  0
   67.7455   51.4449   56.7215 C   0  0  0  0  0  0  0  0  0  0  0  0
   68.6764   50.5281   56.2852 C   0  0  0  0  0  0  0  0  0  0  0  0
   69.6724   50.9100   55.4413 F   0  0  0  0  0  0  0  0  0  0  0  0
  1  2  1  0  0  0
  2  3  2  0  0  0
  2 10  1  0  0  0
  3  4  1  0  0  0
  4 11  1  0  0  0
  4  5  2  0  0  0
 11 12  1  0  0  0
 12 13  1  0  0  0
 13 14  2  0  0  0
 13 18  1  0  0  0
 14 15  1  0  0  0
 15 16  2  0  0  0
 16 17  1  0  0  0
 17 18  2  0  0  0
 18 19  1  0  0  0
  5  6  1  0  0  0
  5  9  1  0  0  0
  6  7  2  0  0  0
  7  8  1  0  0  0
  8  9  1  0  0  0
  9 10  2  0  0  0
M  END
> <minimizedAffinity>
-8.83371

$$$$
cs_R2_output_folder/data/smiles/77.pdb


 19 21  0  0  0  0  0  0  0  0999 V2000
   70.2446   49.1580   51.4506 N   0  0  0  0  0  0  0  0  0  0  0  0
   69.4541   48.1055   51.9819 C   0  0  0  0  0  0  0  0  0  0  0  0
   69.3882   47.8511   53.3371 C   0  0  0  0  0  0  0  0  0  0  0  0
   68.6379   46.8446   53.8893 C   0  0  0  0  0  0  0  0  0  0  0  0
   67.9221   46.0619   52.9738 C   0  0  0  0  0  0  0  0  0  0  0  0
   67.1090   45.0188   53.1424 N   0  0  0  0  0  0  0  0  0  0  0  0
   66.6889   44.6429   51.9572 N   0  0  0  0  0  0  0  0  0  0  0  0
   67.1967   45.3999   50.9951 N   0  0  0  0  0  0  0  0  0  0  0  0
   67.9775   46.3012   51.6220 C   0  0  0  0  0  0  0  0  0  0  0  0
   68.7401   47.3165   51.1449 N   0  0  0  0  0  0  0  0  0  0  0  0
   68.5560   46.4964   55.6317 S   0  0  0  0  0  0  0  0  0  0  0  0
   69.4032   47.7915   56.5483 C   0  0  0  0  0  0  0  0  0  0  0  0
   68.5530   48.9593   56.8596 C   0  0  0  0  0  0  0  0  0  0  0  0
   67.4620   48.7818   57.6955 C   0  0  0  0  0  0  0  0  0  0  0  0
   66.6353   49.8526   57.9836 C   0  0  0  0  0  0  0  0  0  0  0  0
   66.8899   51.0875   57.4480 C   0  0  0  0  0  0  0  0  0  0  0  0
   67.9719   51.2989   56.6089 C   0  0  0  0  0  0  0  0  0  0  0  0
   68.7768   50.2155   56.3399 C   0  0  0  0  0  0  0  0  0  0  0  0
   69.8439   50.4237   55.5392 F   0  0  0  0  0  0  0  0  0  0  0  0
  1  2  1  0  0  0
  2  3  2  0  0  0
  2 10  1  0  0  0
  3  4  1  0  0  0
  4 11  1  0  0  0
  4  5  2  0  0  0
 11 12  1  0  0  0
 12 13  1  0  0  0
 13 14  2  0  0  0
 13 18  1  0  0  0
 14 15  1  0  0  0
 15 16  2  0  0  0
 16 17  1  0  0  0
 17 18  2  0  0  0
 18 19  1  0  0  0
  5  6  1  0  0  0
  5  9  1  0  0  0
  6  7  2  0  0  0
  7  8  1  0  0  0
  8  9  1  0  0  0
  9 10  2  0  0  0
M  END
> <minimizedAffinity>
-8.39777

$$$$
cs_R2_output_folder/data/smiles/78.pdb


 25 26  0  0  0  0  0  0  0  0999 V2000
   71.9906   36.2516   58.5135 C   0  0  0  0  0  0  0  0  0  0  0  0
   71.6304   34.8934   58.8292 C   0  0  0  0  0  0  0  0  0  0  0  0
   72.4178   33.8318   58.5721 C   0  0  0  0  0  0  0  0  0  0  0  0
   73.6996   33.9098   57.9901 C   0  0  0  0  0  0  0  0  0  0  0  0
   74.1425   35.1202   57.6847 C   0  0  0  0  0  0  0  0  0  0  0  0
   73.3370   36.2321   57.9290 C   0  0  0  0  0  0  0  0  0  0  0  0
   70.8387   38.3963   58.3820 C   0  0  0  0  0  0  0  0  0  0  0  0
   71.4495   37.2710   58.4452 C   0  0  0  0  0  0  0  0  0  0  0  0
   69.5905   40.7400   58.2097 C   0  0  0  0  0  0  0  0  0  0  0  0
   70.2061   39.5745   58.3066 C   0  0  0  0  0  0  0  0  0  0  0  0
   67.9843   41.8982   57.0000 C   0  0  0  0  0  0  0  0  0  0  0  0
   68.9413   41.9743   58.0903 C   0  0  0  0  0  0  0  0  0  0  0  0
   67.5501   40.3065   55.3473 O   0  0  0  0  0  0  0  0  0  0  0  0
   67.2099   41.7195   56.0601 C   0  0  0  0  0  0  0  0  0  0  0  0
   66.1273   42.0075   55.1695 N   0  0  0  0  0  0  0  0  0  0  0  0
   65.6564   41.2973   54.1320 O   0  0  0  0  0  0  0  0  0  0  0  0
   75.3484   35.4310   56.9540 N   0  0  0  0  0  0  0  0  0  0  0  0
   75.9735   34.4781   56.0434 C   0  0  0  0  0  0  0  0  0  0  0  0
   76.0246   35.1670   54.4158 S   0  0  0  0  0  0  0  0  0  0  0  0
   74.5077   35.0892   53.5543 C   0  0  0  0  0  0  0  0  0  0  0  0
   73.3624   35.5510   54.2747 C   0  0  0  0  0  0  0  0  0  0  0  0
   72.1414   35.5372   53.5653 C   0  0  0  0  0  0  0  0  0  0  0  0
   72.0084   35.1537   52.3025 C   0  0  0  0  0  0  0  0  0  0  0  0
   73.1112   34.7110   51.6257 C   0  0  0  0  0  0  0  0  0  0  0  0
   74.3807   34.6667   52.2400 C   0  0  0  0  0  0  0  0  0  0  0  0
 13 14  2  0  0  0
 14 11  1  0  0  0
 14 15  1  0  0  0
 11 12  2  0  0  0
 12  9  1  0  0  0
  9 10  3  0  0  0
 10  7  1  0  0  0
  7  8  3  0  0  0
  8  1  1  0  0  0
  1  2  2  0  0  0
  1  6  1  0  0  0
  2  3  1  0  0  0
  3  4  2  0  0  0
  4  5  1  0  0  0
  5 17  1  0  0  0
  5  6  2  0  0  0
 17 18  1  0  0  0
 18 19  1  0  0  0
 19 20  1  0  0  0
 20 21  2  0  0  0
 20 25  1  0  0  0
 21 22  1  0  0  0
 22 23  2  0  0  0
 23 24  1  0  0  0
 24 25  2  0  0  0
 15 16  1  0  0  0
M  END
> <minimizedAffinity>
-8.35223

$$$$
cs_R2_output_folder/data/smiles/79.pdb


 27 30  0  0  0  0  0  0  0  0999 V2000
   71.4861   47.0359   58.9930 C   0  0  0  0  0  0  0  0  0  0  0  0
   70.7007   47.9162   58.2371 C   0  0  0  0  0  0  0  0  0  0  0  0
   69.8564   47.4327   57.2825 C   0  0  0  0  0  0  0  0  0  0  0  0
   69.7998   46.0419   57.0863 C   0  0  0  0  0  0  0  0  0  0  0  0
   70.5715   45.1786   57.8297 C   0  0  0  0  0  0  0  0  0  0  0  0
   71.4110   45.6871   58.7805 C   0  0  0  0  0  0  0  0  0  0  0  0
   72.1820   44.8348   59.5227 F   0  0  0  0  0  0  0  0  0  0  0  0
   72.1665   47.6458   61.2173 O   0  0  0  0  0  0  0  0  0  0  0  0
   72.3573   47.6379   59.9776 C   0  0  0  0  0  0  0  0  0  0  0  0
   73.5505   48.2881   59.5052 N   0  0  0  0  0  0  0  0  0  0  0  0
   73.8724   48.3377   58.0805 C   0  0  0  0  0  0  0  0  0  0  0  0
   74.2802   49.7013   57.6425 C   0  0  0  0  0  0  0  0  0  0  0  0
   74.1917   50.7617   58.6749 C   0  0  0  0  0  0  0  0  0  0  0  0
   74.5399   50.3948   60.0546 C   0  0  0  0  0  0  0  0  0  0  0  0
   74.5004   48.9283   60.3730 C   0  0  0  0  0  0  0  0  0  0  0  0
   68.9818   48.2102   56.3893 C   0  0  0  0  0  0  0  0  0  0  0  0
   69.4131   48.2693   54.9847 C   0  0  0  0  0  0  0  0  0  0  0  0
   70.3751   49.1843   54.6328 N   0  0  0  0  0  0  0  0  0  0  0  0
   70.7870   49.3336   53.3814 N   0  0  0  0  0  0  0  0  0  0  0  0
   70.2890   48.6015   52.3816 C   0  0  0  0  0  0  0  0  0  0  0  0
   70.6624   48.7279   51.1984 O   0  0  0  0  0  0  0  0  0  0  0  0
   69.3074   47.6444   52.6433 C   0  0  0  0  0  0  0  0  0  0  0  0
   68.8033   46.8857   51.6287 C   0  0  0  0  0  0  0  0  0  0  0  0
   67.8409   45.9371   51.9196 C   0  0  0  0  0  0  0  0  0  0  0  0
   67.4277   45.7911   53.2140 C   0  0  0  0  0  0  0  0  0  0  0  0
   67.9347   46.5560   54.2394 C   0  0  0  0  0  0  0  0  0  0  0  0
   68.8958   47.5104   53.9667 C   0  0  0  0  0  0  0  0  0  0  0  0
  8  9  2  0  0  0
  9  1  1  0  0  0
  9 10  1  0  0  0
  1  2  2  0  0  0
  1  6  1  0  0  0
  2  3  1  0  0  0
  3 16  1  0  0  0
  3  4  2  0  0  0
 16 17  1  0  0  0
 17 18  2  0  0  0
 17 27  1  0  0  0
 18 19  1  0  0  0
 19 20  1  0  0  0
 20 21  2  0  0  0
 20 22  1  0  0  0
 22 23  1  0  0  0
 22 27  2  0  0  0
 23 24  2  0  0  0
 24 25  1  0  0  0
 25 26  2  0  0  0
 26 27  1  0  0  0
  4  5  1  0  0  0
  5  6  2  0  0  0
  6  7  1  0  0  0
 10 11  1  0  0  0
 10 15  1  0  0  0
 11 12  1  0  0  0
 12 13  1  0  0  0
 13 14  1  0  0  0
 14 15  1  0  0  0
M  END
> <minimizedAffinity>
-9.32821

$$$$
cs_R2_output_folder/data/smiles/80.pdb


 21 23  0  0  0  0  0  0  0  0999 V2000
   70.8877   50.0209   53.4310 C   0  0  0  0  0  0  0  0  0  0  0  0
   71.9068   49.8728   54.1368 O   0  0  0  0  0  0  0  0  0  0  0  0
   70.3194   48.9271   52.6648 C   0  0  0  0  0  0  0  0  0  0  0  0
   70.4766   48.6136   51.3750 N   0  0  0  0  0  0  0  0  0  0  0  0
   69.7835   47.5334   51.0595 N   0  0  0  0  0  0  0  0  0  0  0  0
   69.1272   47.0898   52.1714 C   0  0  0  0  0  0  0  0  0  0  0  0
   68.2794   46.0190   52.3979 C   0  0  0  0  0  0  0  0  0  0  0  0
   67.7471   45.8109   53.6670 C   0  0  0  0  0  0  0  0  0  0  0  0
   68.0637   46.6677   54.7004 C   0  0  0  0  0  0  0  0  0  0  0  0
   68.9142   47.7261   54.4355 C   0  0  0  0  0  0  0  0  0  0  0  0
   69.4620   47.9645   53.1866 C   0  0  0  0  0  0  0  0  0  0  0  0
   70.2815   51.2691   53.3793 O   0  0  0  0  0  0  0  0  0  0  0  0
   69.1077   51.5791   54.0797 C   0  0  0  0  0  0  0  0  0  0  0  0
   70.2473   52.3816   55.9579 O   0  0  0  0  0  0  0  0  0  0  0  0
   69.2646   51.6875   55.5251 C   0  0  0  0  0  0  0  0  0  0  0  0
   68.4010   51.0721   56.5089 C   0  0  0  0  0  0  0  0  0  0  0  0
   68.5389   49.9736   57.2893 C   0  0  0  0  0  0  0  0  0  0  0  0
   69.5048   49.0353   57.4667 F   0  0  0  0  0  0  0  0  0  0  0  0
   67.2285   50.1546   57.8783 C   0  0  0  0  0  0  0  0  0  0  0  0
   66.4523   49.5334   58.7970 F   0  0  0  0  0  0  0  0  0  0  0  0
   67.0849   51.2343   57.1131 C   0  0  0  0  0  0  0  0  0  0  0  0
 14 15  2  0  0  0
 15 13  1  0  0  0
 15 16  1  0  0  0
 13 12  1  0  0  0
 12  1  1  0  0  0
  1  2  2  0  0  0
  1  3  1  0  0  0
  3  4  1  0  0  0
  3 11  2  0  0  0
  4  5  1  0  0  0
  5  6  2  0  0  0
  6  7  1  0  0  0
  6 11  1  0  0  0
  7  8  2  0  0  0
  8  9  1  0  0  0
  9 10  2  0  0  0
 10 11  1  0  0  0
 16 17  2  0  0  0
 16 21  1  0  0  0
 17 18  1  0  0  0
 17 19  1  0  0  0
 19 20  1  0  0  0
 19 21  2  0  0  0
M  END
> <minimizedAffinity>
-8.01093

$$$$
cs_R2_output_folder/data/smiles/81.pdb


 28 31  0  0  0  0  0  0  0  0999 V2000
   73.9101   49.1774   57.6177 C   0  0  0  0  0  0  0  0  0  0  0  0
   73.9761   50.0653   56.5692 C   0  0  0  0  0  0  0  0  0  0  0  0
   72.8584   50.4187   55.8492 C   0  0  0  0  0  0  0  0  0  0  0  0
   71.5985   49.8801   56.1615 C   0  0  0  0  0  0  0  0  0  0  0  0
   71.5810   49.0014   57.2099 C   0  0  0  0  0  0  0  0  0  0  0  0
   72.7052   48.6640   57.9128 N   0  0  0  0  0  0  0  0  0  0  0  0
   75.0844   48.8083   58.3767 N   0  0  0  0  0  0  0  0  0  0  0  0
   74.7492   52.0691   59.1340 O   0  0  0  0  0  0  0  0  0  0  0  0
   75.2328   50.8279   59.9797 S   0  0  0  0  0  0  0  0  0  0  0  0
   75.9240   49.7491   58.9594 C   0  0  0  0  0  0  0  0  0  0  0  0
   77.3128   49.8493   58.6978 C   0  0  0  0  0  0  0  0  0  0  0  0
   78.2128   49.1532   59.4848 C   0  0  0  0  0  0  0  0  0  0  0  0
   79.5682   49.2316   59.2524 C   0  0  0  0  0  0  0  0  0  0  0  0
   80.0708   49.9749   58.2644 N   0  0  0  0  0  0  0  0  0  0  0  0
   79.2354   50.6708   57.4715 C   0  0  0  0  0  0  0  0  0  0  0  0
   77.8841   50.6094   57.6833 C   0  0  0  0  0  0  0  0  0  0  0  0
   70.4108   50.2686   55.3569 C   0  0  0  0  0  0  0  0  0  0  0  0
   70.2374   49.3644   54.1982 C   0  0  0  0  0  0  0  0  0  0  0  0
   70.9898   49.5585   53.1049 N   0  0  0  0  0  0  0  0  0  0  0  0
   70.8266   48.8041   52.0461 N   0  0  0  0  0  0  0  0  0  0  0  0
   69.9247   47.8128   51.9731 C   0  0  0  0  0  0  0  0  0  0  0  0
   69.7629   47.0847   50.9578 O   0  0  0  0  0  0  0  0  0  0  0  0
   69.1456   47.5991   53.0799 C   0  0  0  0  0  0  0  0  0  0  0  0
   69.3054   48.3887   54.2151 C   0  0  0  0  0  0  0  0  0  0  0  0
   68.4377   48.0316   55.3564 C   0  0  0  0  0  0  0  0  0  0  0  0
   68.5435   46.5062   55.5715 C   0  0  0  0  0  0  0  0  0  0  0  0
   68.2682   45.7242   54.3371 C   0  0  0  0  0  0  0  0  0  0  0  0
   68.1072   46.5498   53.1091 C   0  0  0  0  0  0  0  0  0  0  0  0
  8  9  2  0  0  0
  9 10  2  0  0  0
 10  7  1  0  0  0
 10 11  1  0  0  0
  7  1  1  0  0  0
  1  2  2  0  0  0
  1  6  1  0  0  0
  2  3  1  0  0  0
  3  4  2  0  0  0
  4 17  1  0  0  0
  4  5  1  0  0  0
 17 18  1  0  0  0
 18 19  2  0  0  0
 18 24  1  0  0  0
 19 20  1  0  0  0
 20 21  1  0  0  0
 21 22  2  0  0  0
 21 23  1  0  0  0
 23 24  2  0  0  0
 23 28  1  0  0  0
 24 25  1  0  0  0
 25 26  1  0  0  0
 26 27  1  0  0  0
 27 28  1  0  0  0
  5  6  2  0  0  0
 11 12  2  0  0  0
 11 16  1  0  0  0
 12 13  1  0  0  0
 13 14  2  0  0  0
 14 15  1  0  0  0
 15 16  2  0  0  0
M  END
> <minimizedAffinity>
-8.33351

$$$$
cs_R2_output_folder/data/smiles/82.pdb


 22 24  0  0  0  0  0  0  0  0999 V2000
   69.0312   46.9940   56.8107 C   0  0  0  0  0  0  0  0  0  0  0  0
   69.6721   46.1760   57.6974 N   0  0  0  0  0  0  0  0  0  0  0  0
   69.6632   44.9438   57.2917 N   0  0  0  0  0  0  0  0  0  0  0  0
   69.0092   44.9243   56.1187 C   0  0  0  0  0  0  0  0  0  0  0  0
   68.5975   46.2273   55.7952 C   0  0  0  0  0  0  0  0  0  0  0  0
   68.5931   51.2457   57.3137 C   0  0  0  0  0  0  0  0  0  0  0  0
   69.7922   50.6908   56.9287 C   0  0  0  0  0  0  0  0  0  0  0  0
   69.9459   49.3272   56.7760 C   0  0  0  0  0  0  0  0  0  0  0  0
   68.9260   48.4257   56.9939 C   0  0  0  0  0  0  0  0  0  0  0  0
   67.7090   49.0102   57.3842 C   0  0  0  0  0  0  0  0  0  0  0  0
   66.6540   48.1367   57.6135 O   0  0  0  0  0  0  0  0  0  0  0  0
   67.5553   50.3668   57.5364 C   0  0  0  0  0  0  0  0  0  0  0  0
   66.3615   50.9169   57.9198 F   0  0  0  0  0  0  0  0  0  0  0  0
   69.0739   53.4946   56.6904 O   0  0  0  0  0  0  0  0  0  0  0  0
   68.4280   52.6244   57.4701 O   0  0  0  0  0  0  0  0  0  0  0  0
   67.8805   46.5630   54.5705 C   0  0  0  0  0  0  0  0  0  0  0  0
   68.6731   47.2497   53.5322 C   0  0  0  0  0  0  0  0  0  0  0  0
   69.1110   46.6303   52.3865 C   0  0  0  0  0  0  0  0  0  0  0  0
   69.8596   47.3120   51.4242 C   0  0  0  0  0  0  0  0  0  0  0  0
   70.1875   48.6403   51.5925 C   0  0  0  0  0  0  0  0  0  0  0  0
   69.7497   49.2647   52.7416 C   0  0  0  0  0  0  0  0  0  0  0  0
   69.0055   48.5838   53.6966 C   0  0  0  0  0  0  0  0  0  0  0  0
 14 15  1  0  0  0
 15  6  1  0  0  0
  6  7  2  0  0  0
  6 12  1  0  0  0
  7  8  1  0  0  0
  8  9  2  0  0  0
  9  1  1  0  0  0
  9 10  1  0  0  0
  1  2  2  0  0  0
  1  5  1  0  0  0
  2  3  1  0  0  0
  3  4  1  0  0  0
  4  5  2  0  0  0
  5 16  1  0  0  0
 16 17  1  0  0  0
 17 18  2  0  0  0
 17 22  1  0  0  0
 18 19  1  0  0  0
 19 20  2  0  0  0
 20 21  1  0  0  0
 21 22  2  0  0  0
 10 11  1  0  0  0
 10 12  2  0  0  0
 12 13  1  0  0  0
M  END
> <minimizedAffinity>
-8.29634

$$$$
cs_R2_output_folder/data/smiles/83.pdb


 23 25  0  0  0  0  0  0  0  0999 V2000
   70.1388   38.8300   58.8833 C   0  0  0  0  0  0  0  0  0  0  0  0
   69.5360   38.5161   60.0429 N   0  0  0  0  0  0  0  0  0  0  0  0
   69.7023   37.3128   60.6096 C   0  0  0  0  0  0  0  0  0  0  0  0
   70.5137   36.3593   59.9949 C   0  0  0  0  0  0  0  0  0  0  0  0
   71.1358   36.6695   58.8092 C   0  0  0  0  0  0  0  0  0  0  0  0
   70.9087   37.9038   58.3157 N   0  0  0  0  0  0  0  0  0  0  0  0
   68.5572   41.6694   57.0372 C   0  0  0  0  0  0  0  0  0  0  0  0
   69.5536   42.6306   57.1568 C   0  0  0  0  0  0  0  0  0  0  0  0
   70.7204   42.3532   57.8276 C   0  0  0  0  0  0  0  0  0  0  0  0
   70.9338   41.1050   58.4048 C   0  0  0  0  0  0  0  0  0  0  0  0
   69.9394   40.1604   58.2816 C   0  0  0  0  0  0  0  0  0  0  0  0
   68.7655   40.4266   57.6108 C   0  0  0  0  0  0  0  0  0  0  0  0
   67.1181   42.1003   56.1760 S   0  0  0  0  0  0  0  0  0  0  0  0
   67.2446   43.4142   55.4518 O   0  0  0  0  0  0  0  0  0  0  0  0
   65.9672   42.1882   57.1673 O   0  0  0  0  0  0  0  0  0  0  0  0
   65.6371   41.4527   54.1865 C   0  0  0  0  0  0  0  0  0  0  0  0
   66.7199   40.9004   54.9827 N   0  0  0  0  0  0  0  0  0  0  0  0
   71.9948   35.7122   58.1226 C   0  0  0  0  0  0  0  0  0  0  0  0
   72.1874   34.4165   58.5200 C   0  0  0  0  0  0  0  0  0  0  0  0
   73.0293   33.5483   57.8122 C   0  0  0  0  0  0  0  0  0  0  0  0
   73.7011   33.9646   56.6841 C   0  0  0  0  0  0  0  0  0  0  0  0
   73.5146   35.2695   56.2746 C   0  0  0  0  0  0  0  0  0  0  0  0
   72.6829   36.1190   56.9779 C   0  0  0  0  0  0  0  0  0  0  0  0
 16 17  1  0  0  0
 17 13  1  0  0  0
 13 14  2  0  0  0
 13 15  2  0  0  0
 13  7  1  0  0  0
  7  8  2  0  0  0
  7 12  1  0  0  0
  8  9  1  0  0  0
  9 10  2  0  0  0
 10 11  1  0  0  0
 11  1  1  0  0  0
 11 12  2  0  0  0
  1  2  2  0  0  0
  1  6  1  0  0  0
  2  3  1  0  0  0
  3  4  2  0  0  0
  4  5  1  0  0  0
  5 18  1  0  0  0
  5  6  2  0  0  0
 18 19  2  0  0  0
 18 23  1  0  0  0
 19 20  1  0  0  0
 20 21  2  0  0  0
 21 22  1  0  0  0
 22 23  2  0  0  0
M  END
> <minimizedAffinity>
-7.37916

$$$$
cs_R2_output_folder/data/smiles/84.pdb


 26 29  0  0  0  0  0  0  0  0999 V2000
   71.0839   46.0073   58.2807 C   0  0  0  0  0  0  0  0  0  0  0  0
   70.1398   46.7590   57.5601 C   0  0  0  0  0  0  0  0  0  0  0  0
   70.3949   48.0464   57.1833 C   0  0  0  0  0  0  0  0  0  0  0  0
   71.6343   48.6037   57.5374 C   0  0  0  0  0  0  0  0  0  0  0  0
   72.5682   47.9007   58.2332 C   0  0  0  0  0  0  0  0  0  0  0  0
   72.2854   46.5909   58.6052 C   0  0  0  0  0  0  0  0  0  0  0  0
   73.2650   45.9412   59.2790 F   0  0  0  0  0  0  0  0  0  0  0  0
   70.4654   44.4718   59.9039 O   0  0  0  0  0  0  0  0  0  0  0  0
   70.7793   44.6687   58.6768 C   0  0  0  0  0  0  0  0  0  0  0  0
   70.7893   43.4851   57.8236 C   0  0  0  0  0  0  0  0  0  0  0  0
   72.0452   42.6755   57.9096 C   0  0  0  0  0  0  0  0  0  0  0  0
   71.5056   41.2661   58.1774 C   0  0  0  0  0  0  0  0  0  0  0  0
   70.2030   41.3044   57.6661 O   0  0  0  0  0  0  0  0  0  0  0  0
   69.7126   42.4907   58.2013 C   0  0  0  0  0  0  0  0  0  0  0  0
   69.4123   48.8736   56.4197 C   0  0  0  0  0  0  0  0  0  0  0  0
   69.7002   48.6844   54.9606 C   0  0  0  0  0  0  0  0  0  0  0  0
   70.7470   49.3829   54.4133 N   0  0  0  0  0  0  0  0  0  0  0  0
   71.0831   49.3137   53.1451 N   0  0  0  0  0  0  0  0  0  0  0  0
   70.4018   48.5324   52.2852 C   0  0  0  0  0  0  0  0  0  0  0  0
   70.6895   48.4390   51.0690 O   0  0  0  0  0  0  0  0  0  0  0  0
   69.3541   47.8186   52.7811 C   0  0  0  0  0  0  0  0  0  0  0  0
   68.9893   47.8835   54.1195 C   0  0  0  0  0  0  0  0  0  0  0  0
   67.8682   47.0862   54.6109 C   0  0  0  0  0  0  0  0  0  0  0  0
   67.6253   45.7968   53.8676 C   0  0  0  0  0  0  0  0  0  0  0  0
   68.4608   45.6048   52.6503 C   0  0  0  0  0  0  0  0  0  0  0  0
   68.5260   46.9094   51.9079 C   0  0  0  0  0  0  0  0  0  0  0  0
  8  9  2  0  0  0
  9  1  1  0  0  0
 10  9  1  0  0  0
  1  2  2  0  0  0
  1  6  1  0  0  0
  2  3  1  0  0  0
  3 15  1  0  0  0
  3  4  2  0  0  0
 15 16  1  0  0  0
 16 17  2  0  0  0
 16 22  1  0  0  0
 17 18  1  0  0  0
 18 19  1  0  0  0
 19 20  2  0  0  0
 19 21  1  0  0  0
 21 22  2  0  0  0
 21 26  1  0  0  0
 22 23  1  0  0  0
 23 24  1  0  0  0
 24 25  1  0  0  0
 25 26  1  0  0  0
  4  5  1  0  0  0
  5  6  2  0  0  0
  6  7  1  0  0  0
 10 11  1  0  0  0
 10 14  1  0  0  0
 11 12  1  0  0  0
 12 13  1  0  0  0
 13 14  1  0  0  0
M  END
> <minimizedAffinity>
-7.89112

$$$$
cs_R2_output_folder/data/smiles/85.pdb


 21 22  0  0  0  0  0  0  0  0999 V2000
   68.8081   46.8840   53.0527 C   0  0  0  0  0  0  0  0  0  0  0  0
   68.2509   45.8655   53.8480 C   0  0  0  0  0  0  0  0  0  0  0  0
   68.2596   45.8682   55.2140 C   0  0  0  0  0  0  0  0  0  0  0  0
   68.8462   46.9258   55.8738 C   0  0  0  0  0  0  0  0  0  0  0  0
   69.4026   47.9429   55.0902 C   0  0  0  0  0  0  0  0  0  0  0  0
   69.3913   47.9335   53.6926 C   0  0  0  0  0  0  0  0  0  0  0  0
   67.6366   46.5064   51.0334 O   0  0  0  0  0  0  0  0  0  0  0  0
   68.6841   46.8085   51.6181 C   0  0  0  0  0  0  0  0  0  0  0  0
   69.8408   47.1006   50.8575 O   0  0  0  0  0  0  0  0  0  0  0  0
   70.0005   49.0399   53.0738 N   0  0  0  0  0  0  0  0  0  0  0  0
   71.2511   48.9975   52.9061 O   0  0  0  0  0  0  0  0  0  0  0  0
   69.3651   50.1315   52.6537 O   0  0  0  0  0  0  0  0  0  0  0  0
   68.9299   47.0593   57.2181 O   0  0  0  0  0  0  0  0  0  0  0  0
   69.4084   47.9638   58.1035 C   0  0  0  0  0  0  0  0  0  0  0  0
   69.0156   49.3788   57.8240 C   0  0  0  0  0  0  0  0  0  0  0  0
   69.9012   50.4023   57.6152 C   0  0  0  0  0  0  0  0  0  0  0  0
   69.5066   51.6978   57.3353 C   0  0  0  0  0  0  0  0  0  0  0  0
   68.1752   52.0237   57.2520 C   0  0  0  0  0  0  0  0  0  0  0  0
   67.2578   50.9990   57.4623 C   0  0  0  0  0  0  0  0  0  0  0  0
   65.9314   51.2982   57.3832 F   0  0  0  0  0  0  0  0  0  0  0  0
   67.6617   49.7166   57.7390 C   0  0  0  0  0  0  0  0  0  0  0  0
  7  8  2  0  0  0
  8  9  1  0  0  0
  8  1  1  0  0  0
  1  2  2  0  0  0
  1  6  1  0  0  0
  2  3  1  0  0  0
  3  4  2  0  0  0
  4 13  1  0  0  0
  4  5  1  0  0  0
 13 14  1  0  0  0
 14 15  1  0  0  0
 15 16  2  0  0  0
 15 21  1  0  0  0
 16 17  1  0  0  0
 17 18  2  0  0  0
 18 19  1  0  0  0
 19 20  1  0  0  0
 19 21  2  0  0  0
  5  6  2  0  0  0
  6 10  1  0  0  0
 10 11  2  0  0  0
 10 12  1  0  0  0
M  CHG 1  10   1
M  CHG 1  12  -1
M  END
> <minimizedAffinity>
-7.83148

$$$$
cs_R2_output_folder/data/smiles/86.pdb


 26 27  0  0  0  0  0  0  0  0999 V2000
   69.8403   42.8947   57.7007 C   0  0  0  0  0  0  0  0  0  0  0  0
   68.9142   43.0926   56.8665 O   0  0  0  0  0  0  0  0  0  0  0  0
   70.3788   44.0629   58.2973 N   0  0  0  0  0  0  0  0  0  0  0  0
   71.3211   38.9687   58.6556 C   0  0  0  0  0  0  0  0  0  0  0  0
   69.9739   39.1932   58.4814 C   0  0  0  0  0  0  0  0  0  0  0  0
   69.4914   40.4727   58.1708 C   0  0  0  0  0  0  0  0  0  0  0  0
   70.3183   41.5561   58.0234 C   0  0  0  0  0  0  0  0  0  0  0  0
   71.6846   41.3146   58.2024 C   0  0  0  0  0  0  0  0  0  0  0  0
   72.1577   40.0562   58.5082 C   0  0  0  0  0  0  0  0  0  0  0  0
   73.0551   37.7363   59.8628 C   0  0  0  0  0  0  0  0  0  0  0  0
   71.8456   37.6172   58.9853 C   0  0  0  0  0  0  0  0  0  0  0  0
   70.7641   36.7813   59.6276 C   0  0  0  0  0  0  0  0  0  0  0  0
   72.2590   36.9359   57.6944 C   0  0  0  0  0  0  0  0  0  0  0  0
   69.9125   45.3953   57.9856 C   0  0  0  0  0  0  0  0  0  0  0  0
   69.8644   45.6398   56.5603 N   0  0  0  0  0  0  0  0  0  0  0  0
   68.8406   46.4365   56.0081 C   0  0  0  0  0  0  0  0  0  0  0  0
   67.9372   46.9593   56.7398 O   0  0  0  0  0  0  0  0  0  0  0  0
   68.7630   46.7026   54.5777 C   0  0  0  0  0  0  0  0  0  0  0  0
   68.0972   45.8847   53.6922 C   0  0  0  0  0  0  0  0  0  0  0  0
   68.0270   46.1475   52.3193 C   0  0  0  0  0  0  0  0  0  0  0  0
   68.6504   47.2705   51.8355 C   0  0  0  0  0  0  0  0  0  0  0  0
   69.3393   48.1378   52.6795 C   0  0  0  0  0  0  0  0  0  0  0  0
   69.3711   47.8229   54.0182 C   0  0  0  0  0  0  0  0  0  0  0  0
   69.9660   49.2819   52.1360 N   0  0  0  0  0  0  0  0  0  0  0  0
   70.1046   49.3877   50.9174 O   0  0  0  0  0  0  0  0  0  0  0  0
   70.4154   50.2685   52.9595 O   0  0  0  0  0  0  0  0  0  0  0  0
 10 11  1  0  0  0
 11 12  1  0  0  0
 11 13  1  0  0  0
 11  4  1  0  0  0
  4  5  2  0  0  0
  4  9  1  0  0  0
  5  6  1  0  0  0
  6  7  2  0  0  0
  7  1  1  0  0  0
  7  8  1  0  0  0
  1  2  2  0  0  0
  1  3  1  0  0  0
  3 14  1  0  0  0
 14 15  1  0  0  0
 15 16  1  0  0  0
 16 17  2  0  0  0
 16 18  1  0  0  0
 18 19  2  0  0  0
 18 23  1  0  0  0
 19 20  1  0  0  0
 20 21  2  0  0  0
 21 22  1  0  0  0
 22 24  1  0  0  0
 22 23  2  0  0  0
 24 25  2  0  0  0
 24 26  1  0  0  0
  8  9  2  0  0  0
M  CHG 1  24   1
M  CHG 1  26  -1
M  END
> <minimizedAffinity>
-8.62473

$$$$
cs_R2_output_folder/data/smiles/87.pdb


 25 28  0  0  0  0  0  0  0  0999 V2000
   76.5245   35.5623   54.0282 N   0  0  0  0  0  0  0  0  0  0  0  0
   77.9210   35.2633   54.0167 C   0  0  0  0  0  0  0  0  0  0  0  0
   78.2031   34.5289   52.7193 C   0  0  0  0  0  0  0  0  0  0  0  0
   76.9052   34.5651   51.9913 C   0  0  0  0  0  0  0  0  0  0  0  0
   76.1403   35.6836   52.6305 C   0  0  0  0  0  0  0  0  0  0  0  0
   77.0453   34.7248   50.5279 C   0  0  0  0  0  0  0  0  0  0  0  0
   77.8969   35.6862   50.0277 C   0  0  0  0  0  0  0  0  0  0  0  0
   78.0755   35.8890   48.6755 C   0  0  0  0  0  0  0  0  0  0  0  0
   77.3789   35.1042   47.7522 C   0  0  0  0  0  0  0  0  0  0  0  0
   77.3429   35.0651   46.4139 N   0  0  0  0  0  0  0  0  0  0  0  0
   76.5023   34.1158   46.0745 N   0  0  0  0  0  0  0  0  0  0  0  0
   75.9744   33.5194   47.1434 C   0  0  0  0  0  0  0  0  0  0  0  0
   76.5272   34.1423   48.2410 C   0  0  0  0  0  0  0  0  0  0  0  0
   76.3632   33.9557   49.6168 C   0  0  0  0  0  0  0  0  0  0  0  0
   75.6844   34.5883   54.6539 C   0  0  0  0  0  0  0  0  0  0  0  0
   73.0796   36.0834   57.7213 C   0  0  0  0  0  0  0  0  0  0  0  0
   72.6472   35.9538   56.4182 C   0  0  0  0  0  0  0  0  0  0  0  0
   73.4623   35.4778   55.4125 C   0  0  0  0  0  0  0  0  0  0  0  0
   74.7768   35.1045   55.6839 C   0  0  0  0  0  0  0  0  0  0  0  0
   75.2238   35.2270   56.9816 C   0  0  0  0  0  0  0  0  0  0  0  0
   74.3822   35.7098   57.9773 C   0  0  0  0  0  0  0  0  0  0  0  0
   71.3050   38.2372   58.4098 C   0  0  0  0  0  0  0  0  0  0  0  0
   71.9992   36.6929   58.9546 S   0  0  0  0  0  0  0  0  0  0  0  0
   72.8036   36.9496   60.1941 O   0  0  0  0  0  0  0  0  0  0  0  0
   70.9167   35.7068   59.2824 O   0  0  0  0  0  0  0  0  0  0  0  0
 22 23  1  0  0  0
 23 24  2  0  0  0
 23 25  2  0  0  0
 23 16  1  0  0  0
 16 17  2  0  0  0
 16 21  1  0  0  0
 17 18  1  0  0  0
 18 19  2  0  0  0
 19 15  1  0  0  0
 19 20  1  0  0  0
  1 15  1  0  0  0
  1  2  1  0  0  0
  1  5  1  0  0  0
  2  3  1  0  0  0
  3  4  1  0  0  0
  4  6  1  0  0  0
  4  5  1  0  0  0
  6  7  2  0  0  0
  6 14  1  0  0  0
  7  8  1  0  0  0
  8  9  2  0  0  0
  9 10  1  0  0  0
  9 13  1  0  0  0
 10 11  1  0  0  0
 11 12  2  0  0  0
 12 13  1  0  0  0
 13 14  2  0  0  0
 20 21  2  0  0  0
M  CHG 1   1   1
M  END
> <minimizedAffinity>
-7.49712

$$$$
cs_R2_output_folder/data/smiles/88.pdb


 29 32  0  0  0  0  0  0  0  0999 V2000
   71.3935   46.6085   58.9553 C   0  0  0  0  0  0  0  0  0  0  0  0
   70.4996   47.3833   58.2506 C   0  0  0  0  0  0  0  0  0  0  0  0
   69.6717   46.8752   57.2678 C   0  0  0  0  0  0  0  0  0  0  0  0
   69.7236   45.5348   56.9619 C   0  0  0  0  0  0  0  0  0  0  0  0
   70.6134   44.7439   57.6584 C   0  0  0  0  0  0  0  0  0  0  0  0
   71.4377   45.2565   58.6380 C   0  0  0  0  0  0  0  0  0  0  0  0
   72.3124   44.4991   59.3289 F   0  0  0  0  0  0  0  0  0  0  0  0
   76.6880   50.0382   58.5290 C   0  0  0  0  0  0  0  0  0  0  0  0
   75.3035   49.6152   58.1468 C   0  0  0  0  0  0  0  0  0  0  0  0
   74.2600   50.1244   59.1080 C   0  0  0  0  0  0  0  0  0  0  0  0
   74.5124   49.7034   60.5233 C   0  0  0  0  0  0  0  0  0  0  0  0
   74.3417   48.2354   60.7522 C   0  0  0  0  0  0  0  0  0  0  0  0
   73.5475   47.6713   59.6844 N   0  0  0  0  0  0  0  0  0  0  0  0
   72.2467   47.1876   59.9823 C   0  0  0  0  0  0  0  0  0  0  0  0
   71.8497   47.2785   61.1819 O   0  0  0  0  0  0  0  0  0  0  0  0
   73.9216   47.5313   58.2982 C   0  0  0  0  0  0  0  0  0  0  0  0
   75.2780   48.1178   58.0070 C   0  0  0  0  0  0  0  0  0  0  0  0
   68.7392   47.7956   56.5636 C   0  0  0  0  0  0  0  0  0  0  0  0
   69.2905   48.0951   55.2486 C   0  0  0  0  0  0  0  0  0  0  0  0
   70.2376   49.0334   55.0864 N   0  0  0  0  0  0  0  0  0  0  0  0
   70.7434   49.3102   53.8829 N   0  0  0  0  0  0  0  0  0  0  0  0
   70.3409   48.6722   52.7686 C   0  0  0  0  0  0  0  0  0  0  0  0
   70.8253   48.9390   51.6251 O   0  0  0  0  0  0  0  0  0  0  0  0
   69.3665   47.6922   52.8604 C   0  0  0  0  0  0  0  0  0  0  0  0
   68.9321   47.0183   51.7296 C   0  0  0  0  0  0  0  0  0  0  0  0
   67.9617   46.0555   51.8918 C   0  0  0  0  0  0  0  0  0  0  0  0
   67.4381   45.7692   53.1353 C   0  0  0  0  0  0  0  0  0  0  0  0
   67.8981   46.4630   54.2341 C   0  0  0  0  0  0  0  0  0  0  0  0
   68.8658   47.4306   54.1088 C   0  0  0  0  0  0  0  0  0  0  0  0
  9  8  1  0  0  0
  9 10  1  0  0  0
  9 17  1  0  0  0
 10 11  1  0  0  0
 11 12  1  0  0  0
 12 13  1  0  0  0
 13 14  1  0  0  0
 13 16  1  0  0  0
 14 15  2  0  0  0
 14  1  1  0  0  0
  1  2  2  0  0  0
  1  6  1  0  0  0
  2  3  1  0  0  0
  3 18  1  0  0  0
  3  4  2  0  0  0
 18 19  1  0  0  0
 19 20  2  0  0  0
 19 29  1  0  0  0
 20 21  1  0  0  0
 21 22  1  0  0  0
 22 23  2  0  0  0
 22 24  1  0  0  0
 24 25  1  0  0  0
 24 29  2  0  0  0
 25 26  2  0  0  0
 26 27  1  0  0  0
 27 28  2  0  0  0
 28 29  1  0  0  0
  4  5  1  0  0  0
  5  6  2  0  0  0
  6  7  1  0  0  0
 16 17  1  0  0  0
M  END
> <minimizedAffinity>
-9.18513

$$$$
cs_R2_output_folder/data/smiles/89.pdb


 23 24  0  0  0  0  0  0  0  0999 V2000
   68.2508   47.7366   56.7137 S   0  0  0  0  0  0  0  0  0  0  0  0
   68.3769   49.0815   56.0616 O   0  0  0  0  0  0  0  0  0  0  0  0
   67.1935   47.8580   57.7714 O   0  0  0  0  0  0  0  0  0  0  0  0
   72.2822   46.7448   58.6440 C   0  0  0  0  0  0  0  0  0  0  0  0
   71.3514   45.7669   58.3582 C   0  0  0  0  0  0  0  0  0  0  0  0
   70.1390   46.0760   57.7770 C   0  0  0  0  0  0  0  0  0  0  0  0
   69.7974   47.3725   57.4522 C   0  0  0  0  0  0  0  0  0  0  0  0
   70.7293   48.3523   57.7383 C   0  0  0  0  0  0  0  0  0  0  0  0
   71.9413   48.0411   58.3207 C   0  0  0  0  0  0  0  0  0  0  0  0
   73.8796   44.9644   59.2877 C   0  0  0  0  0  0  0  0  0  0  0  0
   73.5928   46.4309   59.2706 C   0  0  0  0  0  0  0  0  0  0  0  0
   73.6610   47.0074   60.6603 C   0  0  0  0  0  0  0  0  0  0  0  0
   74.7108   47.0937   58.4543 C   0  0  0  0  0  0  0  0  0  0  0  0
   67.7949   46.5162   55.5871 N   0  0  0  0  0  0  0  0  0  0  0  0
   68.0954   46.6344   54.1998 C   0  0  0  0  0  0  0  0  0  0  0  0
   67.5020   45.7857   53.2600 C   0  0  0  0  0  0  0  0  0  0  0  0
   67.8075   45.9181   51.9255 C   0  0  0  0  0  0  0  0  0  0  0  0
   68.7076   46.8957   51.5014 C   0  0  0  0  0  0  0  0  0  0  0  0
   69.3053   47.7446   52.4063 C   0  0  0  0  0  0  0  0  0  0  0  0
   68.9771   47.5846   53.7307 C   0  0  0  0  0  0  0  0  0  0  0  0
   70.2556   48.7820   51.9906 C   0  0  0  0  0  0  0  0  0  0  0  0
   70.0697   49.4208   50.9398 O   0  0  0  0  0  0  0  0  0  0  0  0
   71.3721   49.0662   52.7620 O   0  0  0  0  0  0  0  0  0  0  0  0
 10 11  1  0  0  0
 11 12  1  0  0  0
 11 13  1  0  0  0
 11  4  1  0  0  0
  4  5  2  0  0  0
  4  9  1  0  0  0
  5  6  1  0  0  0
  6  7  2  0  0  0
  7  1  1  0  0  0
  7  8  1  0  0  0
  1  2  2  0  0  0
  1  3  2  0  0  0
  1 14  1  0  0  0
 14 15  1  0  0  0
 15 16  2  0  0  0
 15 20  1  0  0  0
 16 17  1  0  0  0
 17 18  2  0  0  0
 18 19  1  0  0  0
 19 21  1  0  0  0
 19 20  2  0  0  0
 21 22  2  0  0  0
 21 23  1  0  0  0
  8  9  2  0  0  0
M  END
> <minimizedAffinity>
-8.10906

$$$$
cs_R2_output_folder/data/smiles/90.pdb


 25 28  0  0  0  0  0  0  0  0999 V2000
   69.2688   46.2819   57.0042 C   0  0  0  0  0  0  0  0  0  0  0  0
   69.9357   45.1366   57.2492 N   0  0  0  0  0  0  0  0  0  0  0  0
   71.0289   45.1041   58.0285 C   0  0  0  0  0  0  0  0  0  0  0  0
   71.4903   46.2355   58.5922 N   0  0  0  0  0  0  0  0  0  0  0  0
   70.8918   47.4331   58.4075 C   0  0  0  0  0  0  0  0  0  0  0  0
   71.1352   48.6830   58.8401 N   0  0  0  0  0  0  0  0  0  0  0  0
   70.2122   49.5231   58.3495 C   0  0  0  0  0  0  0  0  0  0  0  0
   70.0119   50.8796   58.4877 C   0  0  0  0  0  0  0  0  0  0  0  0
   68.9416   51.4550   57.8388 C   0  0  0  0  0  0  0  0  0  0  0  0
   68.0848   50.6943   57.0663 C   0  0  0  0  0  0  0  0  0  0  0  0
   68.2840   49.3435   56.9289 C   0  0  0  0  0  0  0  0  0  0  0  0
   69.3438   48.7520   57.5667 C   0  0  0  0  0  0  0  0  0  0  0  0
   69.7571   47.4302   57.5910 C   0  0  0  0  0  0  0  0  0  0  0  0
   68.1082   46.2895   56.1691 N   0  0  0  0  0  0  0  0  0  0  0  0
   69.2507   47.8446   52.9628 C   0  0  0  0  0  0  0  0  0  0  0  0
   68.7303   46.9514   52.0642 C   0  0  0  0  0  0  0  0  0  0  0  0
   68.0169   45.8578   52.5091 C   0  0  0  0  0  0  0  0  0  0  0  0
   67.8008   45.6214   53.8500 C   0  0  0  0  0  0  0  0  0  0  0  0
   68.3207   46.5162   54.7595 C   0  0  0  0  0  0  0  0  0  0  0  0
   69.0281   47.5978   54.3061 C   0  0  0  0  0  0  0  0  0  0  0  0
   70.1616   49.2488   52.4605 S   0  0  0  0  0  0  0  0  0  0  0  0
   71.5774   49.1598   52.9506 O   0  0  0  0  0  0  0  0  0  0  0  0
   70.1058   49.3341   50.9432 O   0  0  0  0  0  0  0  0  0  0  0  0
   70.4123   51.1847   54.1270 C   0  0  0  0  0  0  0  0  0  0  0  0
   69.4592   50.7014   53.1262 N   0  0  0  0  0  0  0  0  0  0  0  0
 24 25  1  0  0  0
 25 21  1  0  0  0
 21 22  2  0  0  0
 21 23  2  0  0  0
 21 15  1  0  0  0
 15 16  2  0  0  0
 15 20  1  0  0  0
 16 17  1  0  0  0
 17 18  2  0  0  0
 18 19  1  0  0  0
 19 14  1  0  0  0
 19 20  2  0  0  0
 14  1  1  0  0  0
  1  2  2  0  0  0
  1 13  1  0  0  0
  2  3  1  0  0  0
  3  4  2  0  0  0
  4  5  1  0  0  0
  5  6  1  0  0  0
  5 13  2  0  0  0
  6  7  1  0  0  0
  7  8  1  0  0  0
  7 12  2  0  0  0
  8  9  2  0  0  0
  9 10  1  0  0  0
 10 11  2  0  0  0
 11 12  1  0  0  0
 12 13  1  0  0  0
M  END
> <minimizedAffinity>
-9.30199

$$$$
cs_R2_output_folder/data/smiles/91.pdb


 20 21  0  0  0  0  0  0  0  0999 V2000
   70.9705   49.9162   53.8300 N   0  0  0  0  0  0  0  0  0  0  0  0
   70.0619   49.4812   52.8330 C   0  0  0  0  0  0  0  0  0  0  0  0
   69.8945   50.2640   51.8642 O   0  0  0  0  0  0  0  0  0  0  0  0
   69.3633   48.2025   52.9262 C   0  0  0  0  0  0  0  0  0  0  0  0
   68.9297   47.5919   51.7530 C   0  0  0  0  0  0  0  0  0  0  0  0
   68.2604   46.3762   51.7780 C   0  0  0  0  0  0  0  0  0  0  0  0
   68.0017   45.7294   52.9690 C   0  0  0  0  0  0  0  0  0  0  0  0
   68.4237   46.3191   54.1496 C   0  0  0  0  0  0  0  0  0  0  0  0
   69.0981   47.5464   54.1010 C   0  0  0  0  0  0  0  0  0  0  0  0
   68.1669   45.6712   55.3798 N   0  0  0  0  0  0  0  0  0  0  0  0
   68.2127   46.2980   56.4401 O   0  0  0  0  0  0  0  0  0  0  0  0
   67.8637   44.3431   55.4058 O   0  0  0  0  0  0  0  0  0  0  0  0
   71.6289   51.0875   53.7727 O   0  0  0  0  0  0  0  0  0  0  0  0
   71.4007   51.8284   54.9136 C   0  0  0  0  0  0  0  0  0  0  0  0
   67.1151   50.0885   57.9559 C   0  0  0  0  0  0  0  0  0  0  0  0
   68.0449   50.7525   57.0070 C   0  0  0  0  0  0  0  0  0  0  0  0
   67.8273   51.7231   56.0924 C   0  0  0  0  0  0  0  0  0  0  0  0
   68.8607   52.1584   55.3447 C   0  0  0  0  0  0  0  0  0  0  0  0
   70.0742   51.6376   55.5069 C   0  0  0  0  0  0  0  0  0  0  0  0
   69.7690   50.3979   56.8507 S   0  0  0  0  0  0  0  0  0  0  0  0
 15 16  1  0  0  0
 16 17  2  0  0  0
 16 20  1  0  0  0
 17 18  1  0  0  0
 18 19  2  0  0  0
 19 14  1  0  0  0
 19 20  1  0  0  0
 14 13  1  0  0  0
 13  1  1  0  0  0
  1  2  1  0  0  0
  2  3  2  0  0  0
  2  4  1  0  0  0
  4  5  2  0  0  0
  4  9  1  0  0  0
  5  6  1  0  0  0
  6  7  2  0  0  0
  7  8  1  0  0  0
  8 10  1  0  0  0
  8  9  2  0  0  0
 10 11  2  0  0  0
 10 12  1  0  0  0
M  CHG 1  10   1
M  CHG 1  12  -1
M  END
> <minimizedAffinity>
-7.83505

$$$$
cs_R2_output_folder/data/smiles/92.pdb


 21 23  0  0  0  0  0  0  0  0999 V2000
   69.7468   50.3416   54.1224 C   0  0  0  0  0  0  0  0  0  0  0  0
   69.0711   49.2866   54.6334 N   0  0  0  0  0  0  0  0  0  0  0  0
   68.8365   48.1581   53.9416 C   0  0  0  0  0  0  0  0  0  0  0  0
   68.1442   47.0904   54.4776 C   0  0  0  0  0  0  0  0  0  0  0  0
   67.8937   45.9260   53.7847 C   0  0  0  0  0  0  0  0  0  0  0  0
   68.3635   45.8307   52.4867 C   0  0  0  0  0  0  0  0  0  0  0  0
   69.0593   46.8749   51.9137 C   0  0  0  0  0  0  0  0  0  0  0  0
   69.2896   48.0271   52.6414 C   0  0  0  0  0  0  0  0  0  0  0  0
   69.9793   49.0981   52.1167 C   0  0  0  0  0  0  0  0  0  0  0  0
   70.3927   48.9824   50.9355 O   0  0  0  0  0  0  0  0  0  0  0  0
   70.1872   50.2120   52.8594 N   0  0  0  0  0  0  0  0  0  0  0  0
   71.3639   53.3054   55.8465 C   0  0  0  0  0  0  0  0  0  0  0  0
   70.2614   53.8310   56.4861 C   0  0  0  0  0  0  0  0  0  0  0  0
   69.0293   53.2313   56.3544 C   0  0  0  0  0  0  0  0  0  0  0  0
   68.8901   52.0992   55.5814 C   0  0  0  0  0  0  0  0  0  0  0  0
   69.9718   51.5454   54.9270 C   0  0  0  0  0  0  0  0  0  0  0  0
   71.1803   52.1605   55.0752 C   0  0  0  0  0  0  0  0  0  0  0  0
   72.6111   53.9052   55.9740 O   0  0  0  0  0  0  0  0  0  0  0  0
   73.6303   54.6514   58.1656 C   0  0  0  0  0  0  0  0  0  0  0  0
   73.3201   53.6233   57.1353 C   0  0  0  0  0  0  0  0  0  0  0  0
   73.7456   52.4509   57.3779 O   0  0  0  0  0  0  0  0  0  0  0  0
 19 20  1  0  0  0
 20 21  2  0  0  0
 20 18  1  0  0  0
 18 12  1  0  0  0
 12 13  2  0  0  0
 12 17  1  0  0  0
 13 14  1  0  0  0
 14 15  2  0  0  0
 15 16  1  0  0  0
 16  1  1  0  0  0
 16 17  2  0  0  0
  1  2  2  0  0  0
  1 11  1  0  0  0
  2  3  1  0  0  0
  3  4  2  0  0  0
  3  8  1  0  0  0
  4  5  1  0  0  0
  5  6  2  0  0  0
  6  7  1  0  0  0
  7  8  2  0  0  0
  8  9  1  0  0  0
  9 10  2  0  0  0
  9 11  1  0  0  0
M  END
> <minimizedAffinity>
-8.06668

$$$$
cs_R2_output_folder/data/smiles/93.pdb


 20 22  0  0  0  0  0  0  0  0999 V2000
   70.4867   50.8987   53.0179 O   0  0  0  0  0  0  0  0  0  0  0  0
   70.0858   49.9744   53.7957 C   0  0  0  0  0  0  0  0  0  0  0  0
   69.6784   48.7510   53.2184 N   0  0  0  0  0  0  0  0  0  0  0  0
   69.7523   48.4578   51.7749 C   0  0  0  0  0  0  0  0  0  0  0  0
   68.9357   47.2431   51.5533 C   0  0  0  0  0  0  0  0  0  0  0  0
   68.7001   46.6583   52.9167 C   0  0  0  0  0  0  0  0  0  0  0  0
   68.1499   45.4520   53.3016 C   0  0  0  0  0  0  0  0  0  0  0  0
   68.0228   45.1181   54.6224 C   0  0  0  0  0  0  0  0  0  0  0  0
   67.4753   43.9200   55.0151 F   0  0  0  0  0  0  0  0  0  0  0  0
   68.4678   46.0356   55.5420 C   0  0  0  0  0  0  0  0  0  0  0  0
   69.0208   47.2447   55.1751 C   0  0  0  0  0  0  0  0  0  0  0  0
   69.1479   47.5820   53.8196 C   0  0  0  0  0  0  0  0  0  0  0  0
   70.0982   50.3056   55.2045 C   0  0  0  0  0  0  0  0  0  0  0  0
   71.0955   49.9230   56.0651 C   0  0  0  0  0  0  0  0  0  0  0  0
   71.0876   50.2473   57.3949 C   0  0  0  0  0  0  0  0  0  0  0  0
   70.0136   50.9979   57.8773 C   0  0  0  0  0  0  0  0  0  0  0  0
   69.9612   51.3505   59.2155 O   0  0  0  0  0  0  0  0  0  0  0  0
   69.0016   51.3959   57.0449 C   0  0  0  0  0  0  0  0  0  0  0  0
   69.0488   51.0494   55.7158 C   0  0  0  0  0  0  0  0  0  0  0  0
   68.0495   51.4321   54.8510 F   0  0  0  0  0  0  0  0  0  0  0  0
  1  2  2  0  0  0
  2 13  1  0  0  0
  2  3  1  0  0  0
 13 14  2  0  0  0
 13 19  1  0  0  0
 14 15  1  0  0  0
 15 16  2  0  0  0
 16 17  1  0  0  0
 16 18  1  0  0  0
 18 19  2  0  0  0
 19 20  1  0  0  0
  3  4  1  0  0  0
  3 12  1  0  0  0
  4  5  1  0  0  0
  5  6  1  0  0  0
  6  7  1  0  0  0
  6 12  2  0  0  0
  7  8  2  0  0  0
  8  9  1  0  0  0
  8 10  1  0  0  0
 10 11  2  0  0  0
 11 12  1  0  0  0
M  END
> <minimizedAffinity>
-6.45168

$$$$
cs_R2_output_folder/data/smiles/94.pdb


 20 21  0  0  0  0  0  0  0  0999 V2000
   68.8834   44.5879   56.1656 N   0  0  0  0  0  0  0  0  0  0  0  0
   68.3638   45.2509   55.0437 C   0  0  0  0  0  0  0  0  0  0  0  0
   67.5874   44.6215   54.2921 O   0  0  0  0  0  0  0  0  0  0  0  0
   68.2326   39.2216   58.0469 C   0  0  0  0  0  0  0  0  0  0  0  0
   68.3766   40.6122   57.5456 C   0  0  0  0  0  0  0  0  0  0  0  0
   67.4191   41.1843   56.7559 C   0  0  0  0  0  0  0  0  0  0  0  0
   67.5617   42.4962   56.2864 C   0  0  0  0  0  0  0  0  0  0  0  0
   68.6500   43.2664   56.5867 C   0  0  0  0  0  0  0  0  0  0  0  0
   69.6054   42.6469   57.3955 C   0  0  0  0  0  0  0  0  0  0  0  0
   69.4850   41.3596   57.8674 C   0  0  0  0  0  0  0  0  0  0  0  0
   70.5265   40.7288   58.7293 C   0  0  0  0  0  0  0  0  0  0  0  0
   68.6838   46.6502   54.7018 C   0  0  0  0  0  0  0  0  0  0  0  0
   68.5989   47.6963   55.5835 C   0  0  0  0  0  0  0  0  0  0  0  0
   68.9136   48.9832   55.1959 C   0  0  0  0  0  0  0  0  0  0  0  0
   69.3279   49.2886   53.9167 C   0  0  0  0  0  0  0  0  0  0  0  0
   69.4165   48.2448   53.0235 C   0  0  0  0  0  0  0  0  0  0  0  0
   69.1002   46.9616   53.4186 C   0  0  0  0  0  0  0  0  0  0  0  0
   69.8378   48.5103   51.6972 N   0  0  0  0  0  0  0  0  0  0  0  0
   70.2662   47.5960   50.9837 O   0  0  0  0  0  0  0  0  0  0  0  0
   69.7837   49.7787   51.1712 O   0  0  0  0  0  0  0  0  0  0  0  0
  4  5  1  0  0  0
  5  6  2  0  0  0
  5 10  1  0  0  0
  6  7  1  0  0  0
  7  8  2  0  0  0
  8  1  1  0  0  0
  8  9  1  0  0  0
  1  2  1  0  0  0
  2  3  2  0  0  0
  2 12  1  0  0  0
 12 13  2  0  0  0
 12 17  1  0  0  0
 13 14  1  0  0  0
 14 15  2  0  0  0
 15 16  1  0  0  0
 16 18  1  0  0  0
 16 17  2  0  0  0
 18 19  2  0  0  0
 18 20  1  0  0  0
  9 10  2  0  0  0
 10 11  1  0  0  0
M  CHG 1  18   1
M  CHG 1  20  -1
M  END
> <minimizedAffinity>
-7.78495

$$$$
cs_R2_output_folder/data/smiles/95.pdb


 25 27  0  0  0  0  0  0  0  0999 V2000
   70.9863   46.8489   58.4993 C   0  0  0  0  0  0  0  0  0  0  0  0
   70.1132   47.3593   57.5342 C   0  0  0  0  0  0  0  0  0  0  0  0
   70.0604   48.6855   57.1889 C   0  0  0  0  0  0  0  0  0  0  0  0
   70.9168   49.5314   57.8380 C   0  0  0  0  0  0  0  0  0  0  0  0
   71.8000   49.1003   58.7941 C   0  0  0  0  0  0  0  0  0  0  0  0
   71.8106   47.7372   59.1063 C   0  0  0  0  0  0  0  0  0  0  0  0
   72.7042   47.3621   60.0704 F   0  0  0  0  0  0  0  0  0  0  0  0
   72.0839   44.7827   58.6662 O   0  0  0  0  0  0  0  0  0  0  0  0
   70.9683   45.4337   58.7857 C   0  0  0  0  0  0  0  0  0  0  0  0
   69.8807   44.6548   59.1849 N   0  0  0  0  0  0  0  0  0  0  0  0
   69.9917   43.2538   59.4519 C   0  0  0  0  0  0  0  0  0  0  0  0
   68.9384   42.6370   60.2914 C   0  0  0  0  0  0  0  0  0  0  0  0
   68.0333   43.4620   60.8994 O   0  0  0  0  0  0  0  0  0  0  0  0
   69.1167   49.1580   56.1871 C   0  0  0  0  0  0  0  0  0  0  0  0
   69.4827   48.9049   54.7854 C   0  0  0  0  0  0  0  0  0  0  0  0
   70.4185   49.6986   54.1802 N   0  0  0  0  0  0  0  0  0  0  0  0
   70.7677   49.5336   52.9179 N   0  0  0  0  0  0  0  0  0  0  0  0
   70.2316   48.5792   52.1431 C   0  0  0  0  0  0  0  0  0  0  0  0
   70.5935   48.4474   50.9203 O   0  0  0  0  0  0  0  0  0  0  0  0
   69.2838   47.7427   52.6869 C   0  0  0  0  0  0  0  0  0  0  0  0
   68.9232   47.9230   54.0135 C   0  0  0  0  0  0  0  0  0  0  0  0
   67.9296   47.0303   54.6283 C   0  0  0  0  0  0  0  0  0  0  0  0
   68.0103   45.6736   53.9567 C   0  0  0  0  0  0  0  0  0  0  0  0
   67.8015   45.7523   52.4806 C   0  0  0  0  0  0  0  0  0  0  0  0
   68.7149   46.7129   51.7976 C   0  0  0  0  0  0  0  0  0  0  0  0
  8  9  2  0  0  0
  9 10  1  0  0  0
  9  1  1  0  0  0
 10 11  1  0  0  0
 11 12  1  0  0  0
 12 13  1  0  0  0
  1  2  2  0  0  0
  1  6  1  0  0  0
  2  3  1  0  0  0
  3 14  1  0  0  0
  3  4  2  0  0  0
 14 15  1  0  0  0
 15 16  2  0  0  0
 15 21  1  0  0  0
 16 17  1  0  0  0
 17 18  1  0  0  0
 18 19  2  0  0  0
 18 20  1  0  0  0
 20 21  2  0  0  0
 20 25  1  0  0  0
 21 22  1  0  0  0
 22 23  1  0  0  0
 23 24  1  0  0  0
 24 25  1  0  0  0
  4  5  1  0  0  0
  5  6  2  0  0  0
  6  7  1  0  0  0
M  END
> <minimizedAffinity>
-8.91564

$$$$
cs_R2_output_folder/data/smiles/96.pdb


 27 30  0  0  0  0  0  0  0  0999 V2000
   71.4045   45.3771   58.5366 C   0  0  0  0  0  0  0  0  0  0  0  0
   70.2932   45.9486   57.9105 C   0  0  0  0  0  0  0  0  0  0  0  0
   70.1583   47.2869   57.6412 C   0  0  0  0  0  0  0  0  0  0  0  0
   71.2281   48.1115   58.0364 C   0  0  0  0  0  0  0  0  0  0  0  0
   72.3251   47.5653   58.6516 C   0  0  0  0  0  0  0  0  0  0  0  0
   72.4358   46.2071   58.9115 C   0  0  0  0  0  0  0  0  0  0  0  0
   73.5687   45.7510   59.5095 F   0  0  0  0  0  0  0  0  0  0  0  0
   69.8337   42.0909   57.6186 C   0  0  0  0  0  0  0  0  0  0  0  0
   71.2136   41.7862   58.1064 C   0  0  0  0  0  0  0  0  0  0  0  0
   71.1907   41.8199   59.6203 C   0  0  0  0  0  0  0  0  0  0  0  0
   70.9508   43.2618   59.8822 C   0  0  0  0  0  0  0  0  0  0  0  0
   70.4008   43.6924   60.9102 O   0  0  0  0  0  0  0  0  0  0  0  0
   71.4703   43.9617   58.7445 N   0  0  0  0  0  0  0  0  0  0  0  0
   72.0820   43.0025   57.8893 C   0  0  0  0  0  0  0  0  0  0  0  0
   73.0739   43.1827   57.1770 O   0  0  0  0  0  0  0  0  0  0  0  0
   68.9819   47.8943   56.9603 C   0  0  0  0  0  0  0  0  0  0  0  0
   68.7175   47.1625   55.7057 C   0  0  0  0  0  0  0  0  0  0  0  0
   68.0550   45.9592   55.7689 N   0  0  0  0  0  0  0  0  0  0  0  0
   67.7402   45.2711   54.6990 N   0  0  0  0  0  0  0  0  0  0  0  0
   68.0518   45.7108   53.4769 C   0  0  0  0  0  0  0  0  0  0  0  0
   67.7455   45.0436   52.4550 O   0  0  0  0  0  0  0  0  0  0  0  0
   68.7110   46.8946   53.3326 C   0  0  0  0  0  0  0  0  0  0  0  0
   69.0730   47.3881   52.0886 C   0  0  0  0  0  0  0  0  0  0  0  0
   69.7601   48.5858   51.9277 C   0  0  0  0  0  0  0  0  0  0  0  0
   70.0838   49.2939   53.0596 C   0  0  0  0  0  0  0  0  0  0  0  0
   69.7229   48.8045   54.3191 C   0  0  0  0  0  0  0  0  0  0  0  0
   69.0481   47.6290   54.4728 C   0  0  0  0  0  0  0  0  0  0  0  0
  9  8  1  0  0  0
  9 10  1  0  0  0
  9 14  1  0  0  0
 10 11  1  0  0  0
 11 12  2  0  0  0
 11 13  1  0  0  0
 13  1  1  0  0  0
 13 14  1  0  0  0
  1  2  2  0  0  0
  1  6  1  0  0  0
  2  3  1  0  0  0
  3 16  1  0  0  0
  3  4  2  0  0  0
 16 17  1  0  0  0
 17 18  2  0  0  0
 17 27  1  0  0  0
 18 19  1  0  0  0
 19 20  1  0  0  0
 20 21  2  0  0  0
 20 22  1  0  0  0
 22 23  1  0  0  0
 22 27  2  0  0  0
 23 24  2  0  0  0
 24 25  1  0  0  0
 25 26  2  0  0  0
 26 27  1  0  0  0
  4  5  1  0  0  0
  5  6  2  0  0  0
  6  7  1  0  0  0
 14 15  2  0  0  0
M  END
> <minimizedAffinity>
-8.73702

$$$$
cs_R2_output_folder/data/smiles/97.pdb


 27 28  0  0  0  0  0  0  0  0999 V2000
   70.3786   45.6363   57.6071 C   0  0  0  0  0  0  0  0  0  0  0  0
   71.1097   46.6250   58.8074 S   0  0  0  0  0  0  0  0  0  0  0  0
   69.9036   43.1288   57.6779 C   0  0  0  0  0  0  0  0  0  0  0  0
   68.7498   43.2389   57.2286 O   0  0  0  0  0  0  0  0  0  0  0  0
   70.6504   44.3115   57.8470 N   0  0  0  0  0  0  0  0  0  0  0  0
   71.2905   39.1369   58.6449 C   0  0  0  0  0  0  0  0  0  0  0  0
   69.9586   39.4457   58.4512 C   0  0  0  0  0  0  0  0  0  0  0  0
   69.5431   40.7250   58.1443 C   0  0  0  0  0  0  0  0  0  0  0  0
   70.4363   41.7841   58.0101 C   0  0  0  0  0  0  0  0  0  0  0  0
   71.7509   41.4898   58.2002 C   0  0  0  0  0  0  0  0  0  0  0  0
   72.1708   40.1857   58.5128 C   0  0  0  0  0  0  0  0  0  0  0  0
   72.1398   36.9923   57.7250 C   0  0  0  0  0  0  0  0  0  0  0  0
   71.7299   37.7543   58.9764 C   0  0  0  0  0  0  0  0  0  0  0  0
   72.8386   37.7488   60.0037 C   0  0  0  0  0  0  0  0  0  0  0  0
   70.5849   36.9491   59.5971 C   0  0  0  0  0  0  0  0  0  0  0  0
   69.7103   46.3947   56.6566 N   0  0  0  0  0  0  0  0  0  0  0  0
   68.4708   46.2610   55.9603 C   0  0  0  0  0  0  0  0  0  0  0  0
   67.5374   47.3045   56.4627 N   0  0  0  0  0  0  0  0  0  0  0  0
   68.5695   46.5277   54.4909 C   0  0  0  0  0  0  0  0  0  0  0  0
   67.8414   45.7225   53.6364 C   0  0  0  0  0  0  0  0  0  0  0  0
   67.9342   45.9384   52.2822 C   0  0  0  0  0  0  0  0  0  0  0  0
   68.7229   46.9247   51.7364 C   0  0  0  0  0  0  0  0  0  0  0  0
   69.4563   47.7363   52.5910 C   0  0  0  0  0  0  0  0  0  0  0  0
   69.3589   47.5149   53.9503 C   0  0  0  0  0  0  0  0  0  0  0  0
   70.2809   48.7636   52.0827 N   0  0  0  0  0  0  0  0  0  0  0  0
   69.9743   49.3581   51.0440 O   0  0  0  0  0  0  0  0  0  0  0  0
   71.4238   49.1014   52.7414 O   0  0  0  0  0  0  0  0  0  0  0  0
 12 13  1  0  0  0
 13 14  1  0  0  0
 13 15  1  0  0  0
 13  6  1  0  0  0
  6  7  2  0  0  0
  6 11  1  0  0  0
  7  8  1  0  0  0
  8  9  2  0  0  0
  9  3  1  0  0  0
  9 10  1  0  0  0
  3  4  2  0  0  0
  3  5  1  0  0  0
  5  1  1  0  0  0
  1  2  2  0  0  0
  1 16  1  0  0  0
 16 17  1  0  0  0
 17 18  1  0  0  0
 17 19  1  0  0  0
 19 20  2  0  0  0
 19 24  1  0  0  0
 20 21  1  0  0  0
 21 22  2  0  0  0
 22 23  1  0  0  0
 23 25  1  0  0  0
 23 24  2  0  0  0
 25 26  2  0  0  0
 25 27  1  0  0  0
 10 11  2  0  0  0
M  CHG 1  18   1
M  CHG 1  25   1
M  CHG 1  27  -1
M  END
> <minimizedAffinity>
-9.42184

$$$$
cs_R2_output_folder/data/smiles/98.pdb


 24 26  0  0  0  0  0  0  0  0999 V2000
   75.5392   34.8871   56.3042 C   0  0  0  0  0  0  0  0  0  0  0  0
   74.4333   35.1866   55.4064 C   0  0  0  0  0  0  0  0  0  0  0  0
   74.5061   35.1575   54.0119 C   0  0  0  0  0  0  0  0  0  0  0  0
   73.2486   35.5359   53.5974 C   0  0  0  0  0  0  0  0  0  0  0  0
   72.5109   35.7626   54.6960 N   0  0  0  0  0  0  0  0  0  0  0  0
   73.1923   35.5616   55.8052 N   0  0  0  0  0  0  0  0  0  0  0  0
   72.7285   35.6417   57.1402 C   0  0  0  0  0  0  0  0  0  0  0  0
   72.4587   36.8111   57.7605 C   0  0  0  0  0  0  0  0  0  0  0  0
   71.5271   36.6031   58.6817 C   0  0  0  0  0  0  0  0  0  0  0  0
   70.3097   37.6685   59.3100 Cl  0  0  0  0  0  0  0  0  0  0  0  0
   71.7060   35.2153   59.1157 C   0  0  0  0  0  0  0  0  0  0  0  0
   72.4406   34.6663   58.1433 C   0  0  0  0  0  0  0  0  0  0  0  0
   75.6730   34.7767   53.2376 C   0  0  0  0  0  0  0  0  0  0  0  0
   76.1486   33.5857   53.3288 O   0  0  0  0  0  0  0  0  0  0  0  0
   76.3598   35.6576   52.3596 N   0  0  0  0  0  0  0  0  0  0  0  0
   77.5698   35.2097   51.6698 C   0  0  0  0  0  0  0  0  0  0  0  0
   77.2629   35.0114   50.2213 C   0  0  0  0  0  0  0  0  0  0  0  0
   78.0362   35.7085   49.2763 C   0  0  0  0  0  0  0  0  0  0  0  0
   77.8432   35.5046   47.9374 C   0  0  0  0  0  0  0  0  0  0  0  0
   76.8940   34.6115   47.4638 C   0  0  0  0  0  0  0  0  0  0  0  0
   76.1398   33.9300   48.3892 C   0  0  0  0  0  0  0  0  0  0  0  0
   76.3289   34.1350   49.7465 C   0  0  0  0  0  0  0  0  0  0  0  0
   75.1639   32.9639   47.9483 C   0  0  0  0  0  0  0  0  0  0  0  0
   73.9627   33.3109   47.8062 O   0  0  0  0  0  0  0  0  0  0  0  0
  1  2  1  0  0  0
  2  3  2  0  0  0
  2  6  1  0  0  0
  3 13  1  0  0  0
  3  4  1  0  0  0
 13 14  2  0  0  0
 13 15  1  0  0  0
 15 16  1  0  0  0
 16 17  1  0  0  0
 17 18  2  0  0  0
 17 22  1  0  0  0
 18 19  1  0  0  0
 19 20  2  0  0  0
 20 21  1  0  0  0
 21 23  1  0  0  0
 21 22  2  0  0  0
 23 24  2  0  0  0
  4  5  2  0  0  0
  5  6  1  0  0  0
  6  7  1  0  0  0
  7  8  2  0  0  0
  7 12  1  0  0  0
  8  9  2  0  0  0
  9 10  1  0  0  0
  9 11  1  0  0  0
 11 12  2  0  0  0
M  END
> <minimizedAffinity>
-7.60969

$$$$
cs_R2_output_folder/data/smiles/99.pdb


 27 28  0  0  0  0  0  0  0  0999 V2000
   69.5894   46.9897   57.3872 S   0  0  0  0  0  0  0  0  0  0  0  0
   71.0236   46.7284   57.0236 O   0  0  0  0  0  0  0  0  0  0  0  0
   69.4236   46.5490   58.8129 O   0  0  0  0  0  0  0  0  0  0  0  0
   69.2628   48.7225   57.3464 C   0  0  0  0  0  0  0  0  0  0  0  0
   70.2263   49.6602   57.1526 C   0  0  0  0  0  0  0  0  0  0  0  0
   71.5016   49.2861   56.9852 F   0  0  0  0  0  0  0  0  0  0  0  0
   69.9162   51.0033   57.1270 C   0  0  0  0  0  0  0  0  0  0  0  0
   70.8483   51.9709   56.9373 F   0  0  0  0  0  0  0  0  0  0  0  0
   68.6161   51.4213   57.2979 C   0  0  0  0  0  0  0  0  0  0  0  0
   68.3053   52.7512   57.2738 F   0  0  0  0  0  0  0  0  0  0  0  0
   67.6337   50.4822   57.4945 C   0  0  0  0  0  0  0  0  0  0  0  0
   66.3386   50.8571   57.6666 F   0  0  0  0  0  0  0  0  0  0  0  0
   67.9671   49.1416   57.5167 C   0  0  0  0  0  0  0  0  0  0  0  0
   66.9968   48.2043   57.7100 F   0  0  0  0  0  0  0  0  0  0  0  0
   68.5090   46.1329   56.3584 N   0  0  0  0  0  0  0  0  0  0  0  0
   69.2049   47.5620   52.9861 C   0  0  0  0  0  0  0  0  0  0  0  0
   69.2077   47.3591   54.3445 C   0  0  0  0  0  0  0  0  0  0  0  0
   68.5069   46.3462   54.9563 C   0  0  0  0  0  0  0  0  0  0  0  0
   67.7762   45.5168   54.1171 C   0  0  0  0  0  0  0  0  0  0  0  0
   67.7531   45.6949   52.7496 C   0  0  0  0  0  0  0  0  0  0  0  0
   67.0379   44.8825   51.9249 F   0  0  0  0  0  0  0  0  0  0  0  0
   68.4617   46.7132   52.1619 C   0  0  0  0  0  0  0  0  0  0  0  0
   68.4763   46.9343   50.8334 F   0  0  0  0  0  0  0  0  0  0  0  0
   71.4406   49.3573   53.2171 N   0  0  0  0  0  0  0  0  0  0  0  0
   70.1148   48.8711   52.2287 S   0  0  0  0  0  0  0  0  0  0  0  0
   69.1868   50.0160   51.9264 O   0  0  0  0  0  0  0  0  0  0  0  0
   70.6189   48.3459   50.9155 O   0  0  0  0  0  0  0  0  0  0  0  0
 24 25  1  0  0  0
 25 26  2  0  0  0
 25 27  2  0  0  0
 25 16  1  0  0  0
 16 17  2  0  0  0
 16 22  1  0  0  0
 17 18  1  0  0  0
 18 15  1  0  0  0
 18 19  2  0  0  0
 15  1  1  0  0  0
  1  2  2  0  0  0
  1  3  2  0  0  0
  1  4  1  0  0  0
  4  5  2  0  0  0
  4 13  1  0  0  0
  5  6  1  0  0  0
  5  7  1  0  0  0
  7  8  1  0  0  0
  7  9  2  0  0  0
  9 10  1  0  0  0
  9 11  1  0  0  0
 11 12  1  0  0  0
 11 13  2  0  0  0
 13 14  1  0  0  0
 19 20  1  0  0  0
 20 21  1  0  0  0
 20 22  2  0  0  0
 22 23  1  0  0  0
M  END
> <minimizedAffinity>
-9.76546

$$$$
