cs_R5_output_folder/data/smiles/0.pdb


 27 29  0  0  0  0  0  0  0  0999 V2000
   69.8012   47.0908   57.5011 C   0  0  0  0  0  0  0  0  0  0  0  0
   69.9366   45.7283   57.3338 C   0  0  0  0  0  0  0  0  0  0  0  0
   70.9203   45.0640   58.0143 C   0  0  0  0  0  0  0  0  0  0  0  0
   71.7954   45.6970   58.8737 C   0  0  0  0  0  0  0  0  0  0  0  0
   72.7415   44.9891   59.5151 F   0  0  0  0  0  0  0  0  0  0  0  0
   71.6469   47.0778   59.0345 C   0  0  0  0  0  0  0  0  0  0  0  0
   70.6620   47.7307   58.3486 C   0  0  0  0  0  0  0  0  0  0  0  0
   72.5759   47.7364   59.9439 C   0  0  0  0  0  0  0  0  0  0  0  0
   72.2613   47.8233   61.1500 O   0  0  0  0  0  0  0  0  0  0  0  0
   73.8061   48.2736   59.5073 N   0  0  0  0  0  0  0  0  0  0  0  0
   74.1874   48.1840   58.1173 C   0  0  0  0  0  0  0  0  0  0  0  0
   75.5137   48.9193   57.9434 C   0  0  0  0  0  0  0  0  0  0  0  0
   76.4692   48.4358   58.8222 O   0  0  0  0  0  0  0  0  0  0  0  0
   76.1579   48.6395   60.1445 C   0  0  0  0  0  0  0  0  0  0  0  0
   74.7123   48.9212   60.4232 C   0  0  0  0  0  0  0  0  0  0  0  0
   68.6882   47.7804   56.7611 C   0  0  0  0  0  0  0  0  0  0  0  0
   69.1478   47.8900   54.2671 C   0  0  0  0  0  0  0  0  0  0  0  0
   68.5386   47.3355   55.3678 C   0  0  0  0  0  0  0  0  0  0  0  0
   67.7542   46.2330   55.1033 N   0  0  0  0  0  0  0  0  0  0  0  0
   67.6032   45.7502   53.9021 N   0  0  0  0  0  0  0  0  0  0  0  0
   68.1821   46.2609   52.8050 C   0  0  0  0  0  0  0  0  0  0  0  0
   67.9946   45.7403   51.6536 O   0  0  0  0  0  0  0  0  0  0  0  0
   68.9761   47.3576   52.9790 C   0  0  0  0  0  0  0  0  0  0  0  0
   69.6579   47.9891   51.8133 C   0  0  0  0  0  0  0  0  0  0  0  0
   69.9686   49.0999   54.3990 C   0  0  0  0  0  0  0  0  0  0  0  0
   70.0637   51.5481   53.8900 C   0  0  0  0  0  0  0  0  0  0  0  0
   69.1763   50.3939   54.3325 C   0  0  0  0  0  0  0  0  0  0  0  0
 26 27  1  0  0  0
 27 25  1  0  0  0
 25 17  1  0  0  0
 17 18  1  0  0  0
 17 23  2  0  0  0
 18 16  1  0  0  0
 18 19  2  0  0  0
 16  1  1  0  0  0
  1  2  2  0  0  0
  1  7  1  0  0  0
  2  3  1  0  0  0
  3  4  2  0  0  0
  4  5  1  0  0  0
  4  6  1  0  0  0
  6  8  1  0  0  0
  6  7  2  0  0  0
  8  9  2  0  0  0
  8 10  1  0  0  0
 10 11  1  0  0  0
 10 15  1  0  0  0
 11 12  1  0  0  0
 12 13  1  0  0  0
 13 14  1  0  0  0
 14 15  1  0  0  0
 19 20  1  0  0  0
 20 21  1  0  0  0
 21 22  2  0  0  0
 21 23  1  0  0  0
 23 24  1  0  0  0
M  END
> <minimizedAffinity>
-7.60436

$$$$
cs_R5_output_folder/data/smiles/1.pdb


 20 21  0  0  0  0  0  0  0  0999 V2000
   67.8691   45.1289   54.9127 C   0  0  0  0  0  0  0  0  0  0  0  0
   68.5067   44.5407   55.8546 N   0  0  0  0  0  0  0  0  0  0  0  0
   70.2308   49.4911   54.7850 C   0  0  0  0  0  0  0  0  0  0  0  0
   69.5416   48.3790   54.0828 C   0  0  0  0  0  0  0  0  0  0  0  0
   69.4056   48.4266   52.7118 C   0  0  0  0  0  0  0  0  0  0  0  0
   68.7632   47.3883   52.0604 C   0  0  0  0  0  0  0  0  0  0  0  0
   68.2631   46.3181   52.7616 C   0  0  0  0  0  0  0  0  0  0  0  0
   67.5863   45.2340   52.0301 C   0  0  0  0  0  0  0  0  0  0  0  0
   68.3844   46.2398   54.1507 C   0  0  0  0  0  0  0  0  0  0  0  0
   69.0312   47.2987   54.7477 C   0  0  0  0  0  0  0  0  0  0  0  0
   67.9374   43.4498   56.5663 N   0  0  0  0  0  0  0  0  0  0  0  0
   68.7421   42.4788   57.1950 C   0  0  0  0  0  0  0  0  0  0  0  0
   70.0145   42.5736   57.1296 O   0  0  0  0  0  0  0  0  0  0  0  0
   68.1656   41.3617   57.9232 C   0  0  0  0  0  0  0  0  0  0  0  0
   68.4843   40.0429   57.5676 C   0  0  0  0  0  0  0  0  0  0  0  0
   67.9467   38.9735   58.2470 C   0  0  0  0  0  0  0  0  0  0  0  0
   67.0698   39.1592   59.3083 C   0  0  0  0  0  0  0  0  0  0  0  0
   66.7439   40.4349   59.6745 C   0  0  0  0  0  0  0  0  0  0  0  0
   65.6382   40.7427   61.0122 Cl  0  0  0  0  0  0  0  0  0  0  0  0
   67.2965   41.4798   58.9771 C   0  0  0  0  0  0  0  0  0  0  0  0
  3  4  1  0  0  0
  4  5  2  0  0  0
  4 10  1  0  0  0
  5  6  1  0  0  0
  6  7  2  0  0  0
  7  8  1  0  0  0
  7  9  1  0  0  0
  9  1  1  0  0  0
  9 10  2  0  0  0
  1  2  2  0  0  0
  2 11  1  0  0  0
 11 12  1  0  0  0
 12 13  2  0  0  0
 12 14  1  0  0  0
 14 15  2  0  0  0
 14 20  1  0  0  0
 15 16  1  0  0  0
 16 17  2  0  0  0
 17 18  1  0  0  0
 18 19  1  0  0  0
 18 20  2  0  0  0
M  END
> <minimizedAffinity>
-7.08616

$$$$
cs_R5_output_folder/data/smiles/2.pdb


 19 20  0  0  0  0  0  0  0  0999 V2000
   71.1920   49.5565   54.1951 N   0  0  0  0  0  0  0  0  0  0  0  0
   70.2557   49.5620   53.1402 C   0  0  0  0  0  0  0  0  0  0  0  0
   70.1290   50.6069   52.4541 O   0  0  0  0  0  0  0  0  0  0  0  0
   69.4259   48.4018   52.8126 C   0  0  0  0  0  0  0  0  0  0  0  0
   68.7909   47.6834   53.8024 C   0  0  0  0  0  0  0  0  0  0  0  0
   68.0016   46.5813   53.4929 C   0  0  0  0  0  0  0  0  0  0  0  0
   67.8526   46.2006   52.1749 C   0  0  0  0  0  0  0  0  0  0  0  0
   67.1436   45.2038   51.8489 O   0  0  0  0  0  0  0  0  0  0  0  0
   68.4965   46.9387   51.2463 N   0  0  0  0  0  0  0  0  0  0  0  0
   69.2450   47.9865   51.5473 N   0  0  0  0  0  0  0  0  0  0  0  0
   72.0352   50.6740   54.5612 C   0  0  0  0  0  0  0  0  0  0  0  0
   71.8951   50.9808   56.0582 C   0  0  0  0  0  0  0  0  0  0  0  0
   66.3074   50.7749   57.6174 C   0  0  0  0  0  0  0  0  0  0  0  0
   67.7410   50.8183   57.2225 C   0  0  0  0  0  0  0  0  0  0  0  0
   68.6180   49.7997   57.5350 C   0  0  0  0  0  0  0  0  0  0  0  0
   69.9459   49.8636   57.1567 C   0  0  0  0  0  0  0  0  0  0  0  0
   70.4595   50.9353   56.4548 C   0  0  0  0  0  0  0  0  0  0  0  0
   69.5825   51.9539   56.1423 C   0  0  0  0  0  0  0  0  0  0  0  0
   68.2564   51.8908   56.5197 C   0  0  0  0  0  0  0  0  0  0  0  0
 13 14  1  0  0  0
 14 15  2  0  0  0
 14 19  1  0  0  0
 15 16  1  0  0  0
 16 17  2  0  0  0
 17 12  1  0  0  0
 17 18  1  0  0  0
 12 11  1  0  0  0
 11  1  1  0  0  0
  1  2  1  0  0  0
  2  3  2  0  0  0
  2  4  1  0  0  0
  4  5  1  0  0  0
  4 10  2  0  0  0
  5  6  2  0  0  0
  6  7  1  0  0  0
  7  8  2  0  0  0
  7  9  1  0  0  0
  9 10  1  0  0  0
 18 19  2  0  0  0
M  END
> <minimizedAffinity>
-6.96892

$$$$
cs_R5_output_folder/data/smiles/3.pdb


 20 21  0  0  0  0  0  0  0  0999 V2000
   69.7875   47.9419   55.7335 C   0  0  0  0  0  0  0  0  0  0  0  0
   69.2743   47.7629   53.2695 C   0  0  0  0  0  0  0  0  0  0  0  0
   68.6354   47.0692   52.2271 C   0  0  0  0  0  0  0  0  0  0  0  0
   67.8432   46.0001   52.4964 C   0  0  0  0  0  0  0  0  0  0  0  0
   67.6797   45.6112   53.8232 C   0  0  0  0  0  0  0  0  0  0  0  0
   68.2931   46.2838   54.7727 N   0  0  0  0  0  0  0  0  0  0  0  0
   69.1051   47.3666   54.5627 C   0  0  0  0  0  0  0  0  0  0  0  0
   69.4703   49.9982   52.6283 O   0  0  0  0  0  0  0  0  0  0  0  0
   70.0671   48.9235   52.9334 C   0  0  0  0  0  0  0  0  0  0  0  0
   71.4233   48.9479   52.9183 O   0  0  0  0  0  0  0  0  0  0  0  0
   69.0616   49.1446   56.1967 C   0  0  0  0  0  0  0  0  0  0  0  0
   67.9948   48.9969   57.1059 C   0  0  0  0  0  0  0  0  0  0  0  0
   67.3436   50.0855   57.6004 C   0  0  0  0  0  0  0  0  0  0  0  0
   67.7148   51.3621   57.2219 C   0  0  0  0  0  0  0  0  0  0  0  0
   68.7343   51.5525   56.3523 C   0  0  0  0  0  0  0  0  0  0  0  0
   69.3949   50.4193   55.8496 C   0  0  0  0  0  0  0  0  0  0  0  0
   69.1617   52.9218   55.9449 C   0  0  0  0  0  0  0  0  0  0  0  0
   68.8108   53.8980   56.8349 F   0  0  0  0  0  0  0  0  0  0  0  0
   70.5328   52.9005   55.7818 F   0  0  0  0  0  0  0  0  0  0  0  0
   68.5844   53.1928   54.7004 F   0  0  0  0  0  0  0  0  0  0  0  0
  8  9  2  0  0  0
  9 10  1  0  0  0
  9  2  1  0  0  0
  2  3  2  0  0  0
  2  7  1  0  0  0
  3  4  1  0  0  0
  4  5  2  0  0  0
  5  6  1  0  0  0
  6  7  2  0  0  0
  7  1  1  0  0  0
  1 11  1  0  0  0
 11 12  2  0  0  0
 11 16  1  0  0  0
 12 13  1  0  0  0
 13 14  2  0  0  0
 14 15  1  0  0  0
 15 17  1  0  0  0
 15 16  2  0  0  0
 17 18  1  0  0  0
 17 19  1  0  0  0
 17 20  1  0  0  0
M  END
> <minimizedAffinity>
-7.29002

$$$$
cs_R5_output_folder/data/smiles/4.pdb


 33 37  0  0  0  0  0  0  0  0999 V2000
   70.5476   45.4760   57.8728 C   0  0  0  0  0  0  0  0  0  0  0  0
   71.5691   46.1208   58.6054 C   0  0  0  0  0  0  0  0  0  0  0  0
   71.7249   47.4808   58.5477 C   0  0  0  0  0  0  0  0  0  0  0  0
   70.8894   48.2608   57.7749 C   0  0  0  0  0  0  0  0  0  0  0  0
   69.8766   47.6781   57.0416 C   0  0  0  0  0  0  0  0  0  0  0  0
   69.7565   46.2884   57.1312 C   0  0  0  0  0  0  0  0  0  0  0  0
   68.5897   43.7402   56.6906 O   0  0  0  0  0  0  0  0  0  0  0  0
   69.4735   43.2240   57.4131 C   0  0  0  0  0  0  0  0  0  0  0  0
   70.4281   44.0753   57.9832 N   0  0  0  0  0  0  0  0  0  0  0  0
   69.4612   41.7994   57.6157 N   0  0  0  0  0  0  0  0  0  0  0  0
   68.3959   41.0611   56.9157 C   0  0  0  0  0  0  0  0  0  0  0  0
   67.6576   40.1211   57.8317 C   0  0  0  0  0  0  0  0  0  0  0  0
   68.2724   40.2341   59.1505 N   0  0  0  0  0  0  0  0  0  0  0  0
   69.7045   39.9340   59.1793 C   0  0  0  0  0  0  0  0  0  0  0  0
   70.3878   41.0820   58.4354 C   0  0  0  0  0  0  0  0  0  0  0  0
   67.5133   40.6073   60.2742 C   0  0  0  0  0  0  0  0  0  0  0  0
   66.3766   41.3710   60.2498 C   0  0  0  0  0  0  0  0  0  0  0  0
   65.6922   41.6877   61.4214 C   0  0  0  0  0  0  0  0  0  0  0  0
   66.1590   41.2283   62.6300 C   0  0  0  0  0  0  0  0  0  0  0  0
   67.2931   40.4692   62.6305 C   0  0  0  0  0  0  0  0  0  0  0  0
   67.9235   40.1867   61.4843 N   0  0  0  0  0  0  0  0  0  0  0  0
   68.9425   48.4679   56.2012 C   0  0  0  0  0  0  0  0  0  0  0  0
   69.3337   48.4772   54.7893 C   0  0  0  0  0  0  0  0  0  0  0  0
   70.2133   49.3943   54.3592 N   0  0  0  0  0  0  0  0  0  0  0  0
   70.6445   49.5254   53.1245 N   0  0  0  0  0  0  0  0  0  0  0  0
   70.1677   48.6706   52.2026 C   0  0  0  0  0  0  0  0  0  0  0  0
   70.5402   48.7426   51.0013 O   0  0  0  0  0  0  0  0  0  0  0  0
   69.2651   47.6980   52.5436 C   0  0  0  0  0  0  0  0  0  0  0  0
   68.7861   46.8182   51.5743 C   0  0  0  0  0  0  0  0  0  0  0  0
   67.8852   45.8650   51.9975 C   0  0  0  0  0  0  0  0  0  0  0  0
   67.4549   45.7591   53.3150 C   0  0  0  0  0  0  0  0  0  0  0  0
   67.9545   46.6500   54.2372 C   0  0  0  0  0  0  0  0  0  0  0  0
   68.8424   47.5970   53.8449 C   0  0  0  0  0  0  0  0  0  0  0  0
  7  8  2  0  0  0
  8  9  1  0  0  0
  8 10  1  0  0  0
  9  1  1  0  0  0
  1  2  2  0  0  0
  1  6  1  0  0  0
  2  3  1  0  0  0
  3  4  2  0  0  0
  4  5  1  0  0  0
  5 22  1  0  0  0
  5  6  2  0  0  0
 22 23  1  0  0  0
 23 24  2  0  0  0
 23 33  1  0  0  0
 24 25  1  0  0  0
 25 26  1  0  0  0
 26 27  2  0  0  0
 26 28  1  0  0  0
 28 29  1  0  0  0
 28 33  2  0  0  0
 29 30  2  0  0  0
 30 31  1  0  0  0
 31 32  2  0  0  0
 32 33  1  0  0  0
 10 11  1  0  0  0
 10 15  1  0  0  0
 11 12  1  0  0  0
 12 13  1  0  0  0
 13 16  1  0  0  0
 13 14  1  0  0  0
 16 17  2  0  0  0
 16 21  1  0  0  0
 17 18  1  0  0  0
 18 19  2  0  0  0
 19 20  1  0  0  0
 20 21  2  0  0  0
 14 15  1  0  0  0
M  END
> <minimizedAffinity>
-9.88617

$$$$
cs_R5_output_folder/data/smiles/5.pdb


 20 21  0  0  0  0  0  0  0  0999 V2000
   68.6661   48.3757   56.4430 C   0  0  0  0  0  0  0  0  0  0  0  0
   69.1599   48.4918   55.0791 C   0  0  0  0  0  0  0  0  0  0  0  0
   70.0282   49.5148   54.7429 C   0  0  0  0  0  0  0  0  0  0  0  0
   70.5182   49.6581   53.4652 C   0  0  0  0  0  0  0  0  0  0  0  0
   70.1581   48.7808   52.4714 C   0  0  0  0  0  0  0  0  0  0  0  0
   69.2899   47.7450   52.7724 C   0  0  0  0  0  0  0  0  0  0  0  0
   68.9278   46.8669   51.7789 C   0  0  0  0  0  0  0  0  0  0  0  0
   68.0669   45.8450   52.0992 C   0  0  0  0  0  0  0  0  0  0  0  0
   67.5715   45.7066   53.4031 C   0  0  0  0  0  0  0  0  0  0  0  0
   67.9458   46.5905   54.3684 C   0  0  0  0  0  0  0  0  0  0  0  0
   68.8038   47.6175   54.0761 C   0  0  0  0  0  0  0  0  0  0  0  0
   69.4001   46.5478   57.9668 N   0  0  0  0  0  0  0  0  0  0  0  0
   69.7055   47.7349   57.2732 C   0  0  0  0  0  0  0  0  0  0  0  0
   70.8348   48.2359   57.3603 O   0  0  0  0  0  0  0  0  0  0  0  0
   70.9702   44.8929   58.2477 C   0  0  0  0  0  0  0  0  0  0  0  0
   70.2810   45.8490   58.7749 N   0  0  0  0  0  0  0  0  0  0  0  0
   71.9417   44.0920   59.0567 C   0  0  0  0  0  0  0  0  0  0  0  0
   73.3515   42.8223   57.4573 C   0  0  0  0  0  0  0  0  0  0  0  0
   72.1895   42.7561   58.4075 C   0  0  0  0  0  0  0  0  0  0  0  0
   70.9833   42.2877   57.6464 C   0  0  0  0  0  0  0  0  0  0  0  0
 18 19  1  0  0  0
 19 20  1  0  0  0
 19 17  1  0  0  0
 17 15  1  0  0  0
 15 16  2  0  0  0
 16 12  1  0  0  0
 12 13  1  0  0  0
 13 14  2  0  0  0
 13  1  1  0  0  0
  1  2  1  0  0  0
  2  3  2  0  0  0
  2 11  1  0  0  0
  3  4  1  0  0  0
  4  5  2  0  0  0
  5  6  1  0  0  0
  6  7  1  0  0  0
  6 11  2  0  0  0
  7  8  2  0  0  0
  8  9  1  0  0  0
  9 10  2  0  0  0
 10 11  1  0  0  0
M  END
> <minimizedAffinity>
-7.62285

$$$$
cs_R5_output_folder/data/smiles/6.pdb


 20 22  0  0  0  0  0  0  0  0999 V2000
   69.1355   49.8446   55.7342 C   0  0  0  0  0  0  0  0  0  0  0  0
   68.4777   50.9727   55.6534 O   0  0  0  0  0  0  0  0  0  0  0  0
   69.6524   49.4981   56.9996 N   0  0  0  0  0  0  0  0  0  0  0  0
   69.8751   50.4684   58.1167 C   0  0  0  0  0  0  0  0  0  0  0  0
   71.2405   49.9999   58.6287 C   0  0  0  0  0  0  0  0  0  0  0  0
   71.1002   48.4979   58.5158 C   0  0  0  0  0  0  0  0  0  0  0  0
   71.7195   47.4861   59.2045 C   0  0  0  0  0  0  0  0  0  0  0  0
   71.3684   46.1822   58.9297 C   0  0  0  0  0  0  0  0  0  0  0  0
   71.9613   45.1326   59.5928 F   0  0  0  0  0  0  0  0  0  0  0  0
   70.4054   45.9475   57.9693 C   0  0  0  0  0  0  0  0  0  0  0  0
   69.7903   46.9674   57.2839 C   0  0  0  0  0  0  0  0  0  0  0  0
   70.1372   48.2916   57.5526 C   0  0  0  0  0  0  0  0  0  0  0  0
   70.8868   50.7045   53.7675 N   0  0  0  0  0  0  0  0  0  0  0  0
   70.1530   49.5229   53.5161 C   0  0  0  0  0  0  0  0  0  0  0  0
   70.3370   48.8222   52.3440 C   0  0  0  0  0  0  0  0  0  0  0  0
   69.6319   47.6835   52.0950 C   0  0  0  0  0  0  0  0  0  0  0  0
   69.8176   46.9757   50.9105 O   0  0  0  0  0  0  0  0  0  0  0  0
   68.7275   47.2323   53.0256 C   0  0  0  0  0  0  0  0  0  0  0  0
   68.5555   47.9623   54.2135 C   0  0  0  0  0  0  0  0  0  0  0  0
   69.2413   49.1085   54.5029 C   0  0  0  0  0  0  0  0  0  0  0  0
 13 14  1  0  0  0
 14 15  2  0  0  0
 14 20  1  0  0  0
 15 16  1  0  0  0
 16 17  1  0  0  0
 16 18  2  0  0  0
 18 19  1  0  0  0
 19 20  2  0  0  0
 20  1  1  0  0  0
  1  2  2  0  0  0
  1  3  1  0  0  0
  3  4  1  0  0  0
  3 12  1  0  0  0
  4  5  1  0  0  0
  5  6  1  0  0  0
  6  7  1  0  0  0
  6 12  2  0  0  0
  7  8  2  0  0  0
  8  9  1  0  0  0
  8 10  1  0  0  0
 10 11  2  0  0  0
 11 12  1  0  0  0
M  END
> <minimizedAffinity>
-6.39955

$$$$
cs_R5_output_folder/data/smiles/7.pdb


 23 25  0  0  0  0  0  0  0  0999 V2000
   71.1569   51.5282   54.9224 C   0  0  0  0  0  0  0  0  0  0  0  0
   72.0860   52.6004   54.7573 C   0  0  0  0  0  0  0  0  0  0  0  0
   71.9077   53.4674   55.7572 N   0  0  0  0  0  0  0  0  0  0  0  0
   70.9554   53.0585   56.5541 N   0  0  0  0  0  0  0  0  0  0  0  0
   70.4790   51.8434   56.0483 C   0  0  0  0  0  0  0  0  0  0  0  0
   69.4178   51.1426   56.7576 C   0  0  0  0  0  0  0  0  0  0  0  0
   69.4803   49.9112   57.3410 C   0  0  0  0  0  0  0  0  0  0  0  0
   68.3793   49.3093   57.9351 C   0  0  0  0  0  0  0  0  0  0  0  0
   67.1689   49.9501   57.9567 C   0  0  0  0  0  0  0  0  0  0  0  0
   66.0597   49.3865   58.5350 F   0  0  0  0  0  0  0  0  0  0  0  0
   67.0592   51.1938   57.3822 C   0  0  0  0  0  0  0  0  0  0  0  0
   68.1549   51.7781   56.7967 C   0  0  0  0  0  0  0  0  0  0  0  0
   70.0493   49.9473   53.3816 C   0  0  0  0  0  0  0  0  0  0  0  0
   71.0924   50.4020   53.9906 C   0  0  0  0  0  0  0  0  0  0  0  0
   70.5444   48.9611   51.3473 O   0  0  0  0  0  0  0  0  0  0  0  0
   69.8822   48.8722   52.4845 C   0  0  0  0  0  0  0  0  0  0  0  0
   69.1101   47.6643   52.5746 C   0  0  0  0  0  0  0  0  0  0  0  0
   68.5686   47.0959   51.3962 C   0  0  0  0  0  0  0  0  0  0  0  0
   67.7732   45.9925   51.4223 C   0  0  0  0  0  0  0  0  0  0  0  0
   67.4685   45.3873   52.6167 C   0  0  0  0  0  0  0  0  0  0  0  0
   66.6584   44.2615   52.6431 O   0  0  0  0  0  0  0  0  0  0  0  0
   67.9683   45.9011   53.7881 C   0  0  0  0  0  0  0  0  0  0  0  0
   68.7876   47.0431   53.7431 C   0  0  0  0  0  0  0  0  0  0  0  0
 15 16  2  0  0  0
 16 13  1  0  0  0
 16 17  1  0  0  0
 13 14  2  0  0  0
 14  1  1  0  0  0
  1  2  1  0  0  0
  1  5  2  0  0  0
  2  3  2  0  0  0
  3  4  1  0  0  0
  4  5  1  0  0  0
  5  6  1  0  0  0
  6  7  2  0  0  0
  6 12  1  0  0  0
  7  8  1  0  0  0
  8  9  2  0  0  0
  9 10  1  0  0  0
  9 11  1  0  0  0
 11 12  2  0  0  0
 17 18  2  0  0  0
 17 23  1  0  0  0
 18 19  1  0  0  0
 19 20  2  0  0  0
 20 21  1  0  0  0
 20 22  1  0  0  0
 22 23  2  0  0  0
M  END
> <minimizedAffinity>
-7.70691

$$$$
cs_R5_output_folder/data/smiles/8.pdb


 25 27  0  0  0  0  0  0  0  0999 V2000
   70.3799   44.5360   57.6107 C   0  0  0  0  0  0  0  0  0  0  0  0
   71.3280   45.2924   57.9085 O   0  0  0  0  0  0  0  0  0  0  0  0
   69.2243   45.0039   56.9406 N   0  0  0  0  0  0  0  0  0  0  0  0
   68.4452   41.8896   56.9612 C   0  0  0  0  0  0  0  0  0  0  0  0
   69.7364   42.0604   57.7369 C   0  0  0  0  0  0  0  0  0  0  0  0
   70.4694   43.0902   57.9768 C   0  0  0  0  0  0  0  0  0  0  0  0
   71.4214   42.2887   58.7463 C   0  0  0  0  0  0  0  0  0  0  0  0
   70.5729   41.2180   58.4405 N   0  0  0  0  0  0  0  0  0  0  0  0
   70.5749   39.8136   58.7386 C   0  0  0  0  0  0  0  0  0  0  0  0
   71.4991   38.9446   58.1999 C   0  0  0  0  0  0  0  0  0  0  0  0
   71.4882   37.5835   58.4989 C   0  0  0  0  0  0  0  0  0  0  0  0
   70.5313   37.0829   59.3567 C   0  0  0  0  0  0  0  0  0  0  0  0
   70.5368   35.7453   59.6388 F   0  0  0  0  0  0  0  0  0  0  0  0
   69.6034   37.9141   59.9067 C   0  0  0  0  0  0  0  0  0  0  0  0
   69.6279   39.2673   59.5971 C   0  0  0  0  0  0  0  0  0  0  0  0
   69.0125   46.3756   56.5369 C   0  0  0  0  0  0  0  0  0  0  0  0
   68.8040   46.5427   55.0777 C   0  0  0  0  0  0  0  0  0  0  0  0
   68.0856   45.6083   54.3687 C   0  0  0  0  0  0  0  0  0  0  0  0
   67.9020   45.7762   52.9895 C   0  0  0  0  0  0  0  0  0  0  0  0
   68.4140   46.8505   52.2987 C   0  0  0  0  0  0  0  0  0  0  0  0
   68.1948   46.9719   50.8948 N   0  0  0  0  0  0  0  0  0  0  0  0
   69.1322   47.7770   53.0337 C   0  0  0  0  0  0  0  0  0  0  0  0
   69.3195   47.6225   54.3844 C   0  0  0  0  0  0  0  0  0  0  0  0
   69.6845   48.9280   52.3068 C   0  0  0  0  0  0  0  0  0  0  0  0
   70.6769   48.8397   51.5554 O   0  0  0  0  0  0  0  0  0  0  0  0
  4  5  1  0  0  0
  5  6  2  0  0  0
  5  8  1  0  0  0
  6  1  1  0  0  0
  6  7  1  0  0  0
  1  2  2  0  0  0
  1  3  1  0  0  0
  3 16  1  0  0  0
 16 17  1  0  0  0
 17 18  2  0  0  0
 17 23  1  0  0  0
 18 19  1  0  0  0
 19 20  2  0  0  0
 20 21  1  0  0  0
 20 22  1  0  0  0
 22 24  1  0  0  0
 22 23  2  0  0  0
 24 25  2  0  0  0
  7  8  1  0  0  0
  8  9  1  0  0  0
  9 10  2  0  0  0
  9 15  1  0  0  0
 10 11  1  0  0  0
 11 12  2  0  0  0
 12 13  1  0  0  0
 12 14  1  0  0  0
 14 15  2  0  0  0
M  END
> <minimizedAffinity>
-8.36360

$$$$
cs_R5_output_folder/data/smiles/9.pdb


 24 27  0  0  0  0  0  0  0  0999 V2000
   69.6574   45.9612   58.4340 O   0  0  0  0  0  0  0  0  0  0  0  0
   70.0714   46.9897   57.8408 C   0  0  0  0  0  0  0  0  0  0  0  0
   71.4224   47.3725   58.0465 N   0  0  0  0  0  0  0  0  0  0  0  0
   72.2550   46.5896   58.9065 C   0  0  0  0  0  0  0  0  0  0  0  0
   72.2111   47.0083   60.3495 C   0  0  0  0  0  0  0  0  0  0  0  0
   73.5122   47.6712   60.6192 C   0  0  0  0  0  0  0  0  0  0  0  0
   73.9319   48.3967   61.6941 C   0  0  0  0  0  0  0  0  0  0  0  0
   75.2043   48.9382   61.7509 C   0  0  0  0  0  0  0  0  0  0  0  0
   76.0923   48.7540   60.7059 C   0  0  0  0  0  0  0  0  0  0  0  0
   75.6411   48.0172   59.6353 C   0  0  0  0  0  0  0  0  0  0  0  0
   74.3768   47.4760   59.5702 C   0  0  0  0  0  0  0  0  0  0  0  0
   73.7199   46.6673   58.5208 C   0  0  0  0  0  0  0  0  0  0  0  0
   69.1854   47.7845   56.9529 C   0  0  0  0  0  0  0  0  0  0  0  0
   68.7656   47.0069   55.7603 C   0  0  0  0  0  0  0  0  0  0  0  0
   68.1128   45.8462   55.8300 N   0  0  0  0  0  0  0  0  0  0  0  0
   67.7374   45.1517   54.7676 N   0  0  0  0  0  0  0  0  0  0  0  0
   68.0221   45.6285   53.5413 C   0  0  0  0  0  0  0  0  0  0  0  0
   67.6886   45.0094   52.4877 O   0  0  0  0  0  0  0  0  0  0  0  0
   68.7045   46.8398   53.4058 C   0  0  0  0  0  0  0  0  0  0  0  0
   68.9962   47.3272   52.1278 C   0  0  0  0  0  0  0  0  0  0  0  0
   69.6696   48.5236   52.0177 C   0  0  0  0  0  0  0  0  0  0  0  0
   70.0386   49.2091   53.1645 C   0  0  0  0  0  0  0  0  0  0  0  0
   69.7624   48.7469   54.4219 C   0  0  0  0  0  0  0  0  0  0  0  0
   69.0828   47.5399   54.5283 C   0  0  0  0  0  0  0  0  0  0  0  0
  1  2  2  0  0  0
  2 13  1  0  0  0
  2  3  1  0  0  0
 13 14  1  0  0  0
 14 15  2  0  0  0
 14 24  1  0  0  0
 15 16  1  0  0  0
 16 17  1  0  0  0
 17 18  2  0  0  0
 17 19  1  0  0  0
 19 20  1  0  0  0
 19 24  2  0  0  0
 20 21  2  0  0  0
 21 22  1  0  0  0
 22 23  2  0  0  0
 23 24  1  0  0  0
  3  4  1  0  0  0
  4  5  1  0  0  0
  4 12  1  0  0  0
  5  6  1  0  0  0
  6  7  1  0  0  0
  6 11  2  0  0  0
  7  8  2  0  0  0
  8  9  1  0  0  0
  9 10  2  0  0  0
 10 11  1  0  0  0
 11 12  1  0  0  0
M  END
> <minimizedAffinity>
-8.03076

$$$$
cs_R5_output_folder/data/smiles/10.pdb


 23 26  0  0  0  0  0  0  0  0999 V2000
   71.1275   47.5184   57.6961 O   0  0  0  0  0  0  0  0  0  0  0  0
   70.0481   47.0586   57.3099 C   0  0  0  0  0  0  0  0  0  0  0  0
   69.7324   45.7166   57.4399 N   0  0  0  0  0  0  0  0  0  0  0  0
   69.0987   48.0495   56.6902 C   0  0  0  0  0  0  0  0  0  0  0  0
   69.2741   48.1551   55.2323 C   0  0  0  0  0  0  0  0  0  0  0  0
   69.9851   49.1058   54.4931 C   0  0  0  0  0  0  0  0  0  0  0  0
   69.8907   48.8192   53.1780 N   0  0  0  0  0  0  0  0  0  0  0  0
   69.1492   47.7209   53.0076 C   0  0  0  0  0  0  0  0  0  0  0  0
   68.7730   47.0583   51.8553 C   0  0  0  0  0  0  0  0  0  0  0  0
   67.9785   45.9331   52.0000 C   0  0  0  0  0  0  0  0  0  0  0  0
   67.5761   45.4900   53.2444 C   0  0  0  0  0  0  0  0  0  0  0  0
   67.9612   46.1620   54.3697 C   0  0  0  0  0  0  0  0  0  0  0  0
   68.7548   47.2898   54.2687 C   0  0  0  0  0  0  0  0  0  0  0  0
   70.5147   44.6951   58.0109 C   0  0  0  0  0  0  0  0  0  0  0  0
   70.1224   43.2947   57.8205 C   0  0  0  0  0  0  0  0  0  0  0  0
   70.7816   42.2147   58.4310 C   0  0  0  0  0  0  0  0  0  0  0  0
   70.1696   41.0630   58.1173 N   0  0  0  0  0  0  0  0  0  0  0  0
   69.1066   41.3197   57.3071 C   0  0  0  0  0  0  0  0  0  0  0  0
   68.1842   40.4934   56.6960 C   0  0  0  0  0  0  0  0  0  0  0  0
   67.2341   41.0776   55.8929 C   0  0  0  0  0  0  0  0  0  0  0  0
   67.1867   42.4535   55.6923 C   0  0  0  0  0  0  0  0  0  0  0  0
   68.1176   43.2503   56.3148 C   0  0  0  0  0  0  0  0  0  0  0  0
   69.0993   42.6963   57.1386 C   0  0  0  0  0  0  0  0  0  0  0  0
  1  2  2  0  0  0
  2  4  1  0  0  0
  2  3  1  0  0  0
  4  5  1  0  0  0
  5  6  2  0  0  0
  5 13  1  0  0  0
  6  7  1  0  0  0
  7  8  1  0  0  0
  8  9  1  0  0  0
  8 13  2  0  0  0
  9 10  2  0  0  0
 10 11  1  0  0  0
 11 12  2  0  0  0
 12 13  1  0  0  0
  3 14  1  0  0  0
 14 15  1  0  0  0
 15 16  2  0  0  0
 15 23  1  0  0  0
 16 17  1  0  0  0
 17 18  1  0  0  0
 18 19  1  0  0  0
 18 23  2  0  0  0
 19 20  2  0  0  0
 20 21  1  0  0  0
 21 22  2  0  0  0
 22 23  1  0  0  0
M  END
> <minimizedAffinity>
-7.92844

$$$$
cs_R5_output_folder/data/smiles/11.pdb


 22 23  0  0  0  0  0  0  0  0999 V2000
   69.3097   47.2803   57.2477 S   0  0  0  0  0  0  0  0  0  0  0  0
   70.7317   47.4702   56.8110 O   0  0  0  0  0  0  0  0  0  0  0  0
   69.3363   46.6810   58.6283 O   0  0  0  0  0  0  0  0  0  0  0  0
   69.0152   50.0182   56.9431 C   0  0  0  0  0  0  0  0  0  0  0  0
   68.2840   51.1900   57.0353 C   0  0  0  0  0  0  0  0  0  0  0  0
   66.9900   51.2222   57.5143 C   0  0  0  0  0  0  0  0  0  0  0  0
   66.4429   50.0274   57.9032 C   0  0  0  0  0  0  0  0  0  0  0  0
   67.1563   48.8562   57.8173 C   0  0  0  0  0  0  0  0  0  0  0  0
   68.4701   48.8217   57.3307 C   0  0  0  0  0  0  0  0  0  0  0  0
   70.6532   51.0647   55.3577 C   0  0  0  0  0  0  0  0  0  0  0  0
   70.3896   50.0693   56.4323 C   0  0  0  0  0  0  0  0  0  0  0  0
   68.4976   46.1821   56.2089 N   0  0  0  0  0  0  0  0  0  0  0  0
   68.5113   46.3806   54.7875 C   0  0  0  0  0  0  0  0  0  0  0  0
   67.7659   45.5728   53.9579 C   0  0  0  0  0  0  0  0  0  0  0  0
   67.8005   45.7786   52.5769 C   0  0  0  0  0  0  0  0  0  0  0  0
   68.5783   46.7850   52.0530 C   0  0  0  0  0  0  0  0  0  0  0  0
   68.6003   46.9733   50.6963 F   0  0  0  0  0  0  0  0  0  0  0  0
   69.3119   47.5776   52.8937 C   0  0  0  0  0  0  0  0  0  0  0  0
   69.2932   47.3927   54.2526 C   0  0  0  0  0  0  0  0  0  0  0  0
   70.1185   48.6321   52.2803 C   0  0  0  0  0  0  0  0  0  0  0  0
   69.6197   49.3955   51.1948 N   0  0  0  0  0  0  0  0  0  0  0  0
   71.2809   48.8815   52.7104 O   0  0  0  0  0  0  0  0  0  0  0  0
 10 11  1  0  0  0
 11  4  1  0  0  0
  4  5  2  0  0  0
  4  9  1  0  0  0
  5  6  1  0  0  0
  6  7  2  0  0  0
  7  8  1  0  0  0
  8  9  2  0  0  0
  9  1  1  0  0  0
  1  2  2  0  0  0
  1  3  2  0  0  0
  1 12  1  0  0  0
 12 13  1  0  0  0
 13 14  2  0  0  0
 13 19  1  0  0  0
 14 15  1  0  0  0
 15 16  2  0  0  0
 16 17  1  0  0  0
 16 18  1  0  0  0
 18 20  1  0  0  0
 18 19  2  0  0  0
 20 21  1  0  0  0
 20 22  2  0  0  0
M  END
> <minimizedAffinity>
-8.28993

$$$$
cs_R5_output_folder/data/smiles/12.pdb


 19 21  0  0  0  0  0  0  0  0999 V2000
   69.3194   47.8368   55.6829 C   0  0  0  0  0  0  0  0  0  0  0  0
   68.9706   52.7644   56.0011 C   0  0  0  0  0  0  0  0  0  0  0  0
   68.5639   51.3859   56.4036 C   0  0  0  0  0  0  0  0  0  0  0  0
   67.5638   51.2491   57.3480 C   0  0  0  0  0  0  0  0  0  0  0  0
   67.1832   49.9795   57.7261 C   0  0  0  0  0  0  0  0  0  0  0  0
   66.2126   49.8356   58.6421 F   0  0  0  0  0  0  0  0  0  0  0  0
   67.7841   48.8811   57.1761 C   0  0  0  0  0  0  0  0  0  0  0  0
   67.3965   47.7411   57.5574 O   0  0  0  0  0  0  0  0  0  0  0  0
   68.7726   49.0039   56.2418 N   0  0  0  0  0  0  0  0  0  0  0  0
   69.1262   50.2550   55.8907 C   0  0  0  0  0  0  0  0  0  0  0  0
   68.9569   47.3201   54.3830 C   0  0  0  0  0  0  0  0  0  0  0  0
   68.0021   46.2770   54.3888 C   0  0  0  0  0  0  0  0  0  0  0  0
   67.6043   45.7328   53.2146 C   0  0  0  0  0  0  0  0  0  0  0  0
   68.1039   46.1655   52.0081 C   0  0  0  0  0  0  0  0  0  0  0  0
   69.0340   47.1817   52.0062 C   0  0  0  0  0  0  0  0  0  0  0  0
   69.6894   47.8022   50.9914 N   0  0  0  0  0  0  0  0  0  0  0  0
   70.4780   48.7130   51.4995 N   0  0  0  0  0  0  0  0  0  0  0  0
   70.3827   48.7349   52.8419 C   0  0  0  0  0  0  0  0  0  0  0  0
   69.4712   47.7727   53.2059 C   0  0  0  0  0  0  0  0  0  0  0  0
  2  3  1  0  0  0
  3  4  1  0  0  0
  3 10  2  0  0  0
  4  5  2  0  0  0
  5  6  1  0  0  0
  5  7  1  0  0  0
  7  8  2  0  0  0
  7  9  1  0  0  0
  9  1  1  0  0  0
  9 10  1  0  0  0
  1 11  1  0  0  0
 11 12  2  0  0  0
 11 19  1  0  0  0
 12 13  1  0  0  0
 13 14  2  0  0  0
 14 15  1  0  0  0
 15 16  1  0  0  0
 15 19  2  0  0  0
 16 17  1  0  0  0
 17 18  2  0  0  0
 18 19  1  0  0  0
M  END
> <minimizedAffinity>
-9.06384

$$$$
cs_R5_output_folder/data/smiles/13.pdb


 26 29  0  0  0  0  0  0  0  0999 V2000
   74.9872   35.3544   53.7059 C   0  0  0  0  0  0  0  0  0  0  0  0
   75.6389   35.1088   54.8820 C   0  0  0  0  0  0  0  0  0  0  0  0
   74.9743   34.9028   56.0843 C   0  0  0  0  0  0  0  0  0  0  0  0
   73.6031   34.9392   56.1278 C   0  0  0  0  0  0  0  0  0  0  0  0
   72.9588   35.1956   54.8979 C   0  0  0  0  0  0  0  0  0  0  0  0
   73.6444   35.3867   53.7716 N   0  0  0  0  0  0  0  0  0  0  0  0
   72.7957   34.7152   57.3072 C   0  0  0  0  0  0  0  0  0  0  0  0
   72.6925   33.4323   57.7527 N   0  0  0  0  0  0  0  0  0  0  0  0
   72.0299   33.0796   58.8327 N   0  0  0  0  0  0  0  0  0  0  0  0
   71.4107   34.0217   59.5597 C   0  0  0  0  0  0  0  0  0  0  0  0
   70.7813   33.6556   60.5924 O   0  0  0  0  0  0  0  0  0  0  0  0
   71.4720   35.3554   59.1694 C   0  0  0  0  0  0  0  0  0  0  0  0
   72.1725   35.6891   58.0299 C   0  0  0  0  0  0  0  0  0  0  0  0
   72.1839   37.0870   57.5881 C   0  0  0  0  0  0  0  0  0  0  0  0
   71.7454   38.0908   58.5820 C   0  0  0  0  0  0  0  0  0  0  0  0
   71.0112   37.6244   59.7489 C   0  0  0  0  0  0  0  0  0  0  0  0
   70.8865   36.3473   60.0245 C   0  0  0  0  0  0  0  0  0  0  0  0
   75.4232   33.3955   51.8221 O   0  0  0  0  0  0  0  0  0  0  0  0
   75.8345   34.5455   51.5072 C   0  0  0  0  0  0  0  0  0  0  0  0
   75.6243   35.5712   52.4568 N   0  0  0  0  0  0  0  0  0  0  0  0
   76.4970   34.7537   50.2003 C   0  0  0  0  0  0  0  0  0  0  0  0
   77.5517   35.6594   50.1296 C   0  0  0  0  0  0  0  0  0  0  0  0
   78.2094   35.8973   48.9456 C   0  0  0  0  0  0  0  0  0  0  0  0
   77.7901   35.2098   47.8282 C   0  0  0  0  0  0  0  0  0  0  0  0
   76.7516   34.3105   47.8725 C   0  0  0  0  0  0  0  0  0  0  0  0
   76.0994   34.0845   49.0856 C   0  0  0  0  0  0  0  0  0  0  0  0
 18 19  2  0  0  0
 19 20  1  0  0  0
 19 21  1  0  0  0
 20  1  1  0  0  0
  1  2  2  0  0  0
  1  6  1  0  0  0
  2  3  1  0  0  0
  3  4  2  0  0  0
  4  7  1  0  0  0
  4  5  1  0  0  0
  7  8  2  0  0  0
  7 13  1  0  0  0
  8  9  1  0  0  0
  9 10  1  0  0  0
 10 11  2  0  0  0
 10 12  1  0  0  0
 12 13  2  0  0  0
 12 17  1  0  0  0
 13 14  1  0  0  0
 14 15  1  0  0  0
 15 16  1  0  0  0
 16 17  2  0  0  0
  5  6  2  0  0  0
 21 22  2  0  0  0
 21 26  1  0  0  0
 22 23  1  0  0  0
 23 24  2  0  0  0
 24 25  1  0  0  0
 25 26  2  0  0  0
M  END
> <minimizedAffinity>
-8.78851

$$$$
cs_R5_output_folder/data/smiles/14.pdb


 19 20  0  0  0  0  0  0  0  0999 V2000
   69.7976   51.2965   53.8294 N   0  0  0  0  0  0  0  0  0  0  0  0
   70.9446   51.7712   54.5252 C   0  0  0  0  0  0  0  0  0  0  0  0
   72.0044   51.1519   54.3733 O   0  0  0  0  0  0  0  0  0  0  0  0
   70.9095   52.9027   55.3677 N   0  0  0  0  0  0  0  0  0  0  0  0
   72.0001   53.4422   56.0978 C   0  0  0  0  0  0  0  0  0  0  0  0
   72.2385   53.2755   57.4285 C   0  0  0  0  0  0  0  0  0  0  0  0
   73.3258   53.8453   58.0890 C   0  0  0  0  0  0  0  0  0  0  0  0
   74.1630   54.5894   57.3622 N   0  0  0  0  0  0  0  0  0  0  0  0
   74.0040   54.8062   56.0453 C   0  0  0  0  0  0  0  0  0  0  0  0
   72.9319   54.2382   55.4160 C   0  0  0  0  0  0  0  0  0  0  0  0
   69.7132   50.1950   52.9422 C   0  0  0  0  0  0  0  0  0  0  0  0
   70.0449   48.8236   53.3766 C   0  0  0  0  0  0  0  0  0  0  0  0
   68.8655   47.1546   55.5095 C   0  0  0  0  0  0  0  0  0  0  0  0
   68.6021   46.9437   54.0631 C   0  0  0  0  0  0  0  0  0  0  0  0
   67.7605   45.9019   53.6794 C   0  0  0  0  0  0  0  0  0  0  0  0
   67.4763   45.5803   52.3759 C   0  0  0  0  0  0  0  0  0  0  0  0
   68.0684   46.3504   51.3881 C   0  0  0  0  0  0  0  0  0  0  0  0
   68.9068   47.3917   51.7299 C   0  0  0  0  0  0  0  0  0  0  0  0
   69.1839   47.7023   53.0700 C   0  0  0  0  0  0  0  0  0  0  0  0
 13 14  1  0  0  0
 14 15  2  0  0  0
 14 19  1  0  0  0
 15 16  1  0  0  0
 16 17  2  0  0  0
 17 18  1  0  0  0
 18 19  2  0  0  0
 19 12  1  0  0  0
 12 11  1  0  0  0
 11  1  1  0  0  0
  1  2  1  0  0  0
  2  3  2  0  0  0
  2  4  1  0  0  0
  4  5  1  0  0  0
  5  6  2  0  0  0
  5 10  1  0  0  0
  6  7  1  0  0  0
  7  8  2  0  0  0
  8  9  1  0  0  0
  9 10  2  0  0  0
M  END
> <minimizedAffinity>
-6.97674

$$$$
cs_R5_output_folder/data/smiles/15.pdb


 19 20  0  0  0  0  0  0  0  0999 V2000
   67.7940   43.8580   55.3847 N   0  0  0  0  0  0  0  0  0  0  0  0
   68.1885   45.2056   55.2131 C   0  0  0  0  0  0  0  0  0  0  0  0
   68.4651   45.8318   56.2866 O   0  0  0  0  0  0  0  0  0  0  0  0
   68.2866   45.8731   53.9223 C   0  0  0  0  0  0  0  0  0  0  0  0
   67.5826   45.3622   52.8515 C   0  0  0  0  0  0  0  0  0  0  0  0
   67.6416   45.9574   51.6047 C   0  0  0  0  0  0  0  0  0  0  0  0
   68.4033   47.0852   51.3750 C   0  0  0  0  0  0  0  0  0  0  0  0
   69.1087   47.5993   52.4428 C   0  0  0  0  0  0  0  0  0  0  0  0
   69.9344   48.8108   52.2150 C   0  0  0  0  0  0  0  0  0  0  0  0
   69.0454   46.9924   53.7010 C   0  0  0  0  0  0  0  0  0  0  0  0
   67.4643   41.8434   56.6662 C   0  0  0  0  0  0  0  0  0  0  0  0
   67.3405   41.2447   55.5673 O   0  0  0  0  0  0  0  0  0  0  0  0
   67.7066   43.2370   56.6320 N   0  0  0  0  0  0  0  0  0  0  0  0
   67.1760   39.3146   60.8631 C   0  0  0  0  0  0  0  0  0  0  0  0
   67.2786   40.0691   59.5684 C   0  0  0  0  0  0  0  0  0  0  0  0
   67.8681   39.8418   58.4051 C   0  0  0  0  0  0  0  0  0  0  0  0
   68.6235   38.8629   57.8575 F   0  0  0  0  0  0  0  0  0  0  0  0
   67.3577   41.1072   57.9453 C   0  0  0  0  0  0  0  0  0  0  0  0
   66.7693   41.3344   59.1066 C   0  0  0  0  0  0  0  0  0  0  0  0
 14 15  1  0  0  0
 15 16  2  0  0  0
 15 19  1  0  0  0
 16 17  1  0  0  0
 16 18  1  0  0  0
 18 11  1  0  0  0
 18 19  2  0  0  0
 11 12  2  0  0  0
 11 13  1  0  0  0
 13  1  1  0  0  0
  1  2  1  0  0  0
  2  3  2  0  0  0
  2  4  1  0  0  0
  4  5  2  0  0  0
  4 10  1  0  0  0
  5  6  1  0  0  0
  6  7  2  0  0  0
  7  8  1  0  0  0
  8  9  1  0  0  0
  8 10  2  0  0  0
M  END
> <minimizedAffinity>
-7.67442

$$$$
cs_R5_output_folder/data/smiles/16.pdb


 21 23  0  0  0  0  0  0  0  0999 V2000
   67.8571   45.4006   55.1112 O   0  0  0  0  0  0  0  0  0  0  0  0
   68.1691   46.6090   55.2916 C   0  0  0  0  0  0  0  0  0  0  0  0
   67.9537   47.2349   56.4706 N   0  0  0  0  0  0  0  0  0  0  0  0
   68.2897   48.5271   56.6578 C   0  0  0  0  0  0  0  0  0  0  0  0
   68.0780   49.0814   57.7622 O   0  0  0  0  0  0  0  0  0  0  0  0
   68.8579   49.2855   55.6990 N   0  0  0  0  0  0  0  0  0  0  0  0
   69.0863   48.6950   54.5114 C   0  0  0  0  0  0  0  0  0  0  0  0
   69.6625   49.3712   53.4566 C   0  0  0  0  0  0  0  0  0  0  0  0
   69.8927   48.7447   52.2310 C   0  0  0  0  0  0  0  0  0  0  0  0
   69.5541   47.4409   52.0438 C   0  0  0  0  0  0  0  0  0  0  0  0
   68.9819   46.7439   53.0715 C   0  0  0  0  0  0  0  0  0  0  0  0
   68.7510   47.3661   54.2916 C   0  0  0  0  0  0  0  0  0  0  0  0
   69.2072   50.6432   55.9053 C   0  0  0  0  0  0  0  0  0  0  0  0
   68.4012   51.7103   55.5492 C   0  0  0  0  0  0  0  0  0  0  0  0
   68.7939   53.0129   55.7742 C   0  0  0  0  0  0  0  0  0  0  0  0
   70.0092   53.2863   56.3638 C   0  0  0  0  0  0  0  0  0  0  0  0
   70.8289   52.2409   56.7277 C   0  0  0  0  0  0  0  0  0  0  0  0
   70.4167   50.9237   56.4933 C   0  0  0  0  0  0  0  0  0  0  0  0
   71.2755   49.8187   56.8726 C   0  0  0  0  0  0  0  0  0  0  0  0
   72.0340   49.0962   55.9743 O   0  0  0  0  0  0  0  0  0  0  0  0
   71.3141   49.4404   58.4814 S   0  0  0  0  0  0  0  0  0  0  0  0
  1  2  2  0  0  0
  2  3  1  0  0  0
  2 12  1  0  0  0
  3  4  1  0  0  0
  4  5  2  0  0  0
  4  6  1  0  0  0
  6 13  1  0  0  0
  6  7  1  0  0  0
 13 14  2  0  0  0
 13 18  1  0  0  0
 14 15  1  0  0  0
 15 16  2  0  0  0
 16 17  1  0  0  0
 17 18  2  0  0  0
 18 19  1  0  0  0
 19 20  1  0  0  0
 19 21  2  0  0  0
  7  8  1  0  0  0
  7 12  2  0  0  0
  8  9  2  0  0  0
  9 10  1  0  0  0
 10 11  2  0  0  0
 11 12  1  0  0  0
M  END
> <minimizedAffinity>
-6.75803

$$$$
cs_R5_output_folder/data/smiles/17.pdb


 22 25  0  0  0  0  0  0  0  0999 V2000
   74.9265   44.7729   62.1117 O   0  0  0  0  0  0  0  0  0  0  0  0
   74.2029   45.7487   61.8483 C   0  0  0  0  0  0  0  0  0  0  0  0
   74.2107   47.3250   62.6565 S   0  0  0  0  0  0  0  0  0  0  0  0
   73.0044   48.0910   61.7807 N   0  0  0  0  0  0  0  0  0  0  0  0
   72.6247   47.0378   60.8466 C   0  0  0  0  0  0  0  0  0  0  0  0
   73.2391   45.9531   60.9401 N   0  0  0  0  0  0  0  0  0  0  0  0
   72.4631   45.3824   59.8368 C   0  0  0  0  0  0  0  0  0  0  0  0
   72.0918   44.4071   58.9514 C   0  0  0  0  0  0  0  0  0  0  0  0
   71.1126   44.5709   58.0065 C   0  0  0  0  0  0  0  0  0  0  0  0
   70.4072   45.7930   57.8871 C   0  0  0  0  0  0  0  0  0  0  0  0
   70.7958   46.7618   58.7880 C   0  0  0  0  0  0  0  0  0  0  0  0
   71.7847   46.5939   59.7400 C   0  0  0  0  0  0  0  0  0  0  0  0
   69.4452   45.9128   56.9394 O   0  0  0  0  0  0  0  0  0  0  0  0
   68.8360   46.8985   56.2488 C   0  0  0  0  0  0  0  0  0  0  0  0
   68.6600   46.7925   54.8094 C   0  0  0  0  0  0  0  0  0  0  0  0
   67.9291   45.7451   54.2896 C   0  0  0  0  0  0  0  0  0  0  0  0
   67.7096   45.6135   52.9367 C   0  0  0  0  0  0  0  0  0  0  0  0
   68.2305   46.5514   52.0647 C   0  0  0  0  0  0  0  0  0  0  0  0
   68.0161   46.4258   50.7252 F   0  0  0  0  0  0  0  0  0  0  0  0
   68.9620   47.6023   52.5682 C   0  0  0  0  0  0  0  0  0  0  0  0
   69.4700   48.5172   51.7160 F   0  0  0  0  0  0  0  0  0  0  0  0
   69.1735   47.7172   53.9461 C   0  0  0  0  0  0  0  0  0  0  0  0
  1  2  2  0  0  0
  2  3  1  0  0  0
  2  6  1  0  0  0
  3  4  1  0  0  0
  4  5  2  0  0  0
  5  6  1  0  0  0
  5 12  1  0  0  0
  6  7  1  0  0  0
  7  8  2  0  0  0
  7 12  1  0  0  0
  8  9  1  0  0  0
  9 10  2  0  0  0
 10 13  1  0  0  0
 10 11  1  0  0  0
 13 14  1  0  0  0
 14 15  1  0  0  0
 15 16  2  0  0  0
 15 22  1  0  0  0
 16 17  1  0  0  0
 17 18  2  0  0  0
 18 19  1  0  0  0
 18 20  1  0  0  0
 20 21  1  0  0  0
 20 22  2  0  0  0
 11 12  2  0  0  0
M  END
> <minimizedAffinity>
-7.41391

$$$$
cs_R5_output_folder/data/smiles/18.pdb


 22 24  0  0  0  0  0  0  0  0999 V2000
   77.1261   34.0507   56.0591 O   0  0  0  0  0  0  0  0  0  0  0  0
   76.4349   34.7635   55.3230 C   0  0  0  0  0  0  0  0  0  0  0  0
   76.9339   35.5831   54.1917 C   0  0  0  0  0  0  0  0  0  0  0  0
   76.1930   35.1929   52.9661 C   0  0  0  0  0  0  0  0  0  0  0  0
   74.7298   35.1858   53.1780 C   0  0  0  0  0  0  0  0  0  0  0  0
   73.9324   35.3078   52.0133 C   0  0  0  0  0  0  0  0  0  0  0  0
   72.5794   35.2474   52.1735 C   0  0  0  0  0  0  0  0  0  0  0  0
   71.7730   35.3637   51.0663 F   0  0  0  0  0  0  0  0  0  0  0  0
   72.0179   35.0724   53.4194 C   0  0  0  0  0  0  0  0  0  0  0  0
   72.8091   34.9561   54.5345 C   0  0  0  0  0  0  0  0  0  0  0  0
   74.1935   35.0150   54.4302 C   0  0  0  0  0  0  0  0  0  0  0  0
   74.9965   34.8023   55.5904 N   0  0  0  0  0  0  0  0  0  0  0  0
   74.6054   34.8499   56.8971 C   0  0  0  0  0  0  0  0  0  0  0  0
   75.4480   34.2566   57.7334 O   0  0  0  0  0  0  0  0  0  0  0  0
   73.4462   35.4388   57.5301 C   0  0  0  0  0  0  0  0  0  0  0  0
   73.2400   36.7872   57.6966 C   0  0  0  0  0  0  0  0  0  0  0  0
   72.1854   37.3071   58.4388 C   0  0  0  0  0  0  0  0  0  0  0  0
   71.3011   36.4577   59.0415 C   0  0  0  0  0  0  0  0  0  0  0  0
   69.9548   37.1048   59.9895 S   0  0  0  0  0  0  0  0  0  0  0  0
   71.4621   35.0831   58.9090 C   0  0  0  0  0  0  0  0  0  0  0  0
   72.5113   34.6123   58.1699 C   0  0  0  0  0  0  0  0  0  0  0  0
   72.6977   33.2380   58.0198 O   0  0  0  0  0  0  0  0  0  0  0  0
  1  2  2  0  0  0
  2  3  1  0  0  0
  2 12  1  0  0  0
  3  4  1  0  0  0
  4  5  1  0  0  0
  5  6  1  0  0  0
  5 11  2  0  0  0
  6  7  2  0  0  0
  7  8  1  0  0  0
  7  9  1  0  0  0
  9 10  2  0  0  0
 10 11  1  0  0  0
 11 12  1  0  0  0
 12 13  1  0  0  0
 13 14  2  0  0  0
 13 15  1  0  0  0
 15 16  2  0  0  0
 15 21  1  0  0  0
 16 17  1  0  0  0
 17 18  2  0  0  0
 18 19  1  0  0  0
 18 20  1  0  0  0
 20 21  2  0  0  0
 21 22  1  0  0  0
M  END
> <minimizedAffinity>
-5.92692

$$$$
cs_R5_output_folder/data/smiles/19.pdb


 19 21  0  0  0  0  0  0  0  0999 V2000
   70.6038   50.0231   55.5609 C   0  0  0  0  0  0  0  0  0  0  0  0
   69.8969   48.9695   54.7830 C   0  0  0  0  0  0  0  0  0  0  0  0
   69.8500   48.8549   53.4330 N   0  0  0  0  0  0  0  0  0  0  0  0
   69.1435   47.7758   53.0675 C   0  0  0  0  0  0  0  0  0  0  0  0
   68.8162   47.2458   51.8079 C   0  0  0  0  0  0  0  0  0  0  0  0
   68.0625   46.1083   51.7071 C   0  0  0  0  0  0  0  0  0  0  0  0
   67.6323   45.4967   52.8782 C   0  0  0  0  0  0  0  0  0  0  0  0
   67.9606   46.0284   54.1030 C   0  0  0  0  0  0  0  0  0  0  0  0
   68.7160   47.1681   54.2201 C   0  0  0  0  0  0  0  0  0  0  0  0
   69.1922   47.9243   55.3181 C   0  0  0  0  0  0  0  0  0  0  0  0
   68.8886   47.5752   56.6745 C   0  0  0  0  0  0  0  0  0  0  0  0
   69.0785   46.5781   57.3799 N   0  0  0  0  0  0  0  0  0  0  0  0
   69.6497   45.3716   57.2145 N   0  0  0  0  0  0  0  0  0  0  0  0
   70.4873   44.7384   58.2212 C   0  0  0  0  0  0  0  0  0  0  0  0
   70.6436   45.4084   59.2752 O   0  0  0  0  0  0  0  0  0  0  0  0
   71.0881   43.4271   58.0002 C   0  0  0  0  0  0  0  0  0  0  0  0
   72.0688   42.5949   57.6938 C   0  0  0  0  0  0  0  0  0  0  0  0
   73.3828   42.4925   57.3280 F   0  0  0  0  0  0  0  0  0  0  0  0
   70.8113   41.9616   58.0123 C   0  0  0  0  0  0  0  0  0  0  0  0
  1  2  1  0  0  0
  2  3  1  0  0  0
  2 10  2  0  0  0
  3  4  1  0  0  0
  4  5  2  0  0  0
  4  9  1  0  0  0
  5  6  1  0  0  0
  6  7  2  0  0  0
  7  8  1  0  0  0
  8  9  2  0  0  0
  9 10  1  0  0  0
 10 11  1  0  0  0
 11 12  2  0  0  0
 12 13  1  0  0  0
 13 14  1  0  0  0
 14 15  2  0  0  0
 14 16  1  0  0  0
 16 17  2  0  0  0
 16 19  1  0  0  0
 17 18  1  0  0  0
 17 19  1  0  0  0
M  END
> <minimizedAffinity>
-7.52775

$$$$
cs_R5_output_folder/data/smiles/20.pdb


 20 21  0  0  0  0  0  0  0  0999 V2000
   71.4834   52.8557   55.4330 C   0  0  0  0  0  0  0  0  0  0  0  0
   70.6214   53.6829   56.1192 C   0  0  0  0  0  0  0  0  0  0  0  0
   69.2798   53.3806   56.1987 C   0  0  0  0  0  0  0  0  0  0  0  0
   68.8083   52.2232   55.5730 C   0  0  0  0  0  0  0  0  0  0  0  0
   69.6617   51.3899   54.8847 C   0  0  0  0  0  0  0  0  0  0  0  0
   70.9857   51.7119   54.8212 C   0  0  0  0  0  0  0  0  0  0  0  0
   69.1373   50.2279   54.2668 N   0  0  0  0  0  0  0  0  0  0  0  0
   69.4819   48.9147   54.6477 C   0  0  0  0  0  0  0  0  0  0  0  0
   70.2994   48.7800   55.5867 O   0  0  0  0  0  0  0  0  0  0  0  0
   68.9341   47.7000   54.0041 C   0  0  0  0  0  0  0  0  0  0  0  0
   68.8080   47.5986   52.6475 C   0  0  0  0  0  0  0  0  0  0  0  0
   68.2789   46.4082   52.1345 C   0  0  0  0  0  0  0  0  0  0  0  0
   67.8991   45.3773   52.9628 C   0  0  0  0  0  0  0  0  0  0  0  0
   68.0320   45.5019   54.2756 N   0  0  0  0  0  0  0  0  0  0  0  0
   67.6460   44.4543   55.1186 O   0  0  0  0  0  0  0  0  0  0  0  0
   68.5376   46.6362   54.7832 C   0  0  0  0  0  0  0  0  0  0  0  0
   72.8971   53.2034   55.3677 C   0  0  0  0  0  0  0  0  0  0  0  0
   73.2162   54.2261   54.7102 O   0  0  0  0  0  0  0  0  0  0  0  0
   74.5160   51.4202   55.2884 C   0  0  0  0  0  0  0  0  0  0  0  0
   73.8774   52.4642   55.9906 O   0  0  0  0  0  0  0  0  0  0  0  0
 19 20  1  0  0  0
 20 17  1  0  0  0
 17 18  2  0  0  0
 17  1  1  0  0  0
  1  2  2  0  0  0
  1  6  1  0  0  0
  2  3  1  0  0  0
  3  4  2  0  0  0
  4  5  1  0  0  0
  5  7  1  0  0  0
  5  6  2  0  0  0
  7  8  1  0  0  0
  8  9  2  0  0  0
  8 10  1  0  0  0
 10 11  2  0  0  0
 10 16  1  0  0  0
 11 12  1  0  0  0
 12 13  2  0  0  0
 13 14  1  0  0  0
 14 15  1  0  0  0
 14 16  2  0  0  0
M  CHG 1  14   1
M  CHG 1  15  -1
M  END
> <minimizedAffinity>
-6.25140

$$$$
cs_R5_output_folder/data/smiles/21.pdb


 19 21  0  0  0  0  0  0  0  0999 V2000
   71.2006   49.2466   53.4018 O   0  0  0  0  0  0  0  0  0  0  0  0
   70.0414   49.0049   53.9616 C   0  0  0  0  0  0  0  0  0  0  0  0
   69.7077   49.9092   54.9814 N   0  0  0  0  0  0  0  0  0  0  0  0
   70.3637   51.2368   55.1351 C   0  0  0  0  0  0  0  0  0  0  0  0
   69.0873   52.0599   55.3717 C   0  0  0  0  0  0  0  0  0  0  0  0
   68.3185   51.1879   56.2921 C   0  0  0  0  0  0  0  0  0  0  0  0
   67.3913   51.4269   57.2682 C   0  0  0  0  0  0  0  0  0  0  0  0
   66.8700   50.3481   57.9937 C   0  0  0  0  0  0  0  0  0  0  0  0
   67.3004   49.0592   57.7119 C   0  0  0  0  0  0  0  0  0  0  0  0
   68.2313   48.8258   56.7310 C   0  0  0  0  0  0  0  0  0  0  0  0
   68.7438   49.9027   56.0136 C   0  0  0  0  0  0  0  0  0  0  0  0
   69.2953   47.8843   53.4692 C   0  0  0  0  0  0  0  0  0  0  0  0
   68.7169   46.9249   54.2357 C   0  0  0  0  0  0  0  0  0  0  0  0
   67.9499   45.8835   53.6800 C   0  0  0  0  0  0  0  0  0  0  0  0
   67.7663   45.8125   52.3355 C   0  0  0  0  0  0  0  0  0  0  0  0
   67.0078   44.7825   51.7730 O   0  0  0  0  0  0  0  0  0  0  0  0
   68.3377   46.7712   51.5274 C   0  0  0  0  0  0  0  0  0  0  0  0
   69.0858   47.7834   52.0914 C   0  0  0  0  0  0  0  0  0  0  0  0
   69.6491   48.7354   51.2406 O   0  0  0  0  0  0  0  0  0  0  0  0
  1  2  2  0  0  0
  2 12  1  0  0  0
  2  3  1  0  0  0
 12 13  2  0  0  0
 12 18  1  0  0  0
 13 14  1  0  0  0
 14 15  2  0  0  0
 15 16  1  0  0  0
 15 17  1  0  0  0
 17 18  2  0  0  0
 18 19  1  0  0  0
  3  4  1  0  0  0
  3 11  1  0  0  0
  4  5  1  0  0  0
  5  6  1  0  0  0
  6  7  1  0  0  0
  6 11  2  0  0  0
  7  8  2  0  0  0
  8  9  1  0  0  0
  9 10  2  0  0  0
 10 11  1  0  0  0
M  END
> <minimizedAffinity>
-8.50601

$$$$
cs_R5_output_folder/data/smiles/22.pdb


 32 36  0  0  0  0  0  0  0  0999 V2000
   71.5199   47.0986   58.7951 C   0  0  0  0  0  0  0  0  0  0  0  0
   70.6640   47.9145   58.0449 C   0  0  0  0  0  0  0  0  0  0  0  0
   69.7536   47.3937   57.1614 C   0  0  0  0  0  0  0  0  0  0  0  0
   69.6967   46.0060   57.0216 C   0  0  0  0  0  0  0  0  0  0  0  0
   70.5242   45.1943   57.7445 C   0  0  0  0  0  0  0  0  0  0  0  0
   71.4451   45.7417   58.6400 C   0  0  0  0  0  0  0  0  0  0  0  0
   72.2700   44.9518   59.3590 F   0  0  0  0  0  0  0  0  0  0  0  0
   75.6359   48.5553   58.6597 C   0  0  0  0  0  0  0  0  0  0  0  0
   75.0379   48.3251   60.0206 C   0  0  0  0  0  0  0  0  0  0  0  0
   73.8472   47.8325   59.3817 N   0  0  0  0  0  0  0  0  0  0  0  0
   72.4944   47.6247   59.7406 C   0  0  0  0  0  0  0  0  0  0  0  0
   72.0630   47.8862   60.8948 O   0  0  0  0  0  0  0  0  0  0  0  0
   74.6021   47.6272   58.1766 C   0  0  0  0  0  0  0  0  0  0  0  0
   77.4775   47.4772   59.8173 C   0  0  0  0  0  0  0  0  0  0  0  0
   77.0200   48.3028   58.6161 N   0  0  0  0  0  0  0  0  0  0  0  0
   78.0566   48.6070   57.7491 C   0  0  0  0  0  0  0  0  0  0  0  0
   79.2319   48.0923   58.1446 O   0  0  0  0  0  0  0  0  0  0  0  0
   78.2100   49.3360   56.5135 C   0  0  0  0  0  0  0  0  0  0  0  0
   78.5201   50.8490   56.6626 C   0  0  0  0  0  0  0  0  0  0  0  0
   77.3788   50.3402   55.8810 C   0  0  0  0  0  0  0  0  0  0  0  0
   68.8231   48.2010   56.3331 C   0  0  0  0  0  0  0  0  0  0  0  0
   69.2597   48.3155   54.9127 C   0  0  0  0  0  0  0  0  0  0  0  0
   70.2128   49.2239   54.5693 N   0  0  0  0  0  0  0  0  0  0  0  0
   70.6898   49.3317   53.3531 N   0  0  0  0  0  0  0  0  0  0  0  0
   70.2756   48.5520   52.3373 C   0  0  0  0  0  0  0  0  0  0  0  0
   70.7580   48.6901   51.1960 O   0  0  0  0  0  0  0  0  0  0  0  0
   69.2975   47.6071   52.6428 C   0  0  0  0  0  0  0  0  0  0  0  0
   68.8542   46.8181   51.5908 C   0  0  0  0  0  0  0  0  0  0  0  0
   67.8683   45.8907   51.8650 C   0  0  0  0  0  0  0  0  0  0  0  0
   67.3604   45.7705   53.1354 C   0  0  0  0  0  0  0  0  0  0  0  0
   67.8144   46.5633   54.1625 C   0  0  0  0  0  0  0  0  0  0  0  0
   68.7946   47.4904   53.9179 C   0  0  0  0  0  0  0  0  0  0  0  0
 14 15  1  0  0  0
 15 16  1  0  0  0
 15  8  1  0  0  0
 16 17  2  0  0  0
 16 18  1  0  0  0
 18 19  1  0  0  0
 18 20  1  0  0  0
 19 20  1  0  0  0
  8  9  1  0  0  0
  8 13  1  0  0  0
  9 10  1  0  0  0
 10 11  1  0  0  0
 10 13  1  0  0  0
 11 12  2  0  0  0
 11  1  1  0  0  0
  1  2  2  0  0  0
  1  6  1  0  0  0
  2  3  1  0  0  0
  3 21  1  0  0  0
  3  4  2  0  0  0
 21 22  1  0  0  0
 22 23  2  0  0  0
 22 32  1  0  0  0
 23 24  1  0  0  0
 24 25  1  0  0  0
 25 26  2  0  0  0
 25 27  1  0  0  0
 27 28  1  0  0  0
 27 32  2  0  0  0
 28 29  2  0  0  0
 29 30  1  0  0  0
 30 31  2  0  0  0
 31 32  1  0  0  0
  4  5  1  0  0  0
  5  6  2  0  0  0
  6  7  1  0  0  0
M  END
> <minimizedAffinity>
-9.30283

$$$$
cs_R5_output_folder/data/smiles/23.pdb


 27 28  0  0  0  0  0  0  0  0999 V2000
   70.3705   38.2688   59.1567 C   0  0  0  0  0  0  0  0  0  0  0  0
   69.5646   37.5582   59.9117 C   0  0  0  0  0  0  0  0  0  0  0  0
   68.1508   37.8471   59.7419 C   0  0  0  0  0  0  0  0  0  0  0  0
   67.8050   38.8123   58.8316 C   0  0  0  0  0  0  0  0  0  0  0  0
   68.7185   39.5312   58.0695 C   0  0  0  0  0  0  0  0  0  0  0  0
   70.0779   39.2123   58.2734 C   0  0  0  0  0  0  0  0  0  0  0  0
   72.4386   36.1854   57.7191 C   0  0  0  0  0  0  0  0  0  0  0  0
   72.1234   37.1370   58.5360 S   0  0  0  0  0  0  0  0  0  0  0  0
   71.9574   37.6142   58.9533 C   0  0  0  0  0  0  0  0  0  0  0  0
   71.5182   39.0074   60.1841 C   0  0  0  0  0  0  0  0  0  0  0  0
   71.2979   39.6678   60.7850 C   0  0  0  0  0  0  0  0  0  0  0  0
   70.9930   40.6506   61.6767 C   0  0  0  0  0  0  0  0  0  0  0  0
   69.7023   40.8572   61.8966 C   0  0  0  0  0  0  0  0  0  0  0  0
   69.1979   41.8349   62.7951 C   0  0  0  0  0  0  0  0  0  0  0  0
   69.2602   41.6451   64.0707 O   0  0  0  0  0  0  0  0  0  0  0  0
   68.6310   43.0307   62.3470 N   0  0  0  0  0  0  0  0  0  0  0  0
   68.1605   43.9960   63.1128 O   0  0  0  0  0  0  0  0  0  0  0  0
   68.2471   40.5155   57.2029 N   0  0  0  0  0  0  0  0  0  0  0  0
   68.1579   42.1385   57.7948 S   0  0  0  0  0  0  0  0  0  0  0  0
   67.5916   42.9885   56.6745 O   0  0  0  0  0  0  0  0  0  0  0  0
   67.2853   42.2782   58.9854 O   0  0  0  0  0  0  0  0  0  0  0  0
   69.8036   42.6625   58.1767 C   0  0  0  0  0  0  0  0  0  0  0  0
   70.0954   43.4875   59.2629 C   0  0  0  0  0  0  0  0  0  0  0  0
   71.3942   43.8048   59.5398 C   0  0  0  0  0  0  0  0  0  0  0  0
   72.4590   43.3707   58.8182 C   0  0  0  0  0  0  0  0  0  0  0  0
   72.1998   42.5356   57.7241 C   0  0  0  0  0  0  0  0  0  0  0  0
   70.8836   42.2261   57.4583 C   0  0  0  0  0  0  0  0  0  0  0  0
  7  8  3  0  0  0
  8 10  1  0  0  0
  8  9  2  0  0  0
 10 11  3  0  0  0
 11 12  1  0  0  0
 12 13  2  0  0  0
 13 14  1  0  0  0
 14 15  2  0  0  0
 14 16  1  0  0  0
 16 17  1  0  0  0
  9  1  1  0  0  0
  1  2  2  0  0  0
  1  6  1  0  0  0
  2  3  1  0  0  0
  3  4  2  0  0  0
  4  5  1  0  0  0
  5 18  1  0  0  0
  5  6  2  0  0  0
 18 19  1  0  0  0
 19 20  2  0  0  0
 19 21  2  0  0  0
 19 22  1  0  0  0
 22 23  2  0  0  0
 22 27  1  0  0  0
 23 24  1  0  0  0
 24 25  2  0  0  0
 25 26  1  0  0  0
 26 27  2  0  0  0
M  END
> <minimizedAffinity>
-6.59019

$$$$
cs_R5_output_folder/data/smiles/24.pdb


 25 27  0  0  0  0  0  0  0  0999 V2000
   75.8200   34.8912   55.9800 C   0  0  0  0  0  0  0  0  0  0  0  0
   74.7097   35.1953   55.0740 C   0  0  0  0  0  0  0  0  0  0  0  0
   74.8048   35.4944   53.7363 C   0  0  0  0  0  0  0  0  0  0  0  0
   73.4632   35.6948   53.3366 C   0  0  0  0  0  0  0  0  0  0  0  0
   72.6900   35.5144   54.4011 N   0  0  0  0  0  0  0  0  0  0  0  0
   73.3935   35.2134   55.4698 N   0  0  0  0  0  0  0  0  0  0  0  0
   72.8511   34.9866   56.7692 C   0  0  0  0  0  0  0  0  0  0  0  0
   72.3337   36.0325   57.5149 C   0  0  0  0  0  0  0  0  0  0  0  0
   71.7958   35.7827   58.7763 C   0  0  0  0  0  0  0  0  0  0  0  0
   71.7447   34.5367   59.3344 C   0  0  0  0  0  0  0  0  0  0  0  0
   71.0587   34.2395   60.9291 Cl  0  0  0  0  0  0  0  0  0  0  0  0
   72.2631   33.4721   58.5927 C   0  0  0  0  0  0  0  0  0  0  0  0
   72.7968   33.7356   57.3369 C   0  0  0  0  0  0  0  0  0  0  0  0
   75.9506   35.6419   52.8584 C   0  0  0  0  0  0  0  0  0  0  0  0
   76.7117   36.6830   52.9856 O   0  0  0  0  0  0  0  0  0  0  0  0
   76.3576   34.7578   51.8427 N   0  0  0  0  0  0  0  0  0  0  0  0
   77.5419   35.0385   51.0181 C   0  0  0  0  0  0  0  0  0  0  0  0
   77.2598   34.7136   49.5935 C   0  0  0  0  0  0  0  0  0  0  0  0
   76.2168   34.0222   49.1682 C   0  0  0  0  0  0  0  0  0  0  0  0
   76.2724   33.9069   47.7105 C   0  0  0  0  0  0  0  0  0  0  0  0
   77.5266   34.6557   47.3282 C   0  0  0  0  0  0  0  0  0  0  0  0
   78.0466   35.0923   48.4634 C   0  0  0  0  0  0  0  0  0  0  0  0
   78.0207   34.8312   45.9688 C   0  0  0  0  0  0  0  0  0  0  0  0
   79.4074   34.5318   45.6952 N   0  0  0  0  0  0  0  0  0  0  0  0
   77.3178   35.2311   45.0038 O   0  0  0  0  0  0  0  0  0  0  0  0
  1  2  1  0  0  0
  2  3  2  0  0  0
  2  6  1  0  0  0
  3 14  1  0  0  0
  3  4  1  0  0  0
 14 15  2  0  0  0
 14 16  1  0  0  0
 16 17  1  0  0  0
 17 18  1  0  0  0
 18 19  2  0  0  0
 18 22  1  0  0  0
 19 20  1  0  0  0
 20 21  1  0  0  0
 21 23  1  0  0  0
 21 22  2  0  0  0
 23 24  1  0  0  0
 23 25  2  0  0  0
  4  5  2  0  0  0
  5  6  1  0  0  0
  6  7  1  0  0  0
  7  8  2  0  0  0
  7 13  1  0  0  0
  8  9  1  0  0  0
  9 10  2  0  0  0
 10 11  1  0  0  0
 10 12  1  0  0  0
 12 13  2  0  0  0
M  END
> <minimizedAffinity>
-7.76152

$$$$
cs_R5_output_folder/data/smiles/25.pdb


 22 23  0  0  0  0  0  0  0  0999 V2000
   72.2788   51.0386   54.0358 N   0  0  0  0  0  0  0  0  0  0  0  0
   70.0811   50.3499   52.6389 O   0  0  0  0  0  0  0  0  0  0  0  0
   70.3737   49.5923   53.6255 C   0  0  0  0  0  0  0  0  0  0  0  0
   71.5180   49.9212   54.3821 N   0  0  0  0  0  0  0  0  0  0  0  0
   69.5470   48.4471   53.9348 C   0  0  0  0  0  0  0  0  0  0  0  0
   69.2899   48.0763   55.2182 C   0  0  0  0  0  0  0  0  0  0  0  0
   68.4834   46.9600   55.4664 C   0  0  0  0  0  0  0  0  0  0  0  0
   67.9392   46.2220   54.4395 C   0  0  0  0  0  0  0  0  0  0  0  0
   68.2017   46.6019   53.1416 C   0  0  0  0  0  0  0  0  0  0  0  0
   67.5445   45.7108   51.7646 Cl  0  0  0  0  0  0  0  0  0  0  0  0
   68.9852   47.6845   52.9182 C   0  0  0  0  0  0  0  0  0  0  0  0
   72.3307   52.2690   54.6754 C   0  0  0  0  0  0  0  0  0  0  0  0
   73.7630   53.0494   54.7524 S   0  0  0  0  0  0  0  0  0  0  0  0
   71.2100   52.8683   55.2554 N   0  0  0  0  0  0  0  0  0  0  0  0
   70.2183   52.2390   56.0592 C   0  0  0  0  0  0  0  0  0  0  0  0
   70.5050   51.6510   57.2539 C   0  0  0  0  0  0  0  0  0  0  0  0
   69.4855   51.0540   57.9778 C   0  0  0  0  0  0  0  0  0  0  0  0
   69.7233   50.4559   59.1734 F   0  0  0  0  0  0  0  0  0  0  0  0
   68.1891   51.0538   57.4930 C   0  0  0  0  0  0  0  0  0  0  0  0
   67.9060   51.6471   56.2890 C   0  0  0  0  0  0  0  0  0  0  0  0
   68.9232   52.2320   55.5885 C   0  0  0  0  0  0  0  0  0  0  0  0
   68.6430   52.8204   54.3942 F   0  0  0  0  0  0  0  0  0  0  0  0
  2  3  2  0  0  0
  3  4  1  0  0  0
  3  5  1  0  0  0
  4  1  1  0  0  0
  1 12  1  0  0  0
 12 13  2  0  0  0
 12 14  1  0  0  0
 14 15  1  0  0  0
 15 16  2  0  0  0
 15 21  1  0  0  0
 16 17  1  0  0  0
 17 18  1  0  0  0
 17 19  2  0  0  0
 19 20  1  0  0  0
 20 21  2  0  0  0
 21 22  1  0  0  0
  5  6  2  0  0  0
  5 11  1  0  0  0
  6  7  1  0  0  0
  7  8  2  0  0  0
  8  9  1  0  0  0
  9 10  1  0  0  0
  9 11  2  0  0  0
M  END
> <minimizedAffinity>
-7.94494

$$$$
cs_R5_output_folder/data/smiles/26.pdb


 28 31  0  0  0  0  0  0  0  0999 V2000
   70.6453   45.5243   57.9535 C   0  0  0  0  0  0  0  0  0  0  0  0
   69.7907   46.3277   57.2012 C   0  0  0  0  0  0  0  0  0  0  0  0
   69.8978   47.6999   57.0988 C   0  0  0  0  0  0  0  0  0  0  0  0
   70.9127   48.3036   57.7862 C   0  0  0  0  0  0  0  0  0  0  0  0
   71.8000   47.5535   58.5563 C   0  0  0  0  0  0  0  0  0  0  0  0
   71.6436   46.1601   58.6234 C   0  0  0  0  0  0  0  0  0  0  0  0
   72.5523   45.5439   59.4107 F   0  0  0  0  0  0  0  0  0  0  0  0
   71.4571   43.3130   57.7741 O   0  0  0  0  0  0  0  0  0  0  0  0
   70.4693   44.0885   57.9901 C   0  0  0  0  0  0  0  0  0  0  0  0
   69.2427   43.4492   58.2589 N   0  0  0  0  0  0  0  0  0  0  0  0
   69.1493   41.9819   58.2699 C   0  0  0  0  0  0  0  0  0  0  0  0
   68.3716   41.5441   57.1024 C   0  0  0  0  0  0  0  0  0  0  0  0
   68.1945   40.3096   56.5498 C   0  0  0  0  0  0  0  0  0  0  0  0
   67.3837   40.4720   55.4817 N   0  0  0  0  0  0  0  0  0  0  0  0
   67.0742   41.7253   55.3738 O   0  0  0  0  0  0  0  0  0  0  0  0
   67.6297   42.4231   56.3093 C   0  0  0  0  0  0  0  0  0  0  0  0
   68.8801   48.4106   56.2541 C   0  0  0  0  0  0  0  0  0  0  0  0
   69.2805   48.4010   54.8401 C   0  0  0  0  0  0  0  0  0  0  0  0
   70.1743   49.3535   54.4371 N   0  0  0  0  0  0  0  0  0  0  0  0
   70.5853   49.4984   53.2096 N   0  0  0  0  0  0  0  0  0  0  0  0
   70.1212   48.6694   52.2391 C   0  0  0  0  0  0  0  0  0  0  0  0
   70.5142   48.8029   51.0477 O   0  0  0  0  0  0  0  0  0  0  0  0
   69.2190   47.6749   52.5376 C   0  0  0  0  0  0  0  0  0  0  0  0
   68.7269   46.7962   51.6009 C   0  0  0  0  0  0  0  0  0  0  0  0
   67.8354   45.7922   51.9202 C   0  0  0  0  0  0  0  0  0  0  0  0
   67.4427   45.6908   53.2322 C   0  0  0  0  0  0  0  0  0  0  0  0
   67.9386   46.5816   54.1888 C   0  0  0  0  0  0  0  0  0  0  0  0
   68.8161   47.5691   53.8707 C   0  0  0  0  0  0  0  0  0  0  0  0
  8  9  2  0  0  0
  9 10  1  0  0  0
  9  1  1  0  0  0
 10 11  1  0  0  0
 11 12  1  0  0  0
 12 13  1  0  0  0
 12 16  2  0  0  0
 13 14  2  0  0  0
 14 15  1  0  0  0
 15 16  1  0  0  0
  1  2  2  0  0  0
  1  6  1  0  0  0
  2  3  1  0  0  0
  3 17  1  0  0  0
  3  4  2  0  0  0
 17 18  1  0  0  0
 18 19  2  0  0  0
 18 28  1  0  0  0
 19 20  1  0  0  0
 20 21  1  0  0  0
 21 22  2  0  0  0
 21 23  1  0  0  0
 23 24  1  0  0  0
 23 28  2  0  0  0
 24 25  2  0  0  0
 25 26  1  0  0  0
 26 27  2  0  0  0
 27 28  1  0  0  0
  4  5  1  0  0  0
  5  6  2  0  0  0
  6  7  1  0  0  0
M  END
> <minimizedAffinity>
-10.28623

$$$$
cs_R5_output_folder/data/smiles/27.pdb


 29 33  0  0  0  0  0  0  0  0999 V2000
   71.6365   47.1389   59.0599 C   0  0  0  0  0  0  0  0  0  0  0  0
   70.7429   47.8289   58.2606 C   0  0  0  0  0  0  0  0  0  0  0  0
   69.9496   47.2662   57.3069 C   0  0  0  0  0  0  0  0  0  0  0  0
   70.0979   45.8708   57.1772 C   0  0  0  0  0  0  0  0  0  0  0  0
   70.9707   45.1482   57.9491 C   0  0  0  0  0  0  0  0  0  0  0  0
   71.7562   45.7847   58.9095 C   0  0  0  0  0  0  0  0  0  0  0  0
   72.6198   45.0557   59.6722 F   0  0  0  0  0  0  0  0  0  0  0  0
   72.1615   47.7178   61.2553 O   0  0  0  0  0  0  0  0  0  0  0  0
   72.4553   47.8237   60.0425 C   0  0  0  0  0  0  0  0  0  0  0  0
   73.5550   48.5902   59.6487 N   0  0  0  0  0  0  0  0  0  0  0  0
   74.4358   49.3166   60.5462 C   0  0  0  0  0  0  0  0  0  0  0  0
   75.6458   49.7377   59.7427 C   0  0  0  0  0  0  0  0  0  0  0  0
   75.4823   49.0849   58.3854 C   0  0  0  0  0  0  0  0  0  0  0  0
   76.4163   47.9708   58.0599 C   0  0  0  0  0  0  0  0  0  0  0  0
   77.2560   48.9653   57.2587 C   0  0  0  0  0  0  0  0  0  0  0  0
   76.0396   49.8776   57.2338 C   0  0  0  0  0  0  0  0  0  0  0  0
   73.9984   48.7797   58.2782 C   0  0  0  0  0  0  0  0  0  0  0  0
   68.9834   47.9672   56.4231 C   0  0  0  0  0  0  0  0  0  0  0  0
   69.4167   48.1360   55.0348 C   0  0  0  0  0  0  0  0  0  0  0  0
   70.3347   49.0581   54.6767 N   0  0  0  0  0  0  0  0  0  0  0  0
   70.7358   49.3016   53.4480 N   0  0  0  0  0  0  0  0  0  0  0  0
   70.2342   48.6143   52.4219 C   0  0  0  0  0  0  0  0  0  0  0  0
   70.5872   48.8131   51.2223 O   0  0  0  0  0  0  0  0  0  0  0  0
   69.2757   47.6340   52.6975 C   0  0  0  0  0  0  0  0  0  0  0  0
   68.7470   46.8871   51.6533 C   0  0  0  0  0  0  0  0  0  0  0  0
   67.8174   45.9006   51.8730 C   0  0  0  0  0  0  0  0  0  0  0  0
   67.4330   45.6846   53.1786 C   0  0  0  0  0  0  0  0  0  0  0  0
   67.9430   46.4099   54.2256 C   0  0  0  0  0  0  0  0  0  0  0  0
   68.8645   47.3891   53.9864 C   0  0  0  0  0  0  0  0  0  0  0  0
  8  9  2  0  0  0
  9  1  1  0  0  0
  9 10  1  0  0  0
  1  2  2  0  0  0
  1  6  1  0  0  0
  2  3  1  0  0  0
  3 18  1  0  0  0
  3  4  2  0  0  0
 18 19  1  0  0  0
 19 20  2  0  0  0
 19 29  1  0  0  0
 20 21  1  0  0  0
 21 22  1  0  0  0
 22 23  2  0  0  0
 22 24  1  0  0  0
 24 25  1  0  0  0
 24 29  2  0  0  0
 25 26  2  0  0  0
 26 27  1  0  0  0
 27 28  2  0  0  0
 28 29  1  0  0  0
  4  5  1  0  0  0
  5  6  2  0  0  0
  6  7  1  0  0  0
 10 11  1  0  0  0
 10 17  1  0  0  0
 11 12  1  0  0  0
 12 13  1  0  0  0
 13 14  1  0  0  0
 13 16  1  0  0  0
 13 17  1  0  0  0
 14 15  1  0  0  0
 15 16  1  0  0  0
M  END
> <minimizedAffinity>
-9.03664

$$$$
cs_R5_output_folder/data/smiles/28.pdb


 21 23  0  0  0  0  0  0  0  0999 V2000
   71.0531   51.3021   55.1892 C   0  0  0  0  0  0  0  0  0  0  0  0
   69.8724   50.8806   54.6301 C   0  0  0  0  0  0  0  0  0  0  0  0
   69.0164   51.9907   54.6740 C   0  0  0  0  0  0  0  0  0  0  0  0
   69.7086   52.9662   55.2343 N   0  0  0  0  0  0  0  0  0  0  0  0
   70.9325   52.6140   55.5635 N   0  0  0  0  0  0  0  0  0  0  0  0
   69.5097   49.5797   54.1032 C   0  0  0  0  0  0  0  0  0  0  0  0
   69.1114   48.5243   54.8781 C   0  0  0  0  0  0  0  0  0  0  0  0
   68.7936   47.2883   54.3699 C   0  0  0  0  0  0  0  0  0  0  0  0
   68.8800   47.1009   53.0176 C   0  0  0  0  0  0  0  0  0  0  0  0
   69.2716   48.1106   52.1761 C   0  0  0  0  0  0  0  0  0  0  0  0
   69.5850   49.3507   52.7341 C   0  0  0  0  0  0  0  0  0  0  0  0
   69.9798   50.3601   51.8724 O   0  0  0  0  0  0  0  0  0  0  0  0
   71.9465   53.4014   56.1810 C   0  0  0  0  0  0  0  0  0  0  0  0
   72.8634   54.0893   55.4122 C   0  0  0  0  0  0  0  0  0  0  0  0
   73.8626   54.8698   55.9783 C   0  0  0  0  0  0  0  0  0  0  0  0
   73.9753   54.9871   57.3449 C   0  0  0  0  0  0  0  0  0  0  0  0
   73.0666   54.3057   58.1275 C   0  0  0  0  0  0  0  0  0  0  0  0
   72.0777   53.5330   57.5481 C   0  0  0  0  0  0  0  0  0  0  0  0
   72.3008   50.5635   55.3825 C   0  0  0  0  0  0  0  0  0  0  0  0
   73.6387   49.0941   56.8644 N   0  0  0  0  0  0  0  0  0  0  0  0
   72.4580   49.8447   56.6796 C   0  0  0  0  0  0  0  0  0  0  0  0
 20 21  1  0  0  0
 21 19  1  0  0  0
 19  1  1  0  0  0
  1  2  2  0  0  0
  1  5  1  0  0  0
  2  6  1  0  0  0
  2  3  1  0  0  0
  6  7  2  0  0  0
  6 11  1  0  0  0
  7  8  1  0  0  0
  8  9  2  0  0  0
  9 10  1  0  0  0
 10 11  2  0  0  0
 11 12  1  0  0  0
  3  4  2  0  0  0
  4  5  1  0  0  0
  5 13  1  0  0  0
 13 14  2  0  0  0
 13 18  1  0  0  0
 14 15  1  0  0  0
 15 16  2  0  0  0
 16 17  1  0  0  0
 17 18  2  0  0  0
M  CHG 1  20   1
M  END
> <minimizedAffinity>
-6.36437

$$$$
cs_R5_output_folder/data/smiles/29.pdb


 20 22  0  0  0  0  0  0  0  0999 V2000
   72.7309   35.3192   54.0176 O   0  0  0  0  0  0  0  0  0  0  0  0
   73.9498   35.3066   54.3098 C   0  0  0  0  0  0  0  0  0  0  0  0
   74.3045   35.2841   55.6731 N   0  0  0  0  0  0  0  0  0  0  0  0
   74.9073   35.3136   53.2106 C   0  0  0  0  0  0  0  0  0  0  0  0
   76.1146   35.9764   53.2770 C   0  0  0  0  0  0  0  0  0  0  0  0
   77.0150   35.9747   52.2269 C   0  0  0  0  0  0  0  0  0  0  0  0
   76.7239   35.2966   51.0606 C   0  0  0  0  0  0  0  0  0  0  0  0
   77.5914   35.2649   49.9808 C   0  0  0  0  0  0  0  0  0  0  0  0
   77.2878   34.5819   48.8197 C   0  0  0  0  0  0  0  0  0  0  0  0
   76.0760   33.9245   48.7679 C   0  0  0  0  0  0  0  0  0  0  0  0
   75.2152   33.9597   49.8471 C   0  0  0  0  0  0  0  0  0  0  0  0
   75.5094   34.6398   51.0153 C   0  0  0  0  0  0  0  0  0  0  0  0
   74.6488   34.6605   52.0604 N   0  0  0  0  0  0  0  0  0  0  0  0
   73.3669   35.2776   56.7448 C   0  0  0  0  0  0  0  0  0  0  0  0
   73.1112   34.0911   57.4148 C   0  0  0  0  0  0  0  0  0  0  0  0
   72.2037   34.0409   58.4660 C   0  0  0  0  0  0  0  0  0  0  0  0
   71.5225   35.1648   58.8849 C   0  0  0  0  0  0  0  0  0  0  0  0
   71.7807   36.3417   58.2140 C   0  0  0  0  0  0  0  0  0  0  0  0
   71.1123   37.4579   58.6188 F   0  0  0  0  0  0  0  0  0  0  0  0
   72.6872   36.3885   57.1654 C   0  0  0  0  0  0  0  0  0  0  0  0
  1  2  2  0  0  0
  2  3  1  0  0  0
  2  4  1  0  0  0
  3 14  1  0  0  0
 14 15  2  0  0  0
 14 20  1  0  0  0
 15 16  1  0  0  0
 16 17  2  0  0  0
 17 18  1  0  0  0
 18 19  1  0  0  0
 18 20  2  0  0  0
  4  5  2  0  0  0
  4 13  1  0  0  0
  5  6  1  0  0  0
  6  7  2  0  0  0
  7  8  1  0  0  0
  7 12  1  0  0  0
  8  9  2  0  0  0
  9 10  1  0  0  0
 10 11  2  0  0  0
 11 12  1  0  0  0
 12 13  2  0  0  0
M  END
> <minimizedAffinity>
-7.22555

$$$$
cs_R5_output_folder/data/smiles/30.pdb


 19 20  0  0  0  0  0  0  0  0999 V2000
   75.5891   35.1070   52.2937 C   0  0  0  0  0  0  0  0  0  0  0  0
   76.7783   35.7942   52.1258 C   0  0  0  0  0  0  0  0  0  0  0  0
   77.4897   35.7386   50.9416 C   0  0  0  0  0  0  0  0  0  0  0  0
   77.0430   34.9926   49.8726 C   0  0  0  0  0  0  0  0  0  0  0  0
   75.8594   34.3050   50.0298 C   0  0  0  0  0  0  0  0  0  0  0  0
   75.1549   34.3641   51.2148 C   0  0  0  0  0  0  0  0  0  0  0  0
   73.4342   35.3582   55.9916 C   0  0  0  0  0  0  0  0  0  0  0  0
   74.7718   35.0233   55.9595 C   0  0  0  0  0  0  0  0  0  0  0  0
   75.4687   34.9410   54.7722 C   0  0  0  0  0  0  0  0  0  0  0  0
   74.8676   35.1890   53.5555 C   0  0  0  0  0  0  0  0  0  0  0  0
   73.5290   35.5241   53.5928 C   0  0  0  0  0  0  0  0  0  0  0  0
   72.8230   35.6089   54.7757 C   0  0  0  0  0  0  0  0  0  0  0  0
   72.3671   36.7307   57.7529 N   0  0  0  0  0  0  0  0  0  0  0  0
   72.6914   35.4474   57.2474 C   0  0  0  0  0  0  0  0  0  0  0  0
   72.3319   34.4431   57.8924 O   0  0  0  0  0  0  0  0  0  0  0  0
   77.8153   34.9330   48.5876 C   0  0  0  0  0  0  0  0  0  0  0  0
   77.0001   35.2148   47.5173 F   0  0  0  0  0  0  0  0  0  0  0  0
   78.8026   35.8872   48.6492 F   0  0  0  0  0  0  0  0  0  0  0  0
   78.4351   33.7072   48.4696 F   0  0  0  0  0  0  0  0  0  0  0  0
 13 14  1  0  0  0
 14 15  2  0  0  0
 14  7  1  0  0  0
  7  8  2  0  0  0
  7 12  1  0  0  0
  8  9  1  0  0  0
  9 10  2  0  0  0
 10  1  1  0  0  0
 10 11  1  0  0  0
  1  2  2  0  0  0
  1  6  1  0  0  0
  2  3  1  0  0  0
  3  4  2  0  0  0
  4 16  1  0  0  0
  4  5  1  0  0  0
 16 17  1  0  0  0
 16 18  1  0  0  0
 16 19  1  0  0  0
  5  6  2  0  0  0
 11 12  2  0  0  0
M  END
> <minimizedAffinity>
-6.42062

$$$$
cs_R5_output_folder/data/smiles/31.pdb


 20 22  0  0  0  0  0  0  0  0999 V2000
   68.6922   47.0897   56.2350 C   0  0  0  0  0  0  0  0  0  0  0  0
   69.1757   46.2313   57.0345 N   0  0  0  0  0  0  0  0  0  0  0  0
   68.6201   46.9561   54.7989 C   0  0  0  0  0  0  0  0  0  0  0  0
   69.2859   47.8158   53.9761 C   0  0  0  0  0  0  0  0  0  0  0  0
   69.1938   47.6571   52.5806 C   0  0  0  0  0  0  0  0  0  0  0  0
   68.4463   46.6513   52.0297 C   0  0  0  0  0  0  0  0  0  0  0  0
   67.7890   45.8023   52.9077 C   0  0  0  0  0  0  0  0  0  0  0  0
   67.9050   45.9910   54.2352 N   0  0  0  0  0  0  0  0  0  0  0  0
   68.2700   50.4730   57.7166 C   0  0  0  0  0  0  0  0  0  0  0  0
   68.9746   49.5214   57.1071 C   0  0  0  0  0  0  0  0  0  0  0  0
   68.1678   48.3252   56.8974 C   0  0  0  0  0  0  0  0  0  0  0  0
   66.9817   48.5841   57.3897 C   0  0  0  0  0  0  0  0  0  0  0  0
   66.9246   49.9821   57.9635 C   0  0  0  0  0  0  0  0  0  0  0  0
   69.7445   45.0168   56.9471 N   0  0  0  0  0  0  0  0  0  0  0  0
   69.0348   43.7845   56.7900 C   0  0  0  0  0  0  0  0  0  0  0  0
   69.4871   42.6421   57.4055 C   0  0  0  0  0  0  0  0  0  0  0  0
   68.8019   41.4502   57.2534 C   0  0  0  0  0  0  0  0  0  0  0  0
   67.6441   41.3693   56.4827 C   0  0  0  0  0  0  0  0  0  0  0  0
   67.2435   42.5495   55.8928 C   0  0  0  0  0  0  0  0  0  0  0  0
   67.9159   43.7031   56.0454 N   0  0  0  0  0  0  0  0  0  0  0  0
  9 10  2  0  0  0
  9 13  1  0  0  0
 10 11  1  0  0  0
 11  1  1  0  0  0
 11 12  2  0  0  0
  1  2  2  0  0  0
  1  3  1  0  0  0
  2 14  1  0  0  0
 14 15  1  0  0  0
 15 16  2  0  0  0
 15 20  1  0  0  0
 16 17  1  0  0  0
 17 18  2  0  0  0
 18 19  1  0  0  0
 19 20  2  0  0  0
  3  4  2  0  0  0
  3  8  1  0  0  0
  4  5  1  0  0  0
  5  6  2  0  0  0
  6  7  1  0  0  0
  7  8  2  0  0  0
 12 13  1  0  0  0
M  END
> <minimizedAffinity>
-8.42681

$$$$
cs_R5_output_folder/data/smiles/32.pdb


 19 20  0  0  0  0  0  0  0  0999 V2000
   70.8001   49.3407   53.9782 N   0  0  0  0  0  0  0  0  0  0  0  0
   69.9321   48.3849   53.3876 C   0  0  0  0  0  0  0  0  0  0  0  0
   69.8942   48.0839   52.0488 C   0  0  0  0  0  0  0  0  0  0  0  0
   68.9957   47.1340   51.5437 C   0  0  0  0  0  0  0  0  0  0  0  0
   68.1159   46.4639   52.3652 C   0  0  0  0  0  0  0  0  0  0  0  0
   68.1548   46.7655   53.7091 C   0  0  0  0  0  0  0  0  0  0  0  0
   69.0379   47.7008   54.2074 C   0  0  0  0  0  0  0  0  0  0  0  0
   67.2087   45.4994   51.8318 N   0  0  0  0  0  0  0  0  0  0  0  0
   66.8788   44.5289   52.5273 O   0  0  0  0  0  0  0  0  0  0  0  0
   66.6813   45.6027   50.5722 O   0  0  0  0  0  0  0  0  0  0  0  0
   71.4764   51.5649   54.7204 C   0  0  0  0  0  0  0  0  0  0  0  0
   70.3870   50.4515   54.7663 C   0  0  0  0  0  0  0  0  0  0  0  0
   70.3324   49.9978   56.2317 C   0  0  0  0  0  0  0  0  0  0  0  0
   68.9924   50.0639   56.8100 C   0  0  0  0  0  0  0  0  0  0  0  0
   68.2419   51.2482   56.8184 C   0  0  0  0  0  0  0  0  0  0  0  0
   66.9889   51.3150   57.3483 C   0  0  0  0  0  0  0  0  0  0  0  0
   66.4386   50.2136   57.8869 N   0  0  0  0  0  0  0  0  0  0  0  0
   67.1115   49.0478   57.9071 C   0  0  0  0  0  0  0  0  0  0  0  0
   68.3652   48.9519   57.3839 C   0  0  0  0  0  0  0  0  0  0  0  0
 12 11  1  0  0  0
 12 13  1  0  0  0
 12  1  1  0  0  0
 13 14  1  0  0  0
 14 15  2  0  0  0
 14 19  1  0  0  0
 15 16  1  0  0  0
 16 17  2  0  0  0
 17 18  1  0  0  0
 18 19  2  0  0  0
  1  2  1  0  0  0
  2  3  2  0  0  0
  2  7  1  0  0  0
  3  4  1  0  0  0
  4  5  2  0  0  0
  5  8  1  0  0  0
  5  6  1  0  0  0
  8  9  2  0  0  0
  8 10  1  0  0  0
  6  7  2  0  0  0
M  CHG 1   8   1
M  CHG 1  10  -1
M  END
> <minimizedAffinity>
-7.21680

$$$$
cs_R5_output_folder/data/smiles/33.pdb


 21 23  0  0  0  0  0  0  0  0999 V2000
   77.5967   36.0518   53.7230 C   0  0  0  0  0  0  0  0  0  0  0  0
   77.0191   35.4146   52.5086 C   0  0  0  0  0  0  0  0  0  0  0  0
   77.5967   35.6796   51.3217 N   0  0  0  0  0  0  0  0  0  0  0  0
   77.1500   35.1522   50.1644 C   0  0  0  0  0  0  0  0  0  0  0  0
   77.7575   35.4363   48.9539 C   0  0  0  0  0  0  0  0  0  0  0  0
   77.2917   34.8919   47.7753 C   0  0  0  0  0  0  0  0  0  0  0  0
   76.1974   34.0545   47.8586 C   0  0  0  0  0  0  0  0  0  0  0  0
   75.5897   33.7694   49.0631 C   0  0  0  0  0  0  0  0  0  0  0  0
   76.0560   34.3147   50.2419 C   0  0  0  0  0  0  0  0  0  0  0  0
   75.4433   34.0274   51.4552 C   0  0  0  0  0  0  0  0  0  0  0  0
   75.9237   34.5822   52.6252 C   0  0  0  0  0  0  0  0  0  0  0  0
   75.3138   34.3066   53.9031 N   0  0  0  0  0  0  0  0  0  0  0  0
   74.2329   35.0821   54.3912 C   0  0  0  0  0  0  0  0  0  0  0  0
   73.8261   36.0206   53.6635 O   0  0  0  0  0  0  0  0  0  0  0  0
   73.5612   34.8720   55.6653 C   0  0  0  0  0  0  0  0  0  0  0  0
   73.4618   33.6338   56.2693 C   0  0  0  0  0  0  0  0  0  0  0  0
   72.8063   33.4884   57.4934 C   0  0  0  0  0  0  0  0  0  0  0  0
   72.2354   34.5570   58.1510 C   0  0  0  0  0  0  0  0  0  0  0  0
   71.5812   34.4239   59.3684 O   0  0  0  0  0  0  0  0  0  0  0  0
   72.3366   35.7904   57.5451 C   0  0  0  0  0  0  0  0  0  0  0  0
   72.9855   35.9311   56.3356 C   0  0  0  0  0  0  0  0  0  0  0  0
  1  2  1  0  0  0
  2  3  2  0  0  0
  2 11  1  0  0  0
  3  4  1  0  0  0
  4  5  2  0  0  0
  4  9  1  0  0  0
  5  6  1  0  0  0
  6  7  2  0  0  0
  7  8  1  0  0  0
  8  9  2  0  0  0
  9 10  1  0  0  0
 10 11  2  0  0  0
 11 12  1  0  0  0
 12 13  1  0  0  0
 13 14  2  0  0  0
 13 15  1  0  0  0
 15 16  2  0  0  0
 15 21  1  0  0  0
 16 17  1  0  0  0
 17 18  2  0  0  0
 18 19  1  0  0  0
 18 20  1  0  0  0
 20 21  2  0  0  0
M  END
> <minimizedAffinity>
-7.16758

$$$$
cs_R5_output_folder/data/smiles/34.pdb


 27 30  0  0  0  0  0  0  0  0999 V2000
   69.9360   43.3949   57.6284 C   0  0  0  0  0  0  0  0  0  0  0  0
   68.9742   42.4681   57.3138 C   0  0  0  0  0  0  0  0  0  0  0  0
   69.0308   41.1469   57.7367 C   0  0  0  0  0  0  0  0  0  0  0  0
   70.0799   40.6996   58.5093 C   0  0  0  0  0  0  0  0  0  0  0  0
   71.0584   41.6216   58.8360 C   0  0  0  0  0  0  0  0  0  0  0  0
   70.9805   42.9515   58.3966 C   0  0  0  0  0  0  0  0  0  0  0  0
   70.1689   39.3289   58.9594 N   0  0  0  0  0  0  0  0  0  0  0  0
   69.3579   38.7145   59.9371 C   0  0  0  0  0  0  0  0  0  0  0  0
   68.3990   39.2108   60.6124 O   0  0  0  0  0  0  0  0  0  0  0  0
   69.7530   37.3067   60.1307 C   0  0  0  0  0  0  0  0  0  0  0  0
   69.3070   36.2807   60.9377 C   0  0  0  0  0  0  0  0  0  0  0  0
   69.8876   35.0335   60.8995 C   0  0  0  0  0  0  0  0  0  0  0  0
   70.9442   34.8002   60.0322 C   0  0  0  0  0  0  0  0  0  0  0  0
   71.3798   35.8541   59.2234 C   0  0  0  0  0  0  0  0  0  0  0  0
   70.7936   37.0890   59.2710 C   0  0  0  0  0  0  0  0  0  0  0  0
   71.0782   38.3329   58.5255 C   0  0  0  0  0  0  0  0  0  0  0  0
   71.9792   38.4311   57.6689 O   0  0  0  0  0  0  0  0  0  0  0  0
   70.7147   45.5890   57.5067 O   0  0  0  0  0  0  0  0  0  0  0  0
   69.8189   44.7687   57.1554 C   0  0  0  0  0  0  0  0  0  0  0  0
   68.7907   45.2540   56.3417 N   0  0  0  0  0  0  0  0  0  0  0  0
   68.6344   46.6011   55.8443 C   0  0  0  0  0  0  0  0  0  0  0  0
   68.4836   46.5085   54.3607 C   0  0  0  0  0  0  0  0  0  0  0  0
   67.7138   45.5987   53.7049 C   0  0  0  0  0  0  0  0  0  0  0  0
   67.6439   45.6104   52.3165 C   0  0  0  0  0  0  0  0  0  0  0  0
   68.3482   46.5381   51.5837 C   0  0  0  0  0  0  0  0  0  0  0  0
   69.1228   47.4510   52.2676 C   0  0  0  0  0  0  0  0  0  0  0  0
   69.1660   47.4117   53.5904 N   0  0  0  0  0  0  0  0  0  0  0  0
 18 19  2  0  0  0
 19 20  1  0  0  0
 19  1  1  0  0  0
 20 21  1  0  0  0
 21 22  1  0  0  0
 22 23  2  0  0  0
 22 27  1  0  0  0
 23 24  1  0  0  0
 24 25  2  0  0  0
 25 26  1  0  0  0
 26 27  2  0  0  0
  1  2  2  0  0  0
  1  6  1  0  0  0
  2  3  1  0  0  0
  3  4  2  0  0  0
  4  7  1  0  0  0
  4  5  1  0  0  0
  7  8  1  0  0  0
  7 16  1  0  0  0
  8  9  2  0  0  0
  8 10  1  0  0  0
 10 11  1  0  0  0
 10 15  2  0  0  0
 11 12  2  0  0  0
 12 13  1  0  0  0
 13 14  2  0  0  0
 14 15  1  0  0  0
 15 16  1  0  0  0
 16 17  2  0  0  0
  5  6  2  0  0  0
M  END
> <minimizedAffinity>
-7.83924

$$$$
cs_R5_output_folder/data/smiles/35.pdb


 30 34  0  0  0  0  0  0  0  0999 V2000
   71.5363   47.1156   58.8619 C   0  0  0  0  0  0  0  0  0  0  0  0
   70.6199   47.7205   58.0566 C   0  0  0  0  0  0  0  0  0  0  0  0
   69.7622   46.9926   57.2116 C   0  0  0  0  0  0  0  0  0  0  0  0
   69.8653   45.6362   57.2111 C   0  0  0  0  0  0  0  0  0  0  0  0
   70.7980   44.9832   58.0286 C   0  0  0  0  0  0  0  0  0  0  0  0
   71.6146   45.7444   58.8391 C   0  0  0  0  0  0  0  0  0  0  0  0
   72.5137   45.0914   59.6260 F   0  0  0  0  0  0  0  0  0  0  0  0
   74.6067   50.8489   58.2494 N   0  0  0  0  0  0  0  0  0  0  0  0
   74.2834   50.7550   59.6637 C   0  0  0  0  0  0  0  0  0  0  0  0
   74.5212   49.3118   59.9827 C   0  0  0  0  0  0  0  0  0  0  0  0
   75.7833   49.0916   59.1257 C   0  0  0  0  0  0  0  0  0  0  0  0
   75.0906   49.5617   57.8305 C   0  0  0  0  0  0  0  0  0  0  0  0
   73.9786   48.5283   57.8099 C   0  0  0  0  0  0  0  0  0  0  0  0
   73.5714   48.5332   59.2129 N   0  0  0  0  0  0  0  0  0  0  0  0
   72.4146   47.8671   59.7269 C   0  0  0  0  0  0  0  0  0  0  0  0
   72.1615   47.9412   60.9610 O   0  0  0  0  0  0  0  0  0  0  0  0
   72.9411   52.6328   58.0178 C   0  0  0  0  0  0  0  0  0  0  0  0
   73.4335   51.2889   57.5582 C   0  0  0  0  0  0  0  0  0  0  0  0
   68.8255   47.7668   56.3659 C   0  0  0  0  0  0  0  0  0  0  0  0
   69.2602   47.9613   54.9852 C   0  0  0  0  0  0  0  0  0  0  0  0
   70.1960   48.9250   54.7075 N   0  0  0  0  0  0  0  0  0  0  0  0
   70.6114   49.1945   53.4956 N   0  0  0  0  0  0  0  0  0  0  0  0
   70.1425   48.5338   52.4242 C   0  0  0  0  0  0  0  0  0  0  0  0
   70.5709   48.8253   51.2667 O   0  0  0  0  0  0  0  0  0  0  0  0
   69.1978   47.5449   52.6072 C   0  0  0  0  0  0  0  0  0  0  0  0
   68.7254   46.8574   51.4997 C   0  0  0  0  0  0  0  0  0  0  0  0
   67.7959   45.8705   51.7168 C   0  0  0  0  0  0  0  0  0  0  0  0
   67.3617   45.5851   52.9756 C   0  0  0  0  0  0  0  0  0  0  0  0
   67.8530   46.2912   54.0673 C   0  0  0  0  0  0  0  0  0  0  0  0
   68.7745   47.2793   53.9043 C   0  0  0  0  0  0  0  0  0  0  0  0
 17 18  1  0  0  0
  8 18  1  0  0  0
  8  9  1  0  0  0
  8 12  1  0  0  0
 10  9  1  0  0  0
 10 11  1  0  0  0
 10 14  1  0  0  0
 11 12  1  0  0  0
 12 13  1  0  0  0
 13 14  1  0  0  0
 14 15  1  0  0  0
 15 16  2  0  0  0
 15  1  1  0  0  0
  1  2  2  0  0  0
  1  6  1  0  0  0
  2  3  1  0  0  0
  3 19  1  0  0  0
  3  4  2  0  0  0
 19 20  1  0  0  0
 20 21  2  0  0  0
 20 30  1  0  0  0
 21 22  1  0  0  0
 22 23  1  0  0  0
 23 24  2  0  0  0
 23 25  1  0  0  0
 25 26  1  0  0  0
 25 30  2  0  0  0
 26 27  2  0  0  0
 27 28  1  0  0  0
 28 29  2  0  0  0
 29 30  1  0  0  0
  4  5  1  0  0  0
  5  6  2  0  0  0
  6  7  1  0  0  0
M  CHG 1   8   1
M  END
> <minimizedAffinity>
-9.23191

$$$$
cs_R5_output_folder/data/smiles/36.pdb


 25 27  0  0  0  0  0  0  0  0999 V2000
   68.6985   47.8368   56.7612 C   0  0  0  0  0  0  0  0  0  0  0  0
   67.5778   47.6045   57.1971 O   0  0  0  0  0  0  0  0  0  0  0  0
   69.1497   48.1374   55.4221 C   0  0  0  0  0  0  0  0  0  0  0  0
   69.9884   49.2401   55.1856 C   0  0  0  0  0  0  0  0  0  0  0  0
   70.4155   49.5227   53.9130 C   0  0  0  0  0  0  0  0  0  0  0  0
   71.1635   50.5139   53.7368 O   0  0  0  0  0  0  0  0  0  0  0  0
   70.0692   48.7888   52.8544 N   0  0  0  0  0  0  0  0  0  0  0  0
   69.2618   47.7180   53.0345 C   0  0  0  0  0  0  0  0  0  0  0  0
   68.9237   46.9829   51.9213 C   0  0  0  0  0  0  0  0  0  0  0  0
   68.1108   45.8948   52.0663 C   0  0  0  0  0  0  0  0  0  0  0  0
   67.6548   45.5672   53.3184 C   0  0  0  0  0  0  0  0  0  0  0  0
   67.9877   46.2992   54.4529 C   0  0  0  0  0  0  0  0  0  0  0  0
   68.8001   47.3898   54.3243 C   0  0  0  0  0  0  0  0  0  0  0  0
   69.7085   47.7970   57.7675 O   0  0  0  0  0  0  0  0  0  0  0  0
   70.6507   46.7808   57.8539 C   0  0  0  0  0  0  0  0  0  0  0  0
   69.7748   44.9980   59.1178 O   0  0  0  0  0  0  0  0  0  0  0  0
   70.0925   45.4180   57.9634 C   0  0  0  0  0  0  0  0  0  0  0  0
   69.8961   44.5611   56.8606 N   0  0  0  0  0  0  0  0  0  0  0  0
   69.3450   43.2407   57.0043 C   0  0  0  0  0  0  0  0  0  0  0  0
   70.0089   42.2881   57.7760 C   0  0  0  0  0  0  0  0  0  0  0  0
   69.4969   41.0306   57.9219 C   0  0  0  0  0  0  0  0  0  0  0  0
   68.3140   40.6696   57.3129 C   0  0  0  0  0  0  0  0  0  0  0  0
   67.7857   39.4241   57.4432 F   0  0  0  0  0  0  0  0  0  0  0  0
   67.6350   41.6022   56.5398 C   0  0  0  0  0  0  0  0  0  0  0  0
   68.1675   42.8610   56.4060 C   0  0  0  0  0  0  0  0  0  0  0  0
 16 17  2  0  0  0
 17 15  1  0  0  0
 17 18  1  0  0  0
 15 14  1  0  0  0
 14  1  1  0  0  0
  1  2  2  0  0  0
  1  3  1  0  0  0
  3  4  2  0  0  0
  3 13  1  0  0  0
  4  5  1  0  0  0
  5  6  2  0  0  0
  5  7  1  0  0  0
  7  8  1  0  0  0
  8  9  1  0  0  0
  8 13  2  0  0  0
  9 10  2  0  0  0
 10 11  1  0  0  0
 11 12  2  0  0  0
 12 13  1  0  0  0
 18 19  1  0  0  0
 19 20  2  0  0  0
 19 25  1  0  0  0
 20 21  1  0  0  0
 21 22  2  0  0  0
 22 23  1  0  0  0
 22 24  1  0  0  0
 24 25  2  0  0  0
M  END
> <minimizedAffinity>
-8.92431

$$$$
cs_R5_output_folder/data/smiles/37.pdb


 24 26  0  0  0  0  0  0  0  0999 V2000
   71.5537   47.3997   58.9327 C   0  0  0  0  0  0  0  0  0  0  0  0
   71.7416   46.0668   58.7087 C   0  0  0  0  0  0  0  0  0  0  0  0
   70.8423   45.3733   57.9005 C   0  0  0  0  0  0  0  0  0  0  0  0
   69.7496   46.0580   57.3307 C   0  0  0  0  0  0  0  0  0  0  0  0
   69.5637   47.3844   57.5583 C   0  0  0  0  0  0  0  0  0  0  0  0
   70.4529   48.0614   58.3485 C   0  0  0  0  0  0  0  0  0  0  0  0
   72.3062   47.9953   61.0462 O   0  0  0  0  0  0  0  0  0  0  0  0
   72.4482   48.1393   59.8006 C   0  0  0  0  0  0  0  0  0  0  0  0
   73.4647   49.0018   59.2942 N   0  0  0  0  0  0  0  0  0  0  0  0
   73.7077   49.2727   57.9124 C   0  0  0  0  0  0  0  0  0  0  0  0
   75.0946   48.8402   57.4597 C   0  0  0  0  0  0  0  0  0  0  0  0
   75.8238   48.3947   58.7157 C   0  0  0  0  0  0  0  0  0  0  0  0
   75.7739   49.5006   59.7392 C   0  0  0  0  0  0  0  0  0  0  0  0
   74.3622   49.6701   60.2406 C   0  0  0  0  0  0  0  0  0  0  0  0
   68.3189   48.0615   57.0261 C   0  0  0  0  0  0  0  0  0  0  0  0
   68.6917   48.1963   55.5816 N   0  0  0  0  0  0  0  0  0  0  0  0
   68.4267   47.1790   54.7508 C   0  0  0  0  0  0  0  0  0  0  0  0
   68.8915   47.2655   53.4391 C   0  0  0  0  0  0  0  0  0  0  0  0
   69.6024   48.3555   52.9882 C   0  0  0  0  0  0  0  0  0  0  0  0
   69.8543   49.3908   53.8695 C   0  0  0  0  0  0  0  0  0  0  0  0
   69.3735   49.2628   55.1664 C   0  0  0  0  0  0  0  0  0  0  0  0
   69.5856   50.1957   56.0104 O   0  0  0  0  0  0  0  0  0  0  0  0
   70.1177   48.3715   51.5862 C   0  0  0  0  0  0  0  0  0  0  0  0
   69.8437   47.1485   51.0029 O   0  0  0  0  0  0  0  0  0  0  0  0
  7  8  2  0  0  0
  8  1  1  0  0  0
  8  9  1  0  0  0
  1  2  2  0  0  0
  1  6  1  0  0  0
  2  3  1  0  0  0
  3  4  2  0  0  0
  4  5  1  0  0  0
  5 15  1  0  0  0
  5  6  2  0  0  0
 15 16  1  0  0  0
 16 17  1  0  0  0
 16 21  1  0  0  0
 17 18  2  0  0  0
 18 19  1  0  0  0
 19 23  1  0  0  0
 19 20  2  0  0  0
 23 24  1  0  0  0
 20 21  1  0  0  0
 21 22  2  0  0  0
  9 10  1  0  0  0
  9 14  1  0  0  0
 10 11  1  0  0  0
 11 12  1  0  0  0
 12 13  1  0  0  0
 13 14  1  0  0  0
M  END
> <minimizedAffinity>
-6.41873

$$$$
cs_R5_output_folder/data/smiles/38.pdb


 26 28  0  0  0  0  0  0  0  0999 V2000
   68.2482   43.4173   55.9489 C   0  0  0  0  0  0  0  0  0  0  0  0
   69.1611   43.1777   56.9840 C   0  0  0  0  0  0  0  0  0  0  0  0
   68.9788   42.1821   57.9227 C   0  0  0  0  0  0  0  0  0  0  0  0
   67.8568   41.3762   57.8581 C   0  0  0  0  0  0  0  0  0  0  0  0
   66.9500   41.5801   56.8680 C   0  0  0  0  0  0  0  0  0  0  0  0
   67.1622   42.6060   55.9217 C   0  0  0  0  0  0  0  0  0  0  0  0
   68.1768   46.2514   56.4015 O   0  0  0  0  0  0  0  0  0  0  0  0
   68.5031   45.8462   55.2651 C   0  0  0  0  0  0  0  0  0  0  0  0
   68.5350   44.4549   55.0535 N   0  0  0  0  0  0  0  0  0  0  0  0
   68.8216   46.8559   54.2559 C   0  0  0  0  0  0  0  0  0  0  0  0
   68.7886   46.5165   52.9115 C   0  0  0  0  0  0  0  0  0  0  0  0
   69.0773   47.4198   51.9108 C   0  0  0  0  0  0  0  0  0  0  0  0
   69.4179   48.7225   52.2012 C   0  0  0  0  0  0  0  0  0  0  0  0
   69.7083   49.6277   51.1757 O   0  0  0  0  0  0  0  0  0  0  0  0
   69.4568   49.0796   53.5288 C   0  0  0  0  0  0  0  0  0  0  0  0
   69.1632   48.1586   54.5422 C   0  0  0  0  0  0  0  0  0  0  0  0
   67.6157   40.1182   59.0355 S   0  0  0  0  0  0  0  0  0  0  0  0
   67.1239   38.8671   58.3620 O   0  0  0  0  0  0  0  0  0  0  0  0
   66.5549   40.5746   59.9906 O   0  0  0  0  0  0  0  0  0  0  0  0
   69.1344   39.8475   59.8185 N   0  0  0  0  0  0  0  0  0  0  0  0
   69.9726   38.7753   59.4086 C   0  0  0  0  0  0  0  0  0  0  0  0
   70.9094   38.9370   58.3903 C   0  0  0  0  0  0  0  0  0  0  0  0
   71.7175   37.8893   58.0018 C   0  0  0  0  0  0  0  0  0  0  0  0
   71.6340   36.6645   58.5916 C   0  0  0  0  0  0  0  0  0  0  0  0
   70.7172   36.4875   59.5963 C   0  0  0  0  0  0  0  0  0  0  0  0
   69.8884   37.5315   60.0069 C   0  0  0  0  0  0  0  0  0  0  0  0
  7  8  2  0  0  0
  8  9  1  0  0  0
  8 10  1  0  0  0
  9  1  1  0  0  0
  1  2  2  0  0  0
  1  6  1  0  0  0
  2  3  1  0  0  0
  3  4  2  0  0  0
  4 17  1  0  0  0
  4  5  1  0  0  0
 17 18  2  0  0  0
 17 19  2  0  0  0
 17 20  1  0  0  0
 20 21  1  0  0  0
 21 22  2  0  0  0
 21 26  1  0  0  0
 22 23  1  0  0  0
 23 24  2  0  0  0
 24 25  1  0  0  0
 25 26  2  0  0  0
  5  6  2  0  0  0
 10 11  2  0  0  0
 10 16  1  0  0  0
 11 12  1  0  0  0
 12 13  2  0  0  0
 13 14  1  0  0  0
 13 15  1  0  0  0
 15 16  2  0  0  0
M  END
> <minimizedAffinity>
-8.20231

$$$$
cs_R5_output_folder/data/smiles/39.pdb


 25 26  0  0  0  0  0  0  0  0999 V2000
   68.6053   42.7339   57.0720 C   0  0  0  0  0  0  0  0  0  0  0  0
   68.1039   43.6042   56.3312 N   0  0  0  0  0  0  0  0  0  0  0  0
   73.6654   42.8539   59.9325 C   0  0  0  0  0  0  0  0  0  0  0  0
   72.3532   42.8347   59.2175 C   0  0  0  0  0  0  0  0  0  0  0  0
   72.2081   42.2485   57.9825 C   0  0  0  0  0  0  0  0  0  0  0  0
   71.0105   42.2172   57.3034 C   0  0  0  0  0  0  0  0  0  0  0  0
   69.8533   42.7870   57.8307 C   0  0  0  0  0  0  0  0  0  0  0  0
   70.0027   43.3716   59.0617 C   0  0  0  0  0  0  0  0  0  0  0  0
   71.2236   43.4028   59.7550 C   0  0  0  0  0  0  0  0  0  0  0  0
   67.7766   41.4509   57.1737 C   0  0  0  0  0  0  0  0  0  0  0  0
   68.3896   40.6722   58.1345 F   0  0  0  0  0  0  0  0  0  0  0  0
   67.9172   40.8004   55.9689 F   0  0  0  0  0  0  0  0  0  0  0  0
   66.4735   41.7251   57.4684 F   0  0  0  0  0  0  0  0  0  0  0  0
   68.5545   44.8397   56.0089 N   0  0  0  0  0  0  0  0  0  0  0  0
   68.1910   45.4877   54.7694 C   0  0  0  0  0  0  0  0  0  0  0  0
   67.4274   44.8203   54.0151 O   0  0  0  0  0  0  0  0  0  0  0  0
   68.6548   46.8077   54.3942 C   0  0  0  0  0  0  0  0  0  0  0  0
   68.6664   47.7739   55.3991 C   0  0  0  0  0  0  0  0  0  0  0  0
   69.0837   49.0394   55.1434 C   0  0  0  0  0  0  0  0  0  0  0  0
   69.5014   49.3762   53.8772 C   0  0  0  0  0  0  0  0  0  0  0  0
   69.5048   48.4568   52.8645 C   0  0  0  0  0  0  0  0  0  0  0  0
   69.0738   47.1713   53.1500 C   0  0  0  0  0  0  0  0  0  0  0  0
   69.9347   48.7961   51.5511 N   0  0  0  0  0  0  0  0  0  0  0  0
   70.4975   47.9448   50.8573 O   0  0  0  0  0  0  0  0  0  0  0  0
   69.7168   50.0647   51.0711 O   0  0  0  0  0  0  0  0  0  0  0  0
  3  4  1  0  0  0
  4  5  2  0  0  0
  4  9  1  0  0  0
  5  6  1  0  0  0
  6  7  2  0  0  0
  7  1  1  0  0  0
  7  8  1  0  0  0
  1  2  2  0  0  0
  1 10  1  0  0  0
  2 14  1  0  0  0
 14 15  1  0  0  0
 15 16  2  0  0  0
 15 17  1  0  0  0
 17 18  2  0  0  0
 17 22  1  0  0  0
 18 19  1  0  0  0
 19 20  2  0  0  0
 20 21  1  0  0  0
 21 23  1  0  0  0
 21 22  2  0  0  0
 23 24  2  0  0  0
 23 25  1  0  0  0
 10 11  1  0  0  0
 10 12  1  0  0  0
 10 13  1  0  0  0
  8  9  2  0  0  0
M  CHG 1  23   1
M  CHG 1  25  -1
M  END
> <minimizedAffinity>
-8.17166

$$$$
cs_R5_output_folder/data/smiles/40.pdb


 26 29  0  0  0  0  0  0  0  0999 V2000
   73.2544   35.4859   52.0048 O   0  0  0  0  0  0  0  0  0  0  0  0
   74.1113   34.9550   52.7263 C   0  0  0  0  0  0  0  0  0  0  0  0
   75.1190   34.1752   52.1002 N   0  0  0  0  0  0  0  0  0  0  0  0
   75.2161   33.9574   50.7064 C   0  0  0  0  0  0  0  0  0  0  0  0
   74.2621   33.1885   50.0870 C   0  0  0  0  0  0  0  0  0  0  0  0
   74.3035   32.9376   48.7107 C   0  0  0  0  0  0  0  0  0  0  0  0
   75.3464   33.4920   47.9849 C   0  0  0  0  0  0  0  0  0  0  0  0
   76.3110   34.2694   48.6110 C   0  0  0  0  0  0  0  0  0  0  0  0
   77.3191   34.7908   47.8405 C   0  0  0  0  0  0  0  0  0  0  0  0
   78.2850   35.5627   48.4336 C   0  0  0  0  0  0  0  0  0  0  0  0
   78.2274   35.7978   49.7882 C   0  0  0  0  0  0  0  0  0  0  0  0
   77.2241   35.2837   50.5803 C   0  0  0  0  0  0  0  0  0  0  0  0
   76.2489   34.5070   49.9884 C   0  0  0  0  0  0  0  0  0  0  0  0
   74.0559   35.1490   54.1740 C   0  0  0  0  0  0  0  0  0  0  0  0
   72.9615   35.4460   54.9718 C   0  0  0  0  0  0  0  0  0  0  0  0
   73.3582   35.5427   56.2909 C   0  0  0  0  0  0  0  0  0  0  0  0
   74.6810   35.3038   56.2740 N   0  0  0  0  0  0  0  0  0  0  0  0
   75.0871   35.0736   55.0314 N   0  0  0  0  0  0  0  0  0  0  0  0
   72.5062   35.8413   57.4373 C   0  0  0  0  0  0  0  0  0  0  0  0
   72.0556   37.1177   57.6895 C   0  0  0  0  0  0  0  0  0  0  0  0
   71.2439   37.3871   58.7862 C   0  0  0  0  0  0  0  0  0  0  0  0
   70.8560   36.3987   59.6640 C   0  0  0  0  0  0  0  0  0  0  0  0
   70.0364   36.6786   60.7680 O   0  0  0  0  0  0  0  0  0  0  0  0
   71.3071   35.1202   59.4111 C   0  0  0  0  0  0  0  0  0  0  0  0
   72.1222   34.8478   58.3102 C   0  0  0  0  0  0  0  0  0  0  0  0
   72.5715   33.5568   58.0655 O   0  0  0  0  0  0  0  0  0  0  0  0
  1  2  2  0  0  0
  2  3  1  0  0  0
  2 14  1  0  0  0
  3  4  1  0  0  0
  4  5  2  0  0  0
  4 13  1  0  0  0
  5  6  1  0  0  0
  6  7  2  0  0  0
  7  8  1  0  0  0
  8  9  1  0  0  0
  8 13  2  0  0  0
  9 10  2  0  0  0
 10 11  1  0  0  0
 11 12  2  0  0  0
 12 13  1  0  0  0
 14 15  2  0  0  0
 14 18  1  0  0  0
 15 16  1  0  0  0
 16 19  1  0  0  0
 16 17  2  0  0  0
 19 20  2  0  0  0
 19 25  1  0  0  0
 20 21  1  0  0  0
 21 22  2  0  0  0
 22 23  1  0  0  0
 22 24  1  0  0  0
 24 25  2  0  0  0
 25 26  1  0  0  0
 17 18  1  0  0  0
M  END
> <minimizedAffinity>
-8.65573

$$$$
cs_R5_output_folder/data/smiles/41.pdb


 27 29  0  0  0  0  0  0  0  0999 V2000
   72.3135   47.1800   59.1844 C   0  0  0  0  0  0  0  0  0  0  0  0
   71.4555   46.1696   58.8092 C   0  0  0  0  0  0  0  0  0  0  0  0
   70.3106   46.4327   58.0891 C   0  0  0  0  0  0  0  0  0  0  0  0
   69.9785   47.7413   57.7110 C   0  0  0  0  0  0  0  0  0  0  0  0
   70.8512   48.7181   58.0983 C   0  0  0  0  0  0  0  0  0  0  0  0
   71.9856   48.4268   58.8164 N   0  0  0  0  0  0  0  0  0  0  0  0
   73.5828   47.1630   61.3180 C   0  0  0  0  0  0  0  0  0  0  0  0
   72.5714   47.6865   61.8469 O   0  0  0  0  0  0  0  0  0  0  0  0
   73.4895   46.8816   59.9261 N   0  0  0  0  0  0  0  0  0  0  0  0
   74.9589   45.6465   62.5447 C   0  0  0  0  0  0  0  0  0  0  0  0
   74.7684   46.8713   62.1006 C   0  0  0  0  0  0  0  0  0  0  0  0
   74.2356   41.8879   64.7500 C   0  0  0  0  0  0  0  0  0  0  0  0
   72.9988   42.9523   64.4257 S   0  0  0  0  0  0  0  0  0  0  0  0
   73.4173   43.9489   63.1908 C   0  0  0  0  0  0  0  0  0  0  0  0
   73.9735   44.6261   62.2371 C   0  0  0  0  0  0  0  0  0  0  0  0
   68.7738   48.0430   56.9309 C   0  0  0  0  0  0  0  0  0  0  0  0
   68.5921   47.2795   55.7086 C   0  0  0  0  0  0  0  0  0  0  0  0
   68.0357   46.0579   55.7927 N   0  0  0  0  0  0  0  0  0  0  0  0
   67.7902   45.2930   54.7661 N   0  0  0  0  0  0  0  0  0  0  0  0
   68.0873   45.6962   53.5367 C   0  0  0  0  0  0  0  0  0  0  0  0
   67.8544   44.9685   52.5367 O   0  0  0  0  0  0  0  0  0  0  0  0
   68.6721   46.9660   53.3837 C   0  0  0  0  0  0  0  0  0  0  0  0
   68.9307   47.7684   54.4714 C   0  0  0  0  0  0  0  0  0  0  0  0
   69.5696   49.0736   54.2667 C   0  0  0  0  0  0  0  0  0  0  0  0
   70.5277   48.9330   53.0728 C   0  0  0  0  0  0  0  0  0  0  0  0
   69.5826   48.7453   51.8765 C   0  0  0  0  0  0  0  0  0  0  0  0
   68.9735   47.3763   51.9870 C   0  0  0  0  0  0  0  0  0  0  0  0
 12 13  2  0  0  0
 13 14  2  0  0  0
 14 15  2  0  0  0
 15 10  1  0  0  0
 10 11  2  0  0  0
 11  7  1  0  0  0
  7  8  2  0  0  0
  7  9  1  0  0  0
  9  1  1  0  0  0
  1  2  2  0  0  0
  1  6  1  0  0  0
  2  3  1  0  0  0
  3  4  2  0  0  0
  4 16  1  0  0  0
  4  5  1  0  0  0
 16 17  1  0  0  0
 17 18  2  0  0  0
 17 23  1  0  0  0
 18 19  1  0  0  0
 19 20  1  0  0  0
 20 21  2  0  0  0
 20 22  1  0  0  0
 22 23  2  0  0  0
 22 27  1  0  0  0
 23 24  1  0  0  0
 24 25  1  0  0  0
 25 26  1  0  0  0
 26 27  1  0  0  0
  5  6  2  0  0  0
M  END
> <minimizedAffinity>
-7.70572

$$$$
cs_R5_output_folder/data/smiles/42.pdb


 20 22  0  0  0  0  0  0  0  0999 V2000
   69.6391   48.8797   54.9223 C   0  0  0  0  0  0  0  0  0  0  0  0
   70.6704   49.7317   54.5427 C   0  0  0  0  0  0  0  0  0  0  0  0
   71.0853   50.5632   55.3920 O   0  0  0  0  0  0  0  0  0  0  0  0
   71.1981   49.6593   53.3117 N   0  0  0  0  0  0  0  0  0  0  0  0
   70.7605   48.7896   52.4301 N   0  0  0  0  0  0  0  0  0  0  0  0
   69.7531   47.9085   52.6966 C   0  0  0  0  0  0  0  0  0  0  0  0
   69.3335   47.0250   51.7184 C   0  0  0  0  0  0  0  0  0  0  0  0
   68.3099   46.1628   52.0262 C   0  0  0  0  0  0  0  0  0  0  0  0
   67.7482   46.2128   53.2868 C   0  0  0  0  0  0  0  0  0  0  0  0
   68.1697   47.0952   54.2570 C   0  0  0  0  0  0  0  0  0  0  0  0
   69.2002   47.9720   53.9653 C   0  0  0  0  0  0  0  0  0  0  0  0
   69.0373   48.9442   56.2672 C   0  0  0  0  0  0  0  0  0  0  0  0
   71.4667   46.9525   59.2409 C   0  0  0  0  0  0  0  0  0  0  0  0
   70.6707   46.2387   58.3644 C   0  0  0  0  0  0  0  0  0  0  0  0
   69.8859   46.8803   57.4161 C   0  0  0  0  0  0  0  0  0  0  0  0
   69.8711   48.2422   57.3103 C   0  0  0  0  0  0  0  0  0  0  0  0
   70.6603   48.9490   58.1782 C   0  0  0  0  0  0  0  0  0  0  0  0
   71.4463   48.3391   59.1292 C   0  0  0  0  0  0  0  0  0  0  0  0
   73.0399   46.9905   61.1438 C   0  0  0  0  0  0  0  0  0  0  0  0
   72.2589   46.3303   60.1909 O   0  0  0  0  0  0  0  0  0  0  0  0
 19 20  1  0  0  0
 20 13  1  0  0  0
 13 14  2  0  0  0
 13 18  1  0  0  0
 14 15  1  0  0  0
 15 16  2  0  0  0
 16 12  1  0  0  0
 16 17  1  0  0  0
 12  1  1  0  0  0
  1  2  1  0  0  0
  1 11  2  0  0  0
  2  3  2  0  0  0
  2  4  1  0  0  0
  4  5  1  0  0  0
  5  6  2  0  0  0
  6  7  1  0  0  0
  6 11  1  0  0  0
  7  8  2  0  0  0
  8  9  1  0  0  0
  9 10  2  0  0  0
 10 11  1  0  0  0
 17 18  2  0  0  0
M  END
> <minimizedAffinity>
-7.37136

$$$$
cs_R5_output_folder/data/smiles/43.pdb


 25 28  0  0  0  0  0  0  0  0999 V2000
   68.9907   42.9221   56.4697 O   0  0  0  0  0  0  0  0  0  0  0  0
   69.3511   42.8301   57.6553 C   0  0  0  0  0  0  0  0  0  0  0  0
   68.8215   41.7934   58.4554 N   0  0  0  0  0  0  0  0  0  0  0  0
   69.1932   41.6202   59.8609 C   0  0  0  0  0  0  0  0  0  0  0  0
   69.9396   40.3173   59.9885 C   0  0  0  0  0  0  0  0  0  0  0  0
   69.8643   39.5561   58.6631 C   0  0  0  0  0  0  0  0  0  0  0  0
   68.3827   39.3883   58.3286 C   0  0  0  0  0  0  0  0  0  0  0  0
   67.8738   40.7936   57.9753 C   0  0  0  0  0  0  0  0  0  0  0  0
   70.3088   43.7741   58.2233 C   0  0  0  0  0  0  0  0  0  0  0  0
   69.8875   44.9126   58.8339 N   0  0  0  0  0  0  0  0  0  0  0  0
   70.7272   45.7776   59.3537 N   0  0  0  0  0  0  0  0  0  0  0  0
   72.0594   45.6146   59.3259 C   0  0  0  0  0  0  0  0  0  0  0  0
   72.8149   46.4994   59.8531 O   0  0  0  0  0  0  0  0  0  0  0  0
   72.5727   44.4938   58.7298 C   0  0  0  0  0  0  0  0  0  0  0  0
   73.9270   44.2720   58.6714 C   0  0  0  0  0  0  0  0  0  0  0  0
   74.3836   43.1242   58.0577 C   0  0  0  0  0  0  0  0  0  0  0  0
   73.4904   42.2174   57.5128 C   0  0  0  0  0  0  0  0  0  0  0  0
   72.1443   42.4284   57.5642 C   0  0  0  0  0  0  0  0  0  0  0  0
   71.6751   43.5783   58.1794 C   0  0  0  0  0  0  0  0  0  0  0  0
   70.6088   38.3001   58.6809 C   0  0  0  0  0  0  0  0  0  0  0  0
   70.2711   37.2729   59.5527 C   0  0  0  0  0  0  0  0  0  0  0  0
   70.9695   36.0828   59.5812 C   0  0  0  0  0  0  0  0  0  0  0  0
   72.0365   35.8582   58.7423 C   0  0  0  0  0  0  0  0  0  0  0  0
   72.3818   36.8673   57.8723 C   0  0  0  0  0  0  0  0  0  0  0  0
   71.6794   38.0676   57.8431 C   0  0  0  0  0  0  0  0  0  0  0  0
  1  2  2  0  0  0
  2  9  1  0  0  0
  2  3  1  0  0  0
  9 10  2  0  0  0
  9 19  1  0  0  0
 10 11  1  0  0  0
 11 12  1  0  0  0
 12 13  2  0  0  0
 12 14  1  0  0  0
 14 15  1  0  0  0
 14 19  2  0  0  0
 15 16  2  0  0  0
 16 17  1  0  0  0
 17 18  2  0  0  0
 18 19  1  0  0  0
  3  4  1  0  0  0
  3  8  1  0  0  0
  4  5  1  0  0  0
  5  6  1  0  0  0
  6 20  1  0  0  0
  6  7  1  0  0  0
 20 21  2  0  0  0
 20 25  1  0  0  0
 21 22  1  0  0  0
 22 23  2  0  0  0
 23 24  1  0  0  0
 24 25  2  0  0  0
  7  8  1  0  0  0
M  END
> <minimizedAffinity>
-7.22752

$$$$
cs_R5_output_folder/data/smiles/44.pdb


 30 33  0  0  0  0  0  0  0  0999 V2000
   70.7588   49.2729   58.0346 C   0  0  0  0  0  0  0  0  0  0  0  0
   71.5471   50.5355   57.8058 C   0  0  0  0  0  0  0  0  0  0  0  0
   70.7569   51.4691   57.0082 C   0  0  0  0  0  0  0  0  0  0  0  0
   70.6304   52.7863   57.3259 C   0  0  0  0  0  0  0  0  0  0  0  0
   69.8701   53.6499   56.5198 C   0  0  0  0  0  0  0  0  0  0  0  0
   69.2556   53.1384   55.4056 C   0  0  0  0  0  0  0  0  0  0  0  0
   69.4005   51.7792   55.1007 C   0  0  0  0  0  0  0  0  0  0  0  0
   70.1385   50.9440   55.8837 C   0  0  0  0  0  0  0  0  0  0  0  0
   70.2918   49.4897   55.5844 C   0  0  0  0  0  0  0  0  0  0  0  0
   70.2079   48.7437   56.8494 N   0  0  0  0  0  0  0  0  0  0  0  0
   69.5323   47.4833   56.7868 C   0  0  0  0  0  0  0  0  0  0  0  0
   69.4347   46.8183   57.8444 O   0  0  0  0  0  0  0  0  0  0  0  0
   68.9636   46.9590   55.5457 C   0  0  0  0  0  0  0  0  0  0  0  0
   68.9299   47.7088   54.3898 C   0  0  0  0  0  0  0  0  0  0  0  0
   68.3979   47.2272   53.2130 C   0  0  0  0  0  0  0  0  0  0  0  0
   67.8682   45.9555   53.1381 C   0  0  0  0  0  0  0  0  0  0  0  0
   67.8957   45.1941   54.2891 C   0  0  0  0  0  0  0  0  0  0  0  0
   68.4357   45.6809   55.4855 C   0  0  0  0  0  0  0  0  0  0  0  0
   67.3170   45.4570   51.9222 N   0  0  0  0  0  0  0  0  0  0  0  0
   67.3531   46.1686   50.9030 O   0  0  0  0  0  0  0  0  0  0  0  0
   66.7439   44.2174   51.8263 O   0  0  0  0  0  0  0  0  0  0  0  0
   72.5840   47.7308   58.0839 O   0  0  0  0  0  0  0  0  0  0  0  0
   71.6751   48.2933   58.7108 C   0  0  0  0  0  0  0  0  0  0  0  0
   71.5238   47.9855   60.0858 N   0  0  0  0  0  0  0  0  0  0  0  0
   72.3550   47.0721   60.7800 C   0  0  0  0  0  0  0  0  0  0  0  0
   72.2043   45.7109   60.6369 C   0  0  0  0  0  0  0  0  0  0  0  0
   73.0134   44.8182   61.3190 C   0  0  0  0  0  0  0  0  0  0  0  0
   74.0193   45.2603   62.1822 C   0  0  0  0  0  0  0  0  0  0  0  0
   74.1712   46.6229   62.3266 C   0  0  0  0  0  0  0  0  0  0  0  0
   73.3564   47.5079   61.6394 C   0  0  0  0  0  0  0  0  0  0  0  0
 22 23  2  0  0  0
 23 24  1  0  0  0
  1 23  1  0  0  0
 24 25  1  0  0  0
 25 26  2  0  0  0
 25 30  1  0  0  0
 26 27  1  0  0  0
 27 28  2  0  0  0
 28 29  1  0  0  0
 29 30  2  0  0  0
  1  2  1  0  0  0
  1 10  1  0  0  0
  2  3  1  0  0  0
  3  4  2  0  0  0
  3  8  1  0  0  0
  4  5  1  0  0  0
  5  6  2  0  0  0
  6  7  1  0  0  0
  7  8  2  0  0  0
  8  9  1  0  0  0
  9 10  1  0  0  0
 10 11  1  0  0  0
 11 12  2  0  0  0
 11 13  1  0  0  0
 13 14  2  0  0  0
 13 18  1  0  0  0
 14 15  1  0  0  0
 15 16  2  0  0  0
 16 19  1  0  0  0
 16 17  1  0  0  0
 19 20  2  0  0  0
 19 21  1  0  0  0
 17 18  2  0  0  0
M  CHG 1  19   1
M  CHG 1  21  -1
M  END
> <minimizedAffinity>
-7.92151

$$$$
cs_R5_output_folder/data/smiles/45.pdb


 19 20  0  0  0  0  0  0  0  0999 V2000
   69.3802   50.6870   56.4113 C   0  0  0  0  0  0  0  0  0  0  0  0
   69.3051   49.7536   55.2577 C   0  0  0  0  0  0  0  0  0  0  0  0
   68.9084   48.4623   55.4871 C   0  0  0  0  0  0  0  0  0  0  0  0
   68.8662   47.6268   54.3606 C   0  0  0  0  0  0  0  0  0  0  0  0
   69.2000   48.0643   53.1000 C   0  0  0  0  0  0  0  0  0  0  0  0
   69.5961   49.3729   52.9048 C   0  0  0  0  0  0  0  0  0  0  0  0
   69.9329   49.8103   51.6258 O   0  0  0  0  0  0  0  0  0  0  0  0
   69.6471   50.2169   53.9890 C   0  0  0  0  0  0  0  0  0  0  0  0
   70.0640   51.6331   53.8486 C   0  0  0  0  0  0  0  0  0  0  0  0
   69.1417   47.1593   51.9575 C   0  0  0  0  0  0  0  0  0  0  0  0
   68.0023   46.3629   51.7194 N   0  0  0  0  0  0  0  0  0  0  0  0
   70.0910   47.0471   51.1401 O   0  0  0  0  0  0  0  0  0  0  0  0
   68.5257   47.9216   56.8121 C   0  0  0  0  0  0  0  0  0  0  0  0
   69.6130   47.0737   57.3555 C   0  0  0  0  0  0  0  0  0  0  0  0
   70.6094   47.6959   58.0948 C   0  0  0  0  0  0  0  0  0  0  0  0
   71.6598   47.0103   58.6584 C   0  0  0  0  0  0  0  0  0  0  0  0
   71.7198   45.6502   58.4777 C   0  0  0  0  0  0  0  0  0  0  0  0
   70.7490   44.9950   57.7504 C   0  0  0  0  0  0  0  0  0  0  0  0
   69.6910   45.7168   57.1881 C   0  0  0  0  0  0  0  0  0  0  0  0
  1  2  1  0  0  0
  2  3  2  0  0  0
  2  8  1  0  0  0
  3 13  1  0  0  0
  3  4  1  0  0  0
 13 14  1  0  0  0
 14 15  2  0  0  0
 14 19  1  0  0  0
 15 16  1  0  0  0
 16 17  2  0  0  0
 17 18  1  0  0  0
 18 19  2  0  0  0
  4  5  2  0  0  0
  5 10  1  0  0  0
  5  6  1  0  0  0
 10 11  1  0  0  0
 10 12  2  0  0  0
  6  7  1  0  0  0
  6  8  2  0  0  0
  8  9  1  0  0  0
M  END
> <minimizedAffinity>
-6.80362

$$$$
cs_R5_output_folder/data/smiles/46.pdb


 22 24  0  0  0  0  0  0  0  0999 V2000
   68.2576   45.6976   55.8624 N   0  0  0  0  0  0  0  0  0  0  0  0
   69.1583   47.7038   52.8854 C   0  0  0  0  0  0  0  0  0  0  0  0
   68.5769   46.9514   51.8980 C   0  0  0  0  0  0  0  0  0  0  0  0
   67.8884   45.7900   52.1851 C   0  0  0  0  0  0  0  0  0  0  0  0
   67.8022   45.4060   53.5224 C   0  0  0  0  0  0  0  0  0  0  0  0
   68.3694   46.1307   54.5349 C   0  0  0  0  0  0  0  0  0  0  0  0
   69.0461   47.2798   54.2174 C   0  0  0  0  0  0  0  0  0  0  0  0
   69.2654   50.5372   53.2343 N   0  0  0  0  0  0  0  0  0  0  0  0
   70.0225   49.1581   52.4935 S   0  0  0  0  0  0  0  0  0  0  0  0
   71.4517   49.1015   52.9731 O   0  0  0  0  0  0  0  0  0  0  0  0
   70.0158   49.3218   50.9917 O   0  0  0  0  0  0  0  0  0  0  0  0
   68.4765   44.3444   56.2390 C   0  0  0  0  0  0  0  0  0  0  0  0
   67.4949   43.4510   56.0163 N   0  0  0  0  0  0  0  0  0  0  0  0
   67.6535   42.1490   56.3524 C   0  0  0  0  0  0  0  0  0  0  0  0
   68.8343   41.7004   56.9372 C   0  0  0  0  0  0  0  0  0  0  0  0
   69.8351   42.6239   57.1623 C   0  0  0  0  0  0  0  0  0  0  0  0
   69.5988   43.8972   56.7997 N   0  0  0  0  0  0  0  0  0  0  0  0
   71.0987   42.2089   57.7716 C   0  0  0  0  0  0  0  0  0  0  0  0
   71.3080   41.1061   58.4637 C   0  0  0  0  0  0  0  0  0  0  0  0
   72.7265   41.0311   58.9242 C   0  0  0  0  0  0  0  0  0  0  0  0
   73.3012   42.2714   58.3866 C   0  0  0  0  0  0  0  0  0  0  0  0
   72.3599   42.9346   57.7294 C   0  0  0  0  0  0  0  0  0  0  0  0
  8  9  1  0  0  0
  9 10  2  0  0  0
  9 11  2  0  0  0
  9  2  1  0  0  0
  2  3  2  0  0  0
  2  7  1  0  0  0
  3  4  1  0  0  0
  4  5  2  0  0  0
  5  6  1  0  0  0
  6  1  1  0  0  0
  6  7  2  0  0  0
  1 12  1  0  0  0
 12 13  2  0  0  0
 12 17  1  0  0  0
 13 14  1  0  0  0
 14 15  2  0  0  0
 15 16  1  0  0  0
 16 18  1  0  0  0
 16 17  2  0  0  0
 18 19  2  0  0  0
 18 22  1  0  0  0
 19 20  1  0  0  0
 20 21  1  0  0  0
 21 22  2  0  0  0
M  END
> <minimizedAffinity>
-9.23827

$$$$
cs_R5_output_folder/data/smiles/47.pdb


 25 27  0  0  0  0  0  0  0  0999 V2000
   72.5101   35.4906   53.6692 C   0  0  0  0  0  0  0  0  0  0  0  0
   73.9051   35.3396   54.1294 C   0  0  0  0  0  0  0  0  0  0  0  0
   75.0514   35.3519   53.3735 C   0  0  0  0  0  0  0  0  0  0  0  0
   76.1749   35.1778   54.1855 C   0  0  0  0  0  0  0  0  0  0  0  0
   75.6521   35.0616   55.4391 C   0  0  0  0  0  0  0  0  0  0  0  0
   76.4234   34.8577   56.6875 C   0  0  0  0  0  0  0  0  0  0  0  0
   74.2992   35.1597   55.3936 N   0  0  0  0  0  0  0  0  0  0  0  0
   73.4374   35.0814   56.5302 C   0  0  0  0  0  0  0  0  0  0  0  0
   72.8924   36.2275   57.0575 C   0  0  0  0  0  0  0  0  0  0  0  0
   72.0445   36.1762   58.1704 C   0  0  0  0  0  0  0  0  0  0  0  0
   71.7323   34.9706   58.7709 C   0  0  0  0  0  0  0  0  0  0  0  0
   72.2800   33.8241   58.2406 C   0  0  0  0  0  0  0  0  0  0  0  0
   73.1233   33.8844   57.1314 C   0  0  0  0  0  0  0  0  0  0  0  0
   77.5408   35.1446   53.6843 C   0  0  0  0  0  0  0  0  0  0  0  0
   78.0077   34.8272   52.5981 N   0  0  0  0  0  0  0  0  0  0  0  0
   77.6651   34.3845   51.3752 N   0  0  0  0  0  0  0  0  0  0  0  0
   77.3380   35.2029   50.2506 C   0  0  0  0  0  0  0  0  0  0  0  0
   77.3880   36.4506   50.4701 O   0  0  0  0  0  0  0  0  0  0  0  0
   76.9727   34.6746   48.9452 C   0  0  0  0  0  0  0  0  0  0  0  0
   75.9246   33.8258   48.6952 C   0  0  0  0  0  0  0  0  0  0  0  0
   75.6247   33.3516   47.4124 C   0  0  0  0  0  0  0  0  0  0  0  0
   76.4005   33.7395   46.3424 C   0  0  0  0  0  0  0  0  0  0  0  0
   77.4588   34.5929   46.5751 C   0  0  0  0  0  0  0  0  0  0  0  0
   78.2090   34.9631   45.5108 F   0  0  0  0  0  0  0  0  0  0  0  0
   77.7443   35.0536   47.8427 C   0  0  0  0  0  0  0  0  0  0  0  0
  1  2  1  0  0  0
  2  3  2  0  0  0
  2  7  1  0  0  0
  3  4  1  0  0  0
  4 14  1  0  0  0
  4  5  2  0  0  0
 14 15  2  0  0  0
 15 16  1  0  0  0
 16 17  1  0  0  0
 17 18  2  0  0  0
 17 19  1  0  0  0
 19 20  2  0  0  0
 19 25  1  0  0  0
 20 21  1  0  0  0
 21 22  2  0  0  0
 22 23  1  0  0  0
 23 24  1  0  0  0
 23 25  2  0  0  0
  5  6  1  0  0  0
  5  7  1  0  0  0
  7  8  1  0  0  0
  8  9  2  0  0  0
  8 13  1  0  0  0
  9 10  1  0  0  0
 10 11  2  0  0  0
 11 12  1  0  0  0
 12 13  2  0  0  0
M  END
> <minimizedAffinity>
-8.15321

$$$$
cs_R5_output_folder/data/smiles/48.pdb


 18 19  0  0  0  0  0  0  0  0999 V2000
   69.1741   47.7437   52.8431 C   0  0  0  0  0  0  0  0  0  0  0  0
   68.6482   47.0043   51.8173 C   0  0  0  0  0  0  0  0  0  0  0  0
   67.9557   45.8464   52.1202 C   0  0  0  0  0  0  0  0  0  0  0  0
   67.7963   45.4407   53.4370 C   0  0  0  0  0  0  0  0  0  0  0  0
   68.3291   46.1867   54.4960 C   0  0  0  0  0  0  0  0  0  0  0  0
   69.0079   47.3282   54.1525 C   0  0  0  0  0  0  0  0  0  0  0  0
   70.0762   49.1915   52.4492 S   0  0  0  0  0  0  0  0  0  0  0  0
   71.4830   49.0527   52.9578 O   0  0  0  0  0  0  0  0  0  0  0  0
   70.0160   49.3752   50.9625 O   0  0  0  0  0  0  0  0  0  0  0  0
   70.0454   51.0127   54.3102 C   0  0  0  0  0  0  0  0  0  0  0  0
   69.2800   50.5396   53.1829 N   0  0  0  0  0  0  0  0  0  0  0  0
   68.1518   45.7196   55.8184 N   0  0  0  0  0  0  0  0  0  0  0  0
   68.2606   44.3431   56.1173 C   0  0  0  0  0  0  0  0  0  0  0  0
   67.4189   43.3844   55.6968 N   0  0  0  0  0  0  0  0  0  0  0  0
   67.5794   42.0919   56.0267 C   0  0  0  0  0  0  0  0  0  0  0  0
   68.6184   41.6542   56.8197 C   0  0  0  0  0  0  0  0  0  0  0  0
   69.4956   42.6565   57.2564 C   0  0  0  0  0  0  0  0  0  0  0  0
   69.2823   43.9266   56.8938 N   0  0  0  0  0  0  0  0  0  0  0  0
 10 11  1  0  0  0
 11  7  1  0  0  0
  7  8  2  0  0  0
  7  9  2  0  0  0
  7  1  1  0  0  0
  1  2  2  0  0  0
  1  6  1  0  0  0
  2  3  1  0  0  0
  3  4  2  0  0  0
  4  5  1  0  0  0
  5 12  1  0  0  0
  5  6  2  0  0  0
 12 13  1  0  0  0
 13 14  2  0  0  0
 13 18  1  0  0  0
 14 15  1  0  0  0
 15 16  2  0  0  0
 16 17  1  0  0  0
 17 18  2  0  0  0
M  END
> <minimizedAffinity>
-8.03345

$$$$
cs_R5_output_folder/data/smiles/49.pdb


 23 25  0  0  0  0  0  0  0  0999 V2000
   73.6348   35.1932   55.9741 C   0  0  0  0  0  0  0  0  0  0  0  0
   72.9621   35.5118   54.8332 C   0  0  0  0  0  0  0  0  0  0  0  0
   73.6436   35.6424   53.6126 C   0  0  0  0  0  0  0  0  0  0  0  0
   75.0064   35.4496   53.5480 C   0  0  0  0  0  0  0  0  0  0  0  0
   75.6773   35.1289   54.7028 C   0  0  0  0  0  0  0  0  0  0  0  0
   74.9791   35.0051   55.8990 C   0  0  0  0  0  0  0  0  0  0  0  0
   71.3054   34.4665   60.8374 O   0  0  0  0  0  0  0  0  0  0  0  0
   71.5425   34.6443   59.6361 C   0  0  0  0  0  0  0  0  0  0  0  0
   71.4547   35.9972   58.9894 C   0  0  0  0  0  0  0  0  0  0  0  0
   72.5692   36.2458   58.0470 C   0  0  0  0  0  0  0  0  0  0  0  0
   72.9138   35.0566   57.2483 C   0  0  0  0  0  0  0  0  0  0  0  0
   72.5931   33.8788   57.6485 N   0  0  0  0  0  0  0  0  0  0  0  0
   71.9156   33.5436   58.8114 N   0  0  0  0  0  0  0  0  0  0  0  0
   75.7084   35.5832   52.2967 N   0  0  0  0  0  0  0  0  0  0  0  0
   75.7462   34.5715   51.3112 C   0  0  0  0  0  0  0  0  0  0  0  0
   75.1218   33.4761   51.5418 O   0  0  0  0  0  0  0  0  0  0  0  0
   76.4508   34.6853   50.0381 C   0  0  0  0  0  0  0  0  0  0  0  0
   77.5550   35.5358   49.9169 C   0  0  0  0  0  0  0  0  0  0  0  0
   78.2431   35.6624   48.7196 C   0  0  0  0  0  0  0  0  0  0  0  0
   77.8290   34.9349   47.6234 C   0  0  0  0  0  0  0  0  0  0  0  0
   78.4613   35.0148   46.4205 F   0  0  0  0  0  0  0  0  0  0  0  0
   76.7236   34.0809   47.7399 C   0  0  0  0  0  0  0  0  0  0  0  0
   76.0498   33.9637   48.9331 C   0  0  0  0  0  0  0  0  0  0  0  0
  7  8  2  0  0  0
  8  9  1  0  0  0
  8 13  1  0  0  0
  9 10  1  0  0  0
 10 11  1  0  0  0
 11  1  1  0  0  0
 11 12  2  0  0  0
  1  2  2  0  0  0
  1  6  1  0  0  0
  2  3  1  0  0  0
  3  4  2  0  0  0
  4 14  1  0  0  0
  4  5  1  0  0  0
 14 15  1  0  0  0
 15 16  2  0  0  0
 15 17  1  0  0  0
 17 18  2  0  0  0
 17 23  1  0  0  0
 18 19  1  0  0  0
 19 20  2  0  0  0
 20 21  1  0  0  0
 20 22  1  0  0  0
 22 23  2  0  0  0
  5  6  2  0  0  0
 12 13  1  0  0  0
M  END
> <minimizedAffinity>
-7.48254

$$$$
cs_R5_output_folder/data/smiles/50.pdb


 25 27  0  0  0  0  0  0  0  0999 V2000
   70.4258   41.9205   58.7516 C   0  0  0  0  0  0  0  0  0  0  0  0
   69.3763   41.5194   57.8030 C   0  0  0  0  0  0  0  0  0  0  0  0
   68.7411   42.3752   56.9299 C   0  0  0  0  0  0  0  0  0  0  0  0
   67.8452   41.5906   56.2435 C   0  0  0  0  0  0  0  0  0  0  0  0
   67.9757   40.3386   56.7169 N   0  0  0  0  0  0  0  0  0  0  0  0
   68.8950   40.2639   57.6623 N   0  0  0  0  0  0  0  0  0  0  0  0
   69.3419   39.1347   58.4176 C   0  0  0  0  0  0  0  0  0  0  0  0
   70.5565   38.5174   58.2006 C   0  0  0  0  0  0  0  0  0  0  0  0
   70.9493   37.4210   58.9545 C   0  0  0  0  0  0  0  0  0  0  0  0
   70.1426   36.9044   59.9496 C   0  0  0  0  0  0  0  0  0  0  0  0
   70.6456   35.5128   60.9049 Cl  0  0  0  0  0  0  0  0  0  0  0  0
   68.9290   37.5182   60.1683 C   0  0  0  0  0  0  0  0  0  0  0  0
   68.5364   38.6172   59.4118 C   0  0  0  0  0  0  0  0  0  0  0  0
   68.9684   43.8059   56.7659 C   0  0  0  0  0  0  0  0  0  0  0  0
   69.8490   44.3999   57.4249 O   0  0  0  0  0  0  0  0  0  0  0  0
   68.1784   44.5413   55.8447 N   0  0  0  0  0  0  0  0  0  0  0  0
   68.2919   45.9562   55.5878 C   0  0  0  0  0  0  0  0  0  0  0  0
   68.3429   46.2631   54.1424 C   0  0  0  0  0  0  0  0  0  0  0  0
   67.6102   45.5215   53.2517 C   0  0  0  0  0  0  0  0  0  0  0  0
   67.6846   45.8161   51.9117 C   0  0  0  0  0  0  0  0  0  0  0  0
   68.4785   46.8370   51.4708 C   0  0  0  0  0  0  0  0  0  0  0  0
   69.2431   47.6200   52.3396 C   0  0  0  0  0  0  0  0  0  0  0  0
   69.1433   47.2952   53.6732 C   0  0  0  0  0  0  0  0  0  0  0  0
   70.0998   48.7262   51.8319 C   0  0  0  0  0  0  0  0  0  0  0  0
   71.0863   49.1434   52.7947 N   0  0  0  0  0  0  0  0  0  0  0  0
  1  2  1  0  0  0
  2  3  2  0  0  0
  2  6  1  0  0  0
  3 14  1  0  0  0
  3  4  1  0  0  0
 14 15  2  0  0  0
 14 16  1  0  0  0
 16 17  1  0  0  0
 17 18  1  0  0  0
 18 19  2  0  0  0
 18 23  1  0  0  0
 19 20  1  0  0  0
 20 21  2  0  0  0
 21 22  1  0  0  0
 22 24  1  0  0  0
 22 23  2  0  0  0
 24 25  1  0  0  0
  4  5  2  0  0  0
  5  6  1  0  0  0
  6  7  1  0  0  0
  7  8  2  0  0  0
  7 13  1  0  0  0
  8  9  1  0  0  0
  9 10  2  0  0  0
 10 11  1  0  0  0
 10 12  1  0  0  0
 12 13  2  0  0  0
M  CHG 1  25   1
M  END
> <minimizedAffinity>
-8.90600

$$$$
cs_R5_output_folder/data/smiles/51.pdb


 20 21  0  0  0  0  0  0  0  0999 V2000
   70.2866   50.6915   53.0056 O   0  0  0  0  0  0  0  0  0  0  0  0
   70.3205   49.8540   53.9405 C   0  0  0  0  0  0  0  0  0  0  0  0
   71.0727   50.2003   55.0831 N   0  0  0  0  0  0  0  0  0  0  0  0
   69.5873   48.6072   53.7657 C   0  0  0  0  0  0  0  0  0  0  0  0
   69.1388   47.8369   54.8268 C   0  0  0  0  0  0  0  0  0  0  0  0
   68.4389   46.6469   54.6474 C   0  0  0  0  0  0  0  0  0  0  0  0
   68.0185   45.9245   55.7539 O   0  0  0  0  0  0  0  0  0  0  0  0
   68.1936   46.2418   53.3574 C   0  0  0  0  0  0  0  0  0  0  0  0
   67.4969   45.0583   53.1753 O   0  0  0  0  0  0  0  0  0  0  0  0
   68.6153   46.9681   52.2625 C   0  0  0  0  0  0  0  0  0  0  0  0
   68.3467   46.5209   51.0114 F   0  0  0  0  0  0  0  0  0  0  0  0
   69.3039   48.1360   52.5014 C   0  0  0  0  0  0  0  0  0  0  0  0
   71.7799   51.4304   55.2200 C   0  0  0  0  0  0  0  0  0  0  0  0
   71.1392   52.6155   55.5225 C   0  0  0  0  0  0  0  0  0  0  0  0
   71.8291   53.8035   55.6538 C   0  0  0  0  0  0  0  0  0  0  0  0
   73.1965   53.8626   55.4881 C   0  0  0  0  0  0  0  0  0  0  0  0
   73.9045   55.0616   55.6197 O   0  0  0  0  0  0  0  0  0  0  0  0
   73.8464   52.6856   55.1860 C   0  0  0  0  0  0  0  0  0  0  0  0
   75.2272   52.7542   55.0211 O   0  0  0  0  0  0  0  0  0  0  0  0
   73.1498   51.4910   55.0544 C   0  0  0  0  0  0  0  0  0  0  0  0
  1  2  2  0  0  0
  2  3  1  0  0  0
  2  4  1  0  0  0
  3 13  1  0  0  0
 13 14  2  0  0  0
 13 20  1  0  0  0
 14 15  1  0  0  0
 15 16  2  0  0  0
 16 17  1  0  0  0
 16 18  1  0  0  0
 18 19  1  0  0  0
 18 20  2  0  0  0
  4  5  2  0  0  0
  4 12  1  0  0  0
  5  6  1  0  0  0
  6  7  1  0  0  0
  6  8  2  0  0  0
  8  9  1  0  0  0
  8 10  1  0  0  0
 10 11  1  0  0  0
 10 12  2  0  0  0
M  END
> <minimizedAffinity>
-7.17235

$$$$
cs_R5_output_folder/data/smiles/52.pdb


 20 22  0  0  0  0  0  0  0  0999 V2000
   74.9941   34.9887   55.8411 C   0  0  0  0  0  0  0  0  0  0  0  0
   75.5715   35.3233   54.6148 C   0  0  0  0  0  0  0  0  0  0  0  0
   74.8306   35.5315   53.5043 C   0  0  0  0  0  0  0  0  0  0  0  0
   73.4567   35.4280   53.5118 C   0  0  0  0  0  0  0  0  0  0  0  0
   72.7097   35.6384   52.3955 F   0  0  0  0  0  0  0  0  0  0  0  0
   72.8933   35.0980   54.7250 C   0  0  0  0  0  0  0  0  0  0  0  0
   73.6243   34.8791   55.8733 C   0  0  0  0  0  0  0  0  0  0  0  0
   72.9268   34.5366   57.0985 C   0  0  0  0  0  0  0  0  0  0  0  0
   72.8570   33.2413   57.5687 C   0  0  0  0  0  0  0  0  0  0  0  0
   72.1792   32.9377   58.7306 C   0  0  0  0  0  0  0  0  0  0  0  0
   71.5465   33.9326   59.4625 C   0  0  0  0  0  0  0  0  0  0  0  0
   71.6201   35.2307   58.9864 C   0  0  0  0  0  0  0  0  0  0  0  0
   70.9844   36.2038   59.7271 C   0  0  0  0  0  0  0  0  0  0  0  0
   71.0098   37.5148   59.3243 C   0  0  0  0  0  0  0  0  0  0  0  0
   71.6796   37.8215   58.1730 C   0  0  0  0  0  0  0  0  0  0  0  0
   72.3126   36.8681   57.4305 C   0  0  0  0  0  0  0  0  0  0  0  0
   72.3064   35.5419   57.8072 C   0  0  0  0  0  0  0  0  0  0  0  0
   75.8893   35.5934   58.1535 N   0  0  0  0  0  0  0  0  0  0  0  0
   75.8373   34.7709   57.0137 C   0  0  0  0  0  0  0  0  0  0  0  0
   76.5892   33.7647   57.0171 O   0  0  0  0  0  0  0  0  0  0  0  0
 18 19  1  0  0  0
 19 20  2  0  0  0
 19  1  1  0  0  0
  1  2  2  0  0  0
  1  7  1  0  0  0
  2  3  1  0  0  0
  3  4  2  0  0  0
  4  5  1  0  0  0
  4  6  1  0  0  0
  6  7  2  0  0  0
  7  8  1  0  0  0
  8  9  2  0  0  0
  8 17  1  0  0  0
  9 10  1  0  0  0
 10 11  2  0  0  0
 11 12  1  0  0  0
 12 13  1  0  0  0
 12 17  2  0  0  0
 13 14  2  0  0  0
 14 15  1  0  0  0
 15 16  2  0  0  0
 16 17  1  0  0  0
M  END
> <minimizedAffinity>
-6.84996

$$$$
cs_R5_output_folder/data/smiles/53.pdb


 21 23  0  0  0  0  0  0  0  0999 V2000
   68.5489   45.9143   55.6287 C   0  0  0  0  0  0  0  0  0  0  0  0
   68.9738   46.4975   56.8043 N   0  0  0  0  0  0  0  0  0  0  0  0
   69.5348   47.6900   56.8741 C   0  0  0  0  0  0  0  0  0  0  0  0
   69.7216   48.4152   55.7651 N   0  0  0  0  0  0  0  0  0  0  0  0
   69.3360   47.9213   54.5796 C   0  0  0  0  0  0  0  0  0  0  0  0
   69.5210   48.6587   53.4147 C   0  0  0  0  0  0  0  0  0  0  0  0
   69.1394   48.1864   52.1801 C   0  0  0  0  0  0  0  0  0  0  0  0
   68.5553   46.9380   52.1249 C   0  0  0  0  0  0  0  0  0  0  0  0
   68.1596   46.4217   50.9391 F   0  0  0  0  0  0  0  0  0  0  0  0
   68.3665   46.2018   53.2600 C   0  0  0  0  0  0  0  0  0  0  0  0
   68.7404   46.6575   54.4912 C   0  0  0  0  0  0  0  0  0  0  0  0
   67.9997   44.7136   55.6679 O   0  0  0  0  0  0  0  0  0  0  0  0
   68.4293   40.8254   57.1426 C   0  0  0  0  0  0  0  0  0  0  0  0
   67.3939   41.1676   56.2993 C   0  0  0  0  0  0  0  0  0  0  0  0
   67.2556   42.4392   55.8192 C   0  0  0  0  0  0  0  0  0  0  0  0
   68.1429   43.4776   56.1409 C   0  0  0  0  0  0  0  0  0  0  0  0
   69.1879   43.1059   57.0011 C   0  0  0  0  0  0  0  0  0  0  0  0
   69.3129   41.8288   57.4734 C   0  0  0  0  0  0  0  0  0  0  0  0
   67.6236   38.6899   57.6584 O   0  0  0  0  0  0  0  0  0  0  0  0
   68.5713   39.4996   57.6386 N   0  0  0  0  0  0  0  0  0  0  0  0
   69.7750   39.0500   58.1234 O   0  0  0  0  0  0  0  0  0  0  0  0
 19 20  2  0  0  0
 20 21  1  0  0  0
 20 13  1  0  0  0
 13 14  2  0  0  0
 13 18  1  0  0  0
 14 15  1  0  0  0
 15 16  2  0  0  0
 16 12  1  0  0  0
 16 17  1  0  0  0
 12  1  1  0  0  0
  1  2  2  0  0  0
  1 11  1  0  0  0
  2  3  1  0  0  0
  3  4  2  0  0  0
  4  5  1  0  0  0
  5  6  1  0  0  0
  5 11  2  0  0  0
  6  7  2  0  0  0
  7  8  1  0  0  0
  8  9  1  0  0  0
  8 10  2  0  0  0
 10 11  1  0  0  0
 17 18  2  0  0  0
M  CHG 1  20   1
M  CHG 1  21  -1
M  END
> <minimizedAffinity>
-8.28685

$$$$
cs_R5_output_folder/data/smiles/54.pdb


 27 30  0  0  0  0  0  0  0  0999 V2000
   71.0434   46.0333   58.3497 C   0  0  0  0  0  0  0  0  0  0  0  0
   70.1377   46.5796   57.4832 C   0  0  0  0  0  0  0  0  0  0  0  0
   69.8612   47.9505   57.4067 C   0  0  0  0  0  0  0  0  0  0  0  0
   70.5455   48.7682   58.2547 C   0  0  0  0  0  0  0  0  0  0  0  0
   71.4636   48.2388   59.1382 C   0  0  0  0  0  0  0  0  0  0  0  0
   71.7205   46.8856   59.1964 C   0  0  0  0  0  0  0  0  0  0  0  0
   73.0050   46.1788   60.4364 Br  0  0  0  0  0  0  0  0  0  0  0  0
   69.4643   44.1603   59.6668 O   0  0  0  0  0  0  0  0  0  0  0  0
   70.3637   43.7090   58.9243 C   0  0  0  0  0  0  0  0  0  0  0  0
   70.4604   42.2760   58.5568 C   0  0  0  0  0  0  0  0  0  0  0  0
   71.7094   41.9387   57.8215 C   0  0  0  0  0  0  0  0  0  0  0  0
   72.8912   42.7529   58.3670 C   0  0  0  0  0  0  0  0  0  0  0  0
   72.5937   44.1638   58.0049 C   0  0  0  0  0  0  0  0  0  0  0  0
   73.3722   44.9182   57.3709 O   0  0  0  0  0  0  0  0  0  0  0  0
   71.3236   44.6470   58.4285 N   0  0  0  0  0  0  0  0  0  0  0  0
   68.8349   48.3716   56.4259 C   0  0  0  0  0  0  0  0  0  0  0  0
   69.3341   48.3700   55.0334 C   0  0  0  0  0  0  0  0  0  0  0  0
   70.3046   49.2770   54.6943 N   0  0  0  0  0  0  0  0  0  0  0  0
   70.7694   49.3671   53.4669 N   0  0  0  0  0  0  0  0  0  0  0  0
   70.3315   48.5838   52.4671 C   0  0  0  0  0  0  0  0  0  0  0  0
   70.7994   48.6961   51.2974 O   0  0  0  0  0  0  0  0  0  0  0  0
   69.3501   47.6314   52.7104 C   0  0  0  0  0  0  0  0  0  0  0  0
   68.8878   46.8031   51.7091 C   0  0  0  0  0  0  0  0  0  0  0  0
   67.9265   45.8608   51.9867 C   0  0  0  0  0  0  0  0  0  0  0  0
   67.4620   45.7902   53.2814 C   0  0  0  0  0  0  0  0  0  0  0  0
   67.9214   46.6192   54.2937 C   0  0  0  0  0  0  0  0  0  0  0  0
   68.8802   47.5630   54.0231 C   0  0  0  0  0  0  0  0  0  0  0  0
  8  9  2  0  0  0
  9 10  1  0  0  0
  9 15  1  0  0  0
 10 11  1  0  0  0
 11 12  1  0  0  0
 12 13  1  0  0  0
 13 14  2  0  0  0
 13 15  1  0  0  0
 15  1  1  0  0  0
  1  2  2  0  0  0
  1  6  1  0  0  0
  2  3  1  0  0  0
  3 16  1  0  0  0
  3  4  2  0  0  0
 16 17  1  0  0  0
 17 18  2  0  0  0
 17 27  1  0  0  0
 18 19  1  0  0  0
 19 20  1  0  0  0
 20 21  2  0  0  0
 20 22  1  0  0  0
 22 23  1  0  0  0
 22 27  2  0  0  0
 23 24  2  0  0  0
 24 25  1  0  0  0
 25 26  2  0  0  0
 26 27  1  0  0  0
  4  5  1  0  0  0
  5  6  2  0  0  0
  6  7  1  0  0  0
M  END
> <minimizedAffinity>
-9.31022

$$$$
cs_R5_output_folder/data/smiles/55.pdb


 22 23  0  0  0  0  0  0  0  0999 V2000
   70.7413   45.2232   59.3276 O   0  0  0  0  0  0  0  0  0  0  0  0
   70.2663   44.5352   58.3580 C   0  0  0  0  0  0  0  0  0  0  0  0
   69.5612   45.2337   57.3401 N   0  0  0  0  0  0  0  0  0  0  0  0
   70.4362   43.1090   58.2948 C   0  0  0  0  0  0  0  0  0  0  0  0
   71.5983   42.4455   58.4910 C   0  0  0  0  0  0  0  0  0  0  0  0
   71.6828   41.0552   58.4123 C   0  0  0  0  0  0  0  0  0  0  0  0
   70.5537   40.3262   58.1268 C   0  0  0  0  0  0  0  0  0  0  0  0
   69.3452   40.9632   57.9178 C   0  0  0  0  0  0  0  0  0  0  0  0
   69.3081   42.3379   58.0052 C   0  0  0  0  0  0  0  0  0  0  0  0
   68.1081   40.1998   57.6060 C   0  0  0  0  0  0  0  0  0  0  0  0
   68.3516   38.8714   57.8552 F   0  0  0  0  0  0  0  0  0  0  0  0
   67.8842   40.3356   56.2494 F   0  0  0  0  0  0  0  0  0  0  0  0
   67.0382   40.6613   58.3154 F   0  0  0  0  0  0  0  0  0  0  0  0
   69.3713   46.6000   57.3537 N   0  0  0  0  0  0  0  0  0  0  0  0
   69.0469   47.3566   56.4100 C   0  0  0  0  0  0  0  0  0  0  0  0
   68.7706   47.0457   55.0277 C   0  0  0  0  0  0  0  0  0  0  0  0
   68.0735   45.9557   54.5691 C   0  0  0  0  0  0  0  0  0  0  0  0
   67.8328   45.6990   53.2159 C   0  0  0  0  0  0  0  0  0  0  0  0
   68.3088   46.5721   52.2694 C   0  0  0  0  0  0  0  0  0  0  0  0
   68.1211   46.4009   50.9401 F   0  0  0  0  0  0  0  0  0  0  0  0
   69.0046   47.6645   52.7032 C   0  0  0  0  0  0  0  0  0  0  0  0
   69.2389   47.9110   54.0312 C   0  0  0  0  0  0  0  0  0  0  0  0
  1  2  2  0  0  0
  2  3  1  0  0  0
  2  4  1  0  0  0
  3 14  1  0  0  0
 14 15  2  0  0  0
 15 16  1  0  0  0
 16 17  2  0  0  0
 16 22  1  0  0  0
 17 18  1  0  0  0
 18 19  2  0  0  0
 19 20  1  0  0  0
 19 21  1  0  0  0
 21 22  2  0  0  0
  4  5  2  0  0  0
  4  9  1  0  0  0
  5  6  1  0  0  0
  6  7  2  0  0  0
  7  8  1  0  0  0
  8 10  1  0  0  0
  8  9  2  0  0  0
 10 11  1  0  0  0
 10 12  1  0  0  0
 10 13  1  0  0  0
M  END
> <minimizedAffinity>
-7.94870

$$$$
cs_R5_output_folder/data/smiles/56.pdb


 19 20  0  0  0  0  0  0  0  0999 V2000
   68.6346   47.0751   54.5271 C   0  0  0  0  0  0  0  0  0  0  0  0
   68.0389   45.9910   53.8853 C   0  0  0  0  0  0  0  0  0  0  0  0
   68.0731   45.9054   52.5125 C   0  0  0  0  0  0  0  0  0  0  0  0
   68.6995   46.9005   51.8011 C   0  0  0  0  0  0  0  0  0  0  0  0
   69.2920   47.9795   52.4506 C   0  0  0  0  0  0  0  0  0  0  0  0
   69.2631   48.0742   53.8213 C   0  0  0  0  0  0  0  0  0  0  0  0
   69.8639   49.1691   54.4900 N   0  0  0  0  0  0  0  0  0  0  0  0
   69.3830   50.5066   54.3485 C   0  0  0  0  0  0  0  0  0  0  0  0
   68.3843   50.6238   53.5816 O   0  0  0  0  0  0  0  0  0  0  0  0
   69.9719   51.6569   55.0176 C   0  0  0  0  0  0  0  0  0  0  0  0
   71.3023   51.9445   54.9472 C   0  0  0  0  0  0  0  0  0  0  0  0
   71.8695   53.0480   55.5888 C   0  0  0  0  0  0  0  0  0  0  0  0
   71.0496   53.8300   56.2878 N   0  0  0  0  0  0  0  0  0  0  0  0
   69.7278   53.5828   56.3831 C   0  0  0  0  0  0  0  0  0  0  0  0
   69.1494   52.4807   55.7458 C   0  0  0  0  0  0  0  0  0  0  0  0
   68.5979   47.1636   55.9732 C   0  0  0  0  0  0  0  0  0  0  0  0
   67.5662   47.4656   56.6260 O   0  0  0  0  0  0  0  0  0  0  0  0
   70.1898   47.7319   57.7315 C   0  0  0  0  0  0  0  0  0  0  0  0
   69.7516   46.9043   56.6888 O   0  0  0  0  0  0  0  0  0  0  0  0
 18 19  1  0  0  0
 19 16  1  0  0  0
 16 17  2  0  0  0
 16  1  1  0  0  0
  1  2  2  0  0  0
  1  6  1  0  0  0
  2  3  1  0  0  0
  3  4  2  0  0  0
  4  5  1  0  0  0
  5  6  2  0  0  0
  6  7  1  0  0  0
  7  8  1  0  0  0
  8  9  2  0  0  0
  8 10  1  0  0  0
 10 11  2  0  0  0
 10 15  1  0  0  0
 11 12  1  0  0  0
 12 13  2  0  0  0
 13 14  1  0  0  0
 14 15  2  0  0  0
M  END
> <minimizedAffinity>
-6.31496

$$$$
cs_R5_output_folder/data/smiles/57.pdb


 20 21  0  0  0  0  0  0  0  0999 V2000
   68.3274   41.9566   56.7270 C   0  0  0  0  0  0  0  0  0  0  0  0
   67.6792   42.6621   55.7395 C   0  0  0  0  0  0  0  0  0  0  0  0
   67.9402   44.0198   55.5231 C   0  0  0  0  0  0  0  0  0  0  0  0
   68.8500   44.7167   56.2790 C   0  0  0  0  0  0  0  0  0  0  0  0
   69.5052   43.9856   57.2839 C   0  0  0  0  0  0  0  0  0  0  0  0
   69.2405   42.6487   57.4878 C   0  0  0  0  0  0  0  0  0  0  0  0
   68.0889   39.9276   58.3229 C   0  0  0  0  0  0  0  0  0  0  0  0
   68.0747   40.5429   56.9713 C   0  0  0  0  0  0  0  0  0  0  0  0
   67.8315   39.8116   55.9780 O   0  0  0  0  0  0  0  0  0  0  0  0
   70.4490   44.6861   58.0749 N   0  0  0  0  0  0  0  0  0  0  0  0
   70.0218   45.2570   59.1116 O   0  0  0  0  0  0  0  0  0  0  0  0
   71.7789   44.7836   57.7908 O   0  0  0  0  0  0  0  0  0  0  0  0
   69.1909   46.0247   56.1728 O   0  0  0  0  0  0  0  0  0  0  0  0
   68.4709   47.0254   55.5570 C   0  0  0  0  0  0  0  0  0  0  0  0
   68.7714   47.2184   54.0940 C   0  0  0  0  0  0  0  0  0  0  0  0
   68.3707   46.4959   53.0634 C   0  0  0  0  0  0  0  0  0  0  0  0
   68.8904   47.0267   51.7886 C   0  0  0  0  0  0  0  0  0  0  0  0
   69.6698   48.1887   52.2322 C   0  0  0  0  0  0  0  0  0  0  0  0
   70.3438   48.9942   51.3456 F   0  0  0  0  0  0  0  0  0  0  0  0
   69.5950   48.2854   53.5280 C   0  0  0  0  0  0  0  0  0  0  0  0
  7  8  1  0  0  0
  8  9  2  0  0  0
  8  1  1  0  0  0
  1  2  2  0  0  0
  1  6  1  0  0  0
  2  3  1  0  0  0
  3  4  2  0  0  0
  4 13  1  0  0  0
  4  5  1  0  0  0
 13 14  1  0  0  0
 14 15  1  0  0  0
 15 16  2  0  0  0
 15 20  1  0  0  0
 16 17  1  0  0  0
 17 18  1  0  0  0
 18 19  1  0  0  0
 18 20  2  0  0  0
  5 10  1  0  0  0
  5  6  2  0  0  0
 10 11  2  0  0  0
 10 12  1  0  0  0
M  CHG 1  10   1
M  CHG 1  12  -1
M  END
> <minimizedAffinity>
-7.12703

$$$$
cs_R5_output_folder/data/smiles/58.pdb


 24 26  0  0  0  0  0  0  0  0999 V2000
   70.4872   46.2466   58.0000 C   0  0  0  0  0  0  0  0  0  0  0  0
   71.5107   47.0663   58.3513 N   0  0  0  0  0  0  0  0  0  0  0  0
   72.7421   46.5995   58.5698 C   0  0  0  0  0  0  0  0  0  0  0  0
   73.0389   45.2956   58.4559 N   0  0  0  0  0  0  0  0  0  0  0  0
   72.0846   44.4029   58.1099 C   0  0  0  0  0  0  0  0  0  0  0  0
   72.4132   43.0573   57.9965 C   0  0  0  0  0  0  0  0  0  0  0  0
   71.4262   42.1686   57.6438 C   0  0  0  0  0  0  0  0  0  0  0  0
   70.1560   42.6411   57.4169 C   0  0  0  0  0  0  0  0  0  0  0  0
   69.8231   43.9820   57.5289 C   0  0  0  0  0  0  0  0  0  0  0  0
   70.8019   44.8906   57.8820 C   0  0  0  0  0  0  0  0  0  0  0  0
   73.7809   42.6210   58.2507 C   0  0  0  0  0  0  0  0  0  0  0  0
   74.2222   42.3690   59.5657 N   0  0  0  0  0  0  0  0  0  0  0  0
   74.5757   42.4664   57.2950 O   0  0  0  0  0  0  0  0  0  0  0  0
   69.1979   46.7416   57.7692 N   0  0  0  0  0  0  0  0  0  0  0  0
   68.9158   47.7924   56.8149 C   0  0  0  0  0  0  0  0  0  0  0  0
   69.3375   47.7301   53.0672 C   0  0  0  0  0  0  0  0  0  0  0  0
   68.6567   46.5733   52.7602 C   0  0  0  0  0  0  0  0  0  0  0  0
   68.0545   45.8069   53.7312 C   0  0  0  0  0  0  0  0  0  0  0  0
   68.1445   46.2267   55.0493 C   0  0  0  0  0  0  0  0  0  0  0  0
   68.8105   47.3722   55.4208 C   0  0  0  0  0  0  0  0  0  0  0  0
   69.3984   48.1000   54.3749 C   0  0  0  0  0  0  0  0  0  0  0  0
   70.0482   49.9084   52.0797 N   0  0  0  0  0  0  0  0  0  0  0  0
   69.9582   48.5062   51.9979 C   0  0  0  0  0  0  0  0  0  0  0  0
   70.4274   47.9462   50.9782 O   0  0  0  0  0  0  0  0  0  0  0  0
 22 23  1  0  0  0
 23 24  2  0  0  0
 23 16  1  0  0  0
 16 17  2  0  0  0
 16 21  1  0  0  0
 17 18  1  0  0  0
 18 19  2  0  0  0
 19 20  1  0  0  0
 20 15  1  0  0  0
 20 21  2  0  0  0
 15 14  1  0  0  0
 14  1  1  0  0  0
  1  2  2  0  0  0
  1 10  1  0  0  0
  2  3  1  0  0  0
  3  4  2  0  0  0
  4  5  1  0  0  0
  5  6  1  0  0  0
  5 10  2  0  0  0
  6 11  1  0  0  0
  6  7  2  0  0  0
 11 12  1  0  0  0
 11 13  2  0  0  0
  7  8  1  0  0  0
  8  9  2  0  0  0
  9 10  1  0  0  0
M  END
> <minimizedAffinity>
-8.13313

$$$$
cs_R5_output_folder/data/smiles/59.pdb


 22 24  0  0  0  0  0  0  0  0999 V2000
   73.1425   51.1635   55.4504 C   0  0  0  0  0  0  0  0  0  0  0  0
   72.0010   50.2861   55.0514 C   0  0  0  0  0  0  0  0  0  0  0  0
   71.2692   49.6018   55.9510 N   0  0  0  0  0  0  0  0  0  0  0  0
   70.2404   48.8096   55.6008 C   0  0  0  0  0  0  0  0  0  0  0  0
   69.5068   48.1242   56.5016 N   0  0  0  0  0  0  0  0  0  0  0  0
   68.4755   47.3292   56.1577 C   0  0  0  0  0  0  0  0  0  0  0  0
   68.0968   47.1630   54.8407 C   0  0  0  0  0  0  0  0  0  0  0  0
   68.8331   47.8550   53.8971 C   0  0  0  0  0  0  0  0  0  0  0  0
   69.8922   48.6681   54.2737 C   0  0  0  0  0  0  0  0  0  0  0  0
   70.6420   49.3701   53.3529 C   0  0  0  0  0  0  0  0  0  0  0  0
   70.3472   49.2590   52.1378 O   0  0  0  0  0  0  0  0  0  0  0  0
   71.6633   50.1505   53.7564 N   0  0  0  0  0  0  0  0  0  0  0  0
   72.7797   52.1421   56.3439 O   0  0  0  0  0  0  0  0  0  0  0  0
   72.1042   53.1990   55.7777 C   0  0  0  0  0  0  0  0  0  0  0  0
   70.9532   53.5429   56.7329 C   0  0  0  0  0  0  0  0  0  0  0  0
   67.1016   50.5756   57.7196 C   0  0  0  0  0  0  0  0  0  0  0  0
   67.9147   51.3428   56.7600 C   0  0  0  0  0  0  0  0  0  0  0  0
   67.5775   51.3484   55.4299 C   0  0  0  0  0  0  0  0  0  0  0  0
   68.3231   52.0610   54.4969 C   0  0  0  0  0  0  0  0  0  0  0  0
   69.4283   52.7733   54.9593 C   0  0  0  0  0  0  0  0  0  0  0  0
   69.7841   52.7831   56.2794 C   0  0  0  0  0  0  0  0  0  0  0  0
   69.0273   52.0683   57.1746 C   0  0  0  0  0  0  0  0  0  0  0  0
 16 17  1  0  0  0
 17 18  2  0  0  0
 17 22  1  0  0  0
 18 19  1  0  0  0
 19 20  2  0  0  0
 20 21  1  0  0  0
 21 15  1  0  0  0
 21 22  2  0  0  0
 15 14  1  0  0  0
 14 13  1  0  0  0
 13  1  1  0  0  0
  1  2  1  0  0  0
  2  3  2  0  0  0
  2 12  1  0  0  0
  3  4  1  0  0  0
  4  5  2  0  0  0
  4  9  1  0  0  0
  5  6  1  0  0  0
  6  7  2  0  0  0
  7  8  1  0  0  0
  8  9  2  0  0  0
  9 10  1  0  0  0
 10 11  2  0  0  0
 10 12  1  0  0  0
M  END
> <minimizedAffinity>
-5.98009

$$$$
cs_R5_output_folder/data/smiles/60.pdb


 25 26  0  0  0  0  0  0  0  0999 V2000
   71.4120   49.5489   55.3798 N   0  0  0  0  0  0  0  0  0  0  0  0
   71.5530   47.9893   59.3340 C   0  0  0  0  0  0  0  0  0  0  0  0
   72.2808   49.1036   58.9907 C   0  0  0  0  0  0  0  0  0  0  0  0
   72.2418   49.6195   57.6912 C   0  0  0  0  0  0  0  0  0  0  0  0
   71.4831   49.0450   56.7001 C   0  0  0  0  0  0  0  0  0  0  0  0
   70.7456   47.9077   57.0663 C   0  0  0  0  0  0  0  0  0  0  0  0
   70.7893   47.4092   58.3445 C   0  0  0  0  0  0  0  0  0  0  0  0
   70.0211   46.2516   58.6659 N   0  0  0  0  0  0  0  0  0  0  0  0
   70.4668   44.9279   58.4138 C   0  0  0  0  0  0  0  0  0  0  0  0
   69.7024   43.7782   58.7342 N   0  0  0  0  0  0  0  0  0  0  0  0
   71.6083   44.8063   57.8751 O   0  0  0  0  0  0  0  0  0  0  0  0
   72.7647   46.7928   61.0433 C   0  0  0  0  0  0  0  0  0  0  0  0
   71.5734   47.4549   60.6198 O   0  0  0  0  0  0  0  0  0  0  0  0
   70.0317   49.7944   54.4342 S   0  0  0  0  0  0  0  0  0  0  0  0
   70.3861   50.7209   53.2759 O   0  0  0  0  0  0  0  0  0  0  0  0
   68.9491   50.5344   55.2154 O   0  0  0  0  0  0  0  0  0  0  0  0
   69.3352   48.3818   53.7227 C   0  0  0  0  0  0  0  0  0  0  0  0
   69.6176   47.9927   52.4363 C   0  0  0  0  0  0  0  0  0  0  0  0
   70.4757   48.7184   51.6582 F   0  0  0  0  0  0  0  0  0  0  0  0
   69.0485   46.8649   51.8956 C   0  0  0  0  0  0  0  0  0  0  0  0
   68.1824   46.1223   52.6671 C   0  0  0  0  0  0  0  0  0  0  0  0
   67.6084   44.9930   52.1363 F   0  0  0  0  0  0  0  0  0  0  0  0
   67.8678   46.4701   53.9587 C   0  0  0  0  0  0  0  0  0  0  0  0
   68.4649   47.6165   54.4664 C   0  0  0  0  0  0  0  0  0  0  0  0
   68.1354   47.9417   55.7559 F   0  0  0  0  0  0  0  0  0  0  0  0
 12 13  1  0  0  0
 13  2  1  0  0  0
  2  3  2  0  0  0
  2  7  1  0  0  0
  3  4  1  0  0  0
  4  5  2  0  0  0
  5  1  1  0  0  0
  5  6  1  0  0  0
  1 14  1  0  0  0
 14 15  2  0  0  0
 14 16  2  0  0  0
 14 17  1  0  0  0
 17 18  2  0  0  0
 17 24  1  0  0  0
 18 19  1  0  0  0
 18 20  1  0  0  0
 20 21  2  0  0  0
 21 22  1  0  0  0
 21 23  1  0  0  0
 23 24  2  0  0  0
 24 25  1  0  0  0
  6  7  2  0  0  0
  7  8  1  0  0  0
  8  9  1  0  0  0
  9 10  1  0  0  0
  9 11  2  0  0  0
M  END
> <minimizedAffinity>
-7.87626

$$$$
cs_R5_output_folder/data/smiles/61.pdb


 25 26  0  0  0  0  0  0  0  0999 V2000
   69.9462   46.2148   58.4036 N   0  0  0  0  0  0  0  0  0  0  0  0
   69.8693   46.1994   57.0041 N   0  0  0  0  0  0  0  0  0  0  0  0
   68.8059   46.8005   56.2866 C   0  0  0  0  0  0  0  0  0  0  0  0
   67.9174   47.3545   56.9531 O   0  0  0  0  0  0  0  0  0  0  0  0
   68.7106   46.7965   54.8263 C   0  0  0  0  0  0  0  0  0  0  0  0
   67.9960   45.8568   54.1139 C   0  0  0  0  0  0  0  0  0  0  0  0
   67.9205   45.8819   52.7313 C   0  0  0  0  0  0  0  0  0  0  0  0
   68.5786   46.8791   52.0127 C   0  0  0  0  0  0  0  0  0  0  0  0
   69.2990   47.8287   52.7036 C   0  0  0  0  0  0  0  0  0  0  0  0
   69.3552   47.7755   54.0951 C   0  0  0  0  0  0  0  0  0  0  0  0
   69.9721   48.8463   51.9809 N   0  0  0  0  0  0  0  0  0  0  0  0
   69.9663   50.0463   52.3321 O   0  0  0  0  0  0  0  0  0  0  0  0
   70.6693   48.5319   50.8428 O   0  0  0  0  0  0  0  0  0  0  0  0
   71.0406   46.7650   59.1048 C   0  0  0  0  0  0  0  0  0  0  0  0
   72.1300   45.7226   59.7326 S   0  0  0  0  0  0  0  0  0  0  0  0
   71.1856   48.1667   59.2567 N   0  0  0  0  0  0  0  0  0  0  0  0
   70.3188   50.9435   56.1336 C   0  0  0  0  0  0  0  0  0  0  0  0
   69.5001   50.8211   57.2275 C   0  0  0  0  0  0  0  0  0  0  0  0
   69.7590   49.9199   58.2600 C   0  0  0  0  0  0  0  0  0  0  0  0
   70.8640   49.0994   58.2274 C   0  0  0  0  0  0  0  0  0  0  0  0
   71.6926   49.2277   57.1103 C   0  0  0  0  0  0  0  0  0  0  0  0
   71.4409   50.1149   56.0915 C   0  0  0  0  0  0  0  0  0  0  0  0
   68.7162   52.3771   54.8038 C   0  0  0  0  0  0  0  0  0  0  0  0
   70.0847   51.8829   55.0393 C   0  0  0  0  0  0  0  0  0  0  0  0
   71.0156   52.2808   54.2943 O   0  0  0  0  0  0  0  0  0  0  0  0
 23 24  1  0  0  0
 24 25  2  0  0  0
 24 17  1  0  0  0
 17 18  2  0  0  0
 17 22  1  0  0  0
 18 19  1  0  0  0
 19 20  2  0  0  0
 20 16  1  0  0  0
 20 21  1  0  0  0
 16 14  1  0  0  0
 14 15  2  0  0  0
 14  1  1  0  0  0
  1  2  1  0  0  0
  2  3  1  0  0  0
  3  4  2  0  0  0
  3  5  1  0  0  0
  5  6  2  0  0  0
  5 10  1  0  0  0
  6  7  1  0  0  0
  7  8  2  0  0  0
  8  9  1  0  0  0
  9 11  1  0  0  0
  9 10  2  0  0  0
 11 12  2  0  0  0
 11 13  1  0  0  0
 21 22  2  0  0  0
M  CHG 1  11   1
M  CHG 1  13  -1
M  END
> <minimizedAffinity>
-7.77548

$$$$
cs_R5_output_folder/data/smiles/62.pdb


 27 30  0  0  0  0  0  0  0  0999 V2000
   69.9759   49.1593   56.8149 C   0  0  0  0  0  0  0  0  0  0  0  0
   69.4186   50.5493   56.8218 C   0  0  0  0  0  0  0  0  0  0  0  0
   70.4632   51.6179   56.6173 C   0  0  0  0  0  0  0  0  0  0  0  0
   71.4257   51.5373   57.6827 N   0  0  0  0  0  0  0  0  0  0  0  0
   71.9915   50.2231   57.8321 C   0  0  0  0  0  0  0  0  0  0  0  0
   71.4905   49.2618   56.7759 C   0  0  0  0  0  0  0  0  0  0  0  0
   68.3058   46.5711   56.7930 O   0  0  0  0  0  0  0  0  0  0  0  0
   68.7065   47.1910   55.7782 C   0  0  0  0  0  0  0  0  0  0  0  0
   68.4357   46.7691   54.3918 C   0  0  0  0  0  0  0  0  0  0  0  0
   67.7374   45.6849   53.8895 C   0  0  0  0  0  0  0  0  0  0  0  0
   67.5964   45.4646   52.5297 C   0  0  0  0  0  0  0  0  0  0  0  0
   68.1698   46.3513   51.6390 C   0  0  0  0  0  0  0  0  0  0  0  0
   68.8665   47.4316   52.1574 C   0  0  0  0  0  0  0  0  0  0  0  0
   69.0042   47.6476   53.5105 C   0  0  0  0  0  0  0  0  0  0  0  0
   69.6581   48.6625   54.3315 C   0  0  0  0  0  0  0  0  0  0  0  0
   70.2861   49.6343   53.7882 O   0  0  0  0  0  0  0  0  0  0  0  0
   69.4778   48.3862   55.6960 N   0  0  0  0  0  0  0  0  0  0  0  0
   72.5768   52.7893   57.6836 S   0  0  0  0  0  0  0  0  0  0  0  0
   72.1526   53.9975   58.4262 O   0  0  0  0  0  0  0  0  0  0  0  0
   73.8293   52.2625   58.3468 O   0  0  0  0  0  0  0  0  0  0  0  0
   73.0477   53.2687   56.0593 C   0  0  0  0  0  0  0  0  0  0  0  0
   72.7910   54.5433   55.5793 C   0  0  0  0  0  0  0  0  0  0  0  0
   73.1664   54.9074   54.3010 C   0  0  0  0  0  0  0  0  0  0  0  0
   73.8069   54.0284   53.4516 C   0  0  0  0  0  0  0  0  0  0  0  0
   74.1850   54.3672   52.1895 F   0  0  0  0  0  0  0  0  0  0  0  0
   74.0621   52.7598   53.9264 C   0  0  0  0  0  0  0  0  0  0  0  0
   73.6874   52.3975   55.2020 C   0  0  0  0  0  0  0  0  0  0  0  0
  7  8  2  0  0  0
  8  9  1  0  0  0
  8 17  1  0  0  0
  9 10  2  0  0  0
  9 14  1  0  0  0
 10 11  1  0  0  0
 11 12  2  0  0  0
 12 13  1  0  0  0
 13 14  2  0  0  0
 14 15  1  0  0  0
 15 16  2  0  0  0
 15 17  1  0  0  0
 17  1  1  0  0  0
  1  2  1  0  0  0
  1  6  1  0  0  0
  2  3  1  0  0  0
  3  4  1  0  0  0
  4 18  1  0  0  0
  4  5  1  0  0  0
 18 19  2  0  0  0
 18 20  2  0  0  0
 18 21  1  0  0  0
 21 22  2  0  0  0
 21 27  1  0  0  0
 22 23  1  0  0  0
 23 24  2  0  0  0
 24 25  1  0  0  0
 24 26  1  0  0  0
 26 27  2  0  0  0
  5  6  1  0  0  0
M  END
> <minimizedAffinity>
-7.19061

$$$$
cs_R5_output_folder/data/smiles/63.pdb


 20 22  0  0  0  0  0  0  0  0999 V2000
   71.7139   53.1508   55.7204 C   0  0  0  0  0  0  0  0  0  0  0  0
   70.6694   53.7680   56.3637 C   0  0  0  0  0  0  0  0  0  0  0  0
   69.3587   53.3262   56.1839 C   0  0  0  0  0  0  0  0  0  0  0  0
   69.1280   52.2524   55.3441 C   0  0  0  0  0  0  0  0  0  0  0  0
   70.1557   51.6140   54.6855 C   0  0  0  0  0  0  0  0  0  0  0  0
   71.4268   52.0850   54.8947 C   0  0  0  0  0  0  0  0  0  0  0  0
   69.8651   50.4836   53.8085 C   0  0  0  0  0  0  0  0  0  0  0  0
   70.0467   50.5905   52.4806 N   0  0  0  0  0  0  0  0  0  0  0  0
   69.7893   49.5699   51.6387 C   0  0  0  0  0  0  0  0  0  0  0  0
   69.3188   48.3521   52.1227 C   0  0  0  0  0  0  0  0  0  0  0  0
   69.1403   48.2644   53.4782 C   0  0  0  0  0  0  0  0  0  0  0  0
   69.4114   49.3113   54.2813 N   0  0  0  0  0  0  0  0  0  0  0  0
   68.6397   46.9836   54.0449 C   0  0  0  0  0  0  0  0  0  0  0  0
   68.0485   45.9540   53.5388 C   0  0  0  0  0  0  0  0  0  0  0  0
   67.9695   45.2661   54.8055 C   0  0  0  0  0  0  0  0  0  0  0  0
   68.6455   46.4469   55.3801 C   0  0  0  0  0  0  0  0  0  0  0  0
   74.4145   52.4456   55.4431 N   0  0  0  0  0  0  0  0  0  0  0  0
   73.3488   53.7262   55.9654 S   0  0  0  0  0  0  0  0  0  0  0  0
   73.5889   54.0383   57.4222 O   0  0  0  0  0  0  0  0  0  0  0  0
   73.5504   54.9462   55.1053 O   0  0  0  0  0  0  0  0  0  0  0  0
 17 18  1  0  0  0
 18 19  2  0  0  0
 18 20  2  0  0  0
 18  1  1  0  0  0
  1  2  2  0  0  0
  1  6  1  0  0  0
  2  3  1  0  0  0
  3  4  2  0  0  0
  4  5  1  0  0  0
  5  7  1  0  0  0
  5  6  2  0  0  0
  7  8  2  0  0  0
  7 12  1  0  0  0
  8  9  1  0  0  0
  9 10  2  0  0  0
 10 11  1  0  0  0
 11 13  1  0  0  0
 11 12  2  0  0  0
 13 14  2  0  0  0
 13 16  1  0  0  0
 14 15  1  0  0  0
 15 16  1  0  0  0
M  END
> <minimizedAffinity>
-6.99884

$$$$
cs_R5_output_folder/data/smiles/64.pdb


 26 28  0  0  0  0  0  0  0  0999 V2000
   74.2572   50.5389   56.1322 C   0  0  0  0  0  0  0  0  0  0  0  0
   73.2372   49.8772   56.7719 C   0  0  0  0  0  0  0  0  0  0  0  0
   71.9440   49.9713   56.3127 C   0  0  0  0  0  0  0  0  0  0  0  0
   71.6004   50.7376   55.1795 C   0  0  0  0  0  0  0  0  0  0  0  0
   72.6441   51.3718   54.5824 C   0  0  0  0  0  0  0  0  0  0  0  0
   73.9292   51.2625   55.0611 N   0  0  0  0  0  0  0  0  0  0  0  0
   76.6081   49.8598   55.7391 C   0  0  0  0  0  0  0  0  0  0  0  0
   76.2375   49.3410   54.6617 O   0  0  0  0  0  0  0  0  0  0  0  0
   75.6260   50.4951   56.5416 N   0  0  0  0  0  0  0  0  0  0  0  0
   78.9292   49.1119   55.4220 C   0  0  0  0  0  0  0  0  0  0  0  0
   78.0118   49.7827   56.0965 C   0  0  0  0  0  0  0  0  0  0  0  0
   82.2248   47.9537   56.9011 C   0  0  0  0  0  0  0  0  0  0  0  0
   80.8022   48.0260   56.4716 C   0  0  0  0  0  0  0  0  0  0  0  0
   80.3213   49.0674   55.8267 C   0  0  0  0  0  0  0  0  0  0  0  0
   70.1741   50.7842   54.7669 C   0  0  0  0  0  0  0  0  0  0  0  0
   69.8734   49.7786   53.7680 C   0  0  0  0  0  0  0  0  0  0  0  0
   70.2894   49.9656   52.4986 N   0  0  0  0  0  0  0  0  0  0  0  0
   70.1290   49.0273   51.5656 N   0  0  0  0  0  0  0  0  0  0  0  0
   69.5497   47.8465   51.8240 C   0  0  0  0  0  0  0  0  0  0  0  0
   69.3964   46.9548   50.9487 O   0  0  0  0  0  0  0  0  0  0  0  0
   69.0968   47.5939   53.1260 C   0  0  0  0  0  0  0  0  0  0  0  0
   69.2712   48.5885   54.0761 C   0  0  0  0  0  0  0  0  0  0  0  0
   68.6507   48.4410   55.3773 C   0  0  0  0  0  0  0  0  0  0  0  0
   68.4215   47.0484   55.8274 C   0  0  0  0  0  0  0  0  0  0  0  0
   68.2491   46.0498   54.7524 C   0  0  0  0  0  0  0  0  0  0  0  0
   68.5650   46.3007   53.4957 C   0  0  0  0  0  0  0  0  0  0  0  0
 12 13  1  0  0  0
 13 14  2  0  0  0
 14 10  1  0  0  0
 10 11  2  0  0  0
 11  7  1  0  0  0
  7  8  2  0  0  0
  7  9  1  0  0  0
  9  1  1  0  0  0
  1  2  2  0  0  0
  1  6  1  0  0  0
  2  3  1  0  0  0
  3  4  2  0  0  0
  4 15  1  0  0  0
  4  5  1  0  0  0
 15 16  1  0  0  0
 16 17  2  0  0  0
 16 22  1  0  0  0
 17 18  1  0  0  0
 18 19  1  0  0  0
 19 20  2  0  0  0
 19 21  1  0  0  0
 21 22  2  0  0  0
 21 26  1  0  0  0
 22 23  1  0  0  0
 23 24  1  0  0  0
 24 25  1  0  0  0
 25 26  2  0  0  0
  5  6  2  0  0  0
M  END
> <minimizedAffinity>
-8.86358

$$$$
cs_R5_output_folder/data/smiles/65.pdb


 22 23  0  0  0  0  0  0  0  0999 V2000
   71.4408   50.0412   54.4652 N   0  0  0  0  0  0  0  0  0  0  0  0
   71.3469   51.4249   54.0700 C   0  0  0  0  0  0  0  0  0  0  0  0
   70.6159   51.5902   53.0632 O   0  0  0  0  0  0  0  0  0  0  0  0
   72.0348   52.4677   54.7812 C   0  0  0  0  0  0  0  0  0  0  0  0
   73.3605   52.7716   54.5897 C   0  0  0  0  0  0  0  0  0  0  0  0
   74.0030   53.7604   55.3120 C   0  0  0  0  0  0  0  0  0  0  0  0
   73.3426   54.4966   56.2627 C   0  0  0  0  0  0  0  0  0  0  0  0
   72.0021   54.1888   56.4512 C   0  0  0  0  0  0  0  0  0  0  0  0
   71.3435   53.2065   55.7419 C   0  0  0  0  0  0  0  0  0  0  0  0
   69.9091   52.9009   55.9293 C   0  0  0  0  0  0  0  0  0  0  0  0
   69.6756   51.7016   56.5613 F   0  0  0  0  0  0  0  0  0  0  0  0
   69.1487   53.1033   54.8008 F   0  0  0  0  0  0  0  0  0  0  0  0
   69.4244   53.8599   56.8448 F   0  0  0  0  0  0  0  0  0  0  0  0
   69.0310   49.0074   55.2177 O   0  0  0  0  0  0  0  0  0  0  0  0
   69.5147   48.4899   54.1985 C   0  0  0  0  0  0  0  0  0  0  0  0
   70.7758   49.0078   53.7914 N   0  0  0  0  0  0  0  0  0  0  0  0
   68.8541   47.4278   53.4625 C   0  0  0  0  0  0  0  0  0  0  0  0
   68.2076   46.3724   54.1157 C   0  0  0  0  0  0  0  0  0  0  0  0
   67.5399   45.3650   53.4752 C   0  0  0  0  0  0  0  0  0  0  0  0
   67.4700   45.3407   52.0760 C   0  0  0  0  0  0  0  0  0  0  0  0
   68.1055   46.3755   51.4235 C   0  0  0  0  0  0  0  0  0  0  0  0
   68.7726   47.3814   52.0858 C   0  0  0  0  0  0  0  0  0  0  0  0
 14 15  2  0  0  0
 15 16  1  0  0  0
 15 17  1  0  0  0
 16  1  1  0  0  0
  1  2  1  0  0  0
  2  3  2  0  0  0
  2  4  1  0  0  0
  4  5  2  0  0  0
  4  9  1  0  0  0
  5  6  1  0  0  0
  6  7  2  0  0  0
  7  8  1  0  0  0
  8  9  2  0  0  0
  9 10  1  0  0  0
 10 11  1  0  0  0
 10 12  1  0  0  0
 10 13  1  0  0  0
 17 18  2  0  0  0
 17 22  1  0  0  0
 18 19  1  0  0  0
 19 20  2  0  0  0
 20 21  1  0  0  0
 21 22  2  0  0  0
M  END
> <minimizedAffinity>
-6.75959

$$$$
cs_R5_output_folder/data/smiles/66.pdb


 24 26  0  0  0  0  0  0  0  0999 V2000
   69.7445   46.5118   57.5728 N   0  0  0  0  0  0  0  0  0  0  0  0
   69.9407   47.7873   56.9974 C   0  0  0  0  0  0  0  0  0  0  0  0
   71.0683   48.2892   57.2203 O   0  0  0  0  0  0  0  0  0  0  0  0
   72.2423   43.9799   58.5762 C   0  0  0  0  0  0  0  0  0  0  0  0
   72.7586   44.5141   59.7537 C   0  0  0  0  0  0  0  0  0  0  0  0
   72.2716   45.7101   60.2021 C   0  0  0  0  0  0  0  0  0  0  0  0
   71.2963   46.3467   59.4862 C   0  0  0  0  0  0  0  0  0  0  0  0
   70.7464   45.8809   58.3277 C   0  0  0  0  0  0  0  0  0  0  0  0
   71.2594   44.6595   57.8902 C   0  0  0  0  0  0  0  0  0  0  0  0
   74.2629   42.5211   58.1490 C   0  0  0  0  0  0  0  0  0  0  0  0
   72.7772   42.7026   58.1175 C   0  0  0  0  0  0  0  0  0  0  0  0
   72.0847   41.7663   57.7062 O   0  0  0  0  0  0  0  0  0  0  0  0
   68.8931   48.4807   56.1906 C   0  0  0  0  0  0  0  0  0  0  0  0
   69.2851   48.6046   54.7737 C   0  0  0  0  0  0  0  0  0  0  0  0
   70.0865   49.5849   54.3208 N   0  0  0  0  0  0  0  0  0  0  0  0
   70.4594   49.7281   53.0654 N   0  0  0  0  0  0  0  0  0  0  0  0
   70.0080   48.8311   52.1710 C   0  0  0  0  0  0  0  0  0  0  0  0
   70.3527   48.9502   50.9718 O   0  0  0  0  0  0  0  0  0  0  0  0
   69.1806   47.7927   52.5539 C   0  0  0  0  0  0  0  0  0  0  0  0
   68.7054   46.8600   51.6552 C   0  0  0  0  0  0  0  0  0  0  0  0
   67.8752   45.8212   52.0442 C   0  0  0  0  0  0  0  0  0  0  0  0
   67.4953   45.6873   53.3651 C   0  0  0  0  0  0  0  0  0  0  0  0
   67.9742   46.6267   54.2714 C   0  0  0  0  0  0  0  0  0  0  0  0
   68.8007   47.6588   53.8747 C   0  0  0  0  0  0  0  0  0  0  0  0
 10 11  1  0  0  0
 11 12  2  0  0  0
 11  4  1  0  0  0
  4  5  2  0  0  0
  4  9  1  0  0  0
  5  6  1  0  0  0
  6  7  2  0  0  0
  7  8  1  0  0  0
  8  1  1  0  0  0
  8  9  2  0  0  0
  1  2  1  0  0  0
  2  3  2  0  0  0
  2 13  1  0  0  0
 13 14  1  0  0  0
 14 15  2  0  0  0
 14 24  1  0  0  0
 15 16  1  0  0  0
 16 17  1  0  0  0
 17 18  2  0  0  0
 17 19  1  0  0  0
 19 20  1  0  0  0
 19 24  2  0  0  0
 20 21  2  0  0  0
 21 22  1  0  0  0
 22 23  2  0  0  0
 23 24  1  0  0  0
M  END
> <minimizedAffinity>
-8.22995

$$$$
cs_R5_output_folder/data/smiles/67.pdb


 27 28  0  0  0  0  0  0  0  0999 V2000
   69.0480   47.3261   56.5592 S   0  0  0  0  0  0  0  0  0  0  0  0
   69.6435   46.0774   57.1522 O   0  0  0  0  0  0  0  0  0  0  0  0
   67.6518   47.5369   57.1327 O   0  0  0  0  0  0  0  0  0  0  0  0
   68.8438   47.1625   54.8268 C   0  0  0  0  0  0  0  0  0  0  0  0
   69.2861   48.1462   53.9625 C   0  0  0  0  0  0  0  0  0  0  0  0
   69.9059   49.2701   54.3917 F   0  0  0  0  0  0  0  0  0  0  0  0
   69.0941   47.9756   52.5902 C   0  0  0  0  0  0  0  0  0  0  0  0
   69.5016   48.8973   51.6854 F   0  0  0  0  0  0  0  0  0  0  0  0
   68.4683   46.8315   52.1318 C   0  0  0  0  0  0  0  0  0  0  0  0
   68.2626   46.6302   50.8014 F   0  0  0  0  0  0  0  0  0  0  0  0
   68.0304   45.8542   53.0093 C   0  0  0  0  0  0  0  0  0  0  0  0
   67.4119   44.7205   52.5818 F   0  0  0  0  0  0  0  0  0  0  0  0
   68.2212   46.0241   54.3614 C   0  0  0  0  0  0  0  0  0  0  0  0
   67.7788   45.0427   55.2102 F   0  0  0  0  0  0  0  0  0  0  0  0
   69.9815   48.7006   56.9866 N   0  0  0  0  0  0  0  0  0  0  0  0
   73.3755   48.5726   59.3607 C   0  0  0  0  0  0  0  0  0  0  0  0
   72.1924   48.1085   59.8615 C   0  0  0  0  0  0  0  0  0  0  0  0
   71.0752   48.1565   59.0397 C   0  0  0  0  0  0  0  0  0  0  0  0
   71.1761   48.6583   57.7626 C   0  0  0  0  0  0  0  0  0  0  0  0
   72.3966   49.1383   57.2411 C   0  0  0  0  0  0  0  0  0  0  0  0
   73.4781   49.0794   58.0742 C   0  0  0  0  0  0  0  0  0  0  0  0
   72.4153   49.6179   55.9223 N   0  0  0  0  0  0  0  0  0  0  0  0
   72.5773   50.9436   55.4820 C   0  0  0  0  0  0  0  0  0  0  0  0
   72.5770   51.2896   54.0831 N   0  0  0  0  0  0  0  0  0  0  0  0
   72.7255   51.8478   56.3093 O   0  0  0  0  0  0  0  0  0  0  0  0
   74.6735   49.3270   61.3074 C   0  0  0  0  0  0  0  0  0  0  0  0
   74.5415   48.5560   60.1335 O   0  0  0  0  0  0  0  0  0  0  0  0
 26 27  1  0  0  0
 27 16  1  0  0  0
 16 17  2  0  0  0
 16 21  1  0  0  0
 17 18  1  0  0  0
 18 19  2  0  0  0
 19 15  1  0  0  0
 19 20  1  0  0  0
 15  1  1  0  0  0
  1  2  2  0  0  0
  1  3  2  0  0  0
  1  4  1  0  0  0
  4  5  2  0  0  0
  4 13  1  0  0  0
  5  6  1  0  0  0
  5  7  1  0  0  0
  7  8  1  0  0  0
  7  9  2  0  0  0
  9 10  1  0  0  0
  9 11  1  0  0  0
 11 12  1  0  0  0
 11 13  2  0  0  0
 13 14  1  0  0  0
 20 22  1  0  0  0
 20 21  2  0  0  0
 22 23  1  0  0  0
 23 24  1  0  0  0
 23 25  2  0  0  0
M  END
> <minimizedAffinity>
-7.93138

$$$$
cs_R5_output_folder/data/smiles/68.pdb


 26 29  0  0  0  0  0  0  0  0999 V2000
   75.3744   34.6293   54.2732 N   0  0  0  0  0  0  0  0  0  0  0  0
   76.2864   33.6483   54.6882 C   0  0  0  0  0  0  0  0  0  0  0  0
   77.6688   34.2145   54.8392 C   0  0  0  0  0  0  0  0  0  0  0  0
   78.1601   35.0021   53.6631 C   0  0  0  0  0  0  0  0  0  0  0  0
   77.0201   35.1237   52.6739 C   0  0  0  0  0  0  0  0  0  0  0  0
   75.8539   35.6985   53.5003 C   0  0  0  0  0  0  0  0  0  0  0  0
   74.0045   34.3041   54.2258 C   0  0  0  0  0  0  0  0  0  0  0  0
   72.2674   35.0064   58.0711 C   0  0  0  0  0  0  0  0  0  0  0  0
   72.6215   33.7321   57.6881 C   0  0  0  0  0  0  0  0  0  0  0  0
   73.1902   33.5163   56.4254 C   0  0  0  0  0  0  0  0  0  0  0  0
   73.4031   34.5587   55.5549 C   0  0  0  0  0  0  0  0  0  0  0  0
   73.0484   35.8308   55.9387 C   0  0  0  0  0  0  0  0  0  0  0  0
   72.4782   36.0643   57.1997 C   0  0  0  0  0  0  0  0  0  0  0  0
   72.8418   35.7228   60.8210 C   0  0  0  0  0  0  0  0  0  0  0  0
   71.5540   35.3584   59.6266 S   0  0  0  0  0  0  0  0  0  0  0  0
   70.8481   34.1226   60.1275 O   0  0  0  0  0  0  0  0  0  0  0  0
   70.5717   36.4868   59.5551 O   0  0  0  0  0  0  0  0  0  0  0  0
   77.3255   35.9389   51.5555 N   0  0  0  0  0  0  0  0  0  0  0  0
   77.1710   35.4268   50.2493 C   0  0  0  0  0  0  0  0  0  0  0  0
   77.9417   35.8500   49.1954 C   0  0  0  0  0  0  0  0  0  0  0  0
   77.7948   35.3328   47.9163 C   0  0  0  0  0  0  0  0  0  0  0  0
   76.8527   34.3642   47.6683 C   0  0  0  0  0  0  0  0  0  0  0  0
   76.0613   33.9169   48.7032 C   0  0  0  0  0  0  0  0  0  0  0  0
   76.2215   34.4386   49.9581 C   0  0  0  0  0  0  0  0  0  0  0  0
   75.4164   33.0203   47.7390 C   0  0  0  0  0  0  0  0  0  0  0  0
   76.1700   33.4570   46.7886 N   0  0  0  0  0  0  0  0  0  0  0  0
 14 15  1  0  0  0
 15 16  2  0  0  0
 15 17  2  0  0  0
 15  8  1  0  0  0
  8  9  2  0  0  0
  8 13  1  0  0  0
  9 10  1  0  0  0
 10 11  2  0  0  0
 11  7  1  0  0  0
 11 12  1  0  0  0
  1  7  1  0  0  0
  1  2  1  0  0  0
  1  6  1  0  0  0
  2  3  1  0  0  0
  3  4  1  0  0  0
  4  5  1  0  0  0
  5 18  1  0  0  0
  5  6  1  0  0  0
 18 19  1  0  0  0
 19 20  2  0  0  0
 19 24  1  0  0  0
 20 21  1  0  0  0
 21 22  2  0  0  0
 22 23  1  0  0  0
 22 26  1  0  0  0
 23 24  2  0  0  0
 23 25  1  0  0  0
 25 26  2  0  0  0
 12 13  2  0  0  0
M  CHG 1   1   1
M  END
> <minimizedAffinity>
-7.21530

$$$$
cs_R5_output_folder/data/smiles/69.pdb


 25 27  0  0  0  0  0  0  0  0999 V2000
   72.1212   45.3284   60.3978 C   0  0  0  0  0  0  0  0  0  0  0  0
   71.5911   44.7975   59.2230 C   0  0  0  0  0  0  0  0  0  0  0  0
   71.1319   45.5802   58.1839 C   0  0  0  0  0  0  0  0  0  0  0  0
   71.1792   46.9557   58.2649 C   0  0  0  0  0  0  0  0  0  0  0  0
   71.7000   47.4883   59.4223 C   0  0  0  0  0  0  0  0  0  0  0  0
   72.1681   46.6934   60.4823 C   0  0  0  0  0  0  0  0  0  0  0  0
   72.6439   47.3353   61.5940 F   0  0  0  0  0  0  0  0  0  0  0  0
   73.2467   42.8972   64.5232 C   0  0  0  0  0  0  0  0  0  0  0  0
   73.5435   42.4627   63.1977 N   0  0  0  0  0  0  0  0  0  0  0  0
   74.4566   43.2880   62.4868 C   0  0  0  0  0  0  0  0  0  0  0  0
   73.9286   44.5892   61.9818 C   0  0  0  0  0  0  0  0  0  0  0  0
   72.5524   44.4768   61.4537 N   0  0  0  0  0  0  0  0  0  0  0  0
   71.7609   43.4787   62.0614 C   0  0  0  0  0  0  0  0  0  0  0  0
   70.5421   43.7176   62.3164 O   0  0  0  0  0  0  0  0  0  0  0  0
   72.3770   42.1811   62.3870 C   0  0  0  0  0  0  0  0  0  0  0  0
   70.7135   47.7924   57.2102 N   0  0  0  0  0  0  0  0  0  0  0  0
   69.3621   47.8840   56.7967 C   0  0  0  0  0  0  0  0  0  0  0  0
   68.5140   47.1820   57.3987 O   0  0  0  0  0  0  0  0  0  0  0  0
   68.9092   48.7691   55.6881 C   0  0  0  0  0  0  0  0  0  0  0  0
   68.9468   48.0611   54.3844 C   0  0  0  0  0  0  0  0  0  0  0  0
   69.7617   48.5307   53.3779 C   0  0  0  0  0  0  0  0  0  0  0  0
   69.8245   47.8937   52.1405 C   0  0  0  0  0  0  0  0  0  0  0  0
   69.0555   46.7685   51.9137 C   0  0  0  0  0  0  0  0  0  0  0  0
   68.2374   46.2877   52.9052 C   0  0  0  0  0  0  0  0  0  0  0  0
   68.1904   46.9388   54.1331 C   0  0  0  0  0  0  0  0  0  0  0  0
  9  8  1  0  0  0
  9 10  1  0  0  0
  9 15  1  0  0  0
 10 11  1  0  0  0
 11 12  1  0  0  0
 12  1  1  0  0  0
 12 13  1  0  0  0
  1  2  2  0  0  0
  1  6  1  0  0  0
  2  3  1  0  0  0
  3  4  2  0  0  0
  4 16  1  0  0  0
  4  5  1  0  0  0
 16 17  1  0  0  0
 17 18  2  0  0  0
 17 19  1  0  0  0
 19 20  1  0  0  0
 20 21  2  0  0  0
 20 25  1  0  0  0
 21 22  1  0  0  0
 22 23  2  0  0  0
 23 24  1  0  0  0
 24 25  2  0  0  0
  5  6  2  0  0  0
  6  7  1  0  0  0
 13 14  2  0  0  0
 13 15  1  0  0  0
M  CHG 1   9   1
M  END
> <minimizedAffinity>
-6.91354

$$$$
cs_R5_output_folder/data/smiles/70.pdb


 26 28  0  0  0  0  0  0  0  0999 V2000
   69.1502   47.2169   57.2433 C   0  0  0  0  0  0  0  0  0  0  0  0
   69.3417   47.7370   55.8707 C   0  0  0  0  0  0  0  0  0  0  0  0
   68.6268   47.1754   54.8407 C   0  0  0  0  0  0  0  0  0  0  0  0
   67.7214   46.1353   55.0048 O   0  0  0  0  0  0  0  0  0  0  0  0
   68.8385   47.6897   53.5896 C   0  0  0  0  0  0  0  0  0  0  0  0
   69.7423   48.7463   53.3451 C   0  0  0  0  0  0  0  0  0  0  0  0
   70.4453   49.2907   54.3789 C   0  0  0  0  0  0  0  0  0  0  0  0
   71.3501   50.3130   54.2079 C   0  0  0  0  0  0  0  0  0  0  0  0
   72.0708   50.8559   55.2803 C   0  0  0  0  0  0  0  0  0  0  0  0
   71.8692   50.3509   56.5438 C   0  0  0  0  0  0  0  0  0  0  0  0
   70.9593   49.3269   56.6950 C   0  0  0  0  0  0  0  0  0  0  0  0
   70.2346   48.7709   55.6635 C   0  0  0  0  0  0  0  0  0  0  0  0
   69.8852   49.1920   52.0230 N   0  0  0  0  0  0  0  0  0  0  0  0
   70.1756   48.3124   51.1503 O   0  0  0  0  0  0  0  0  0  0  0  0
   69.7425   50.4631   51.6073 O   0  0  0  0  0  0  0  0  0  0  0  0
   73.0337   51.9589   55.0469 C   0  0  0  0  0  0  0  0  0  0  0  0
   72.5773   53.4186   55.9497 S   0  0  0  0  0  0  0  0  0  0  0  0
   73.5893   54.4992   55.6814 O   0  0  0  0  0  0  0  0  0  0  0  0
   72.6381   53.1168   57.4193 O   0  0  0  0  0  0  0  0  0  0  0  0
   70.9864   53.9346   55.5724 N   0  0  0  0  0  0  0  0  0  0  0  0
   69.8519   53.0920   55.7628 C   0  0  0  0  0  0  0  0  0  0  0  0
   69.0924   52.6349   54.7015 C   0  0  0  0  0  0  0  0  0  0  0  0
   68.0107   51.8175   54.9559 C   0  0  0  0  0  0  0  0  0  0  0  0
   67.6431   51.4282   56.2262 C   0  0  0  0  0  0  0  0  0  0  0  0
   68.3998   51.8839   57.2859 C   0  0  0  0  0  0  0  0  0  0  0  0
   69.4816   52.7001   57.0402 C   0  0  0  0  0  0  0  0  0  0  0  0
  1  2  1  0  0  0
  2  3  2  0  0  0
  2 12  1  0  0  0
  3  4  1  0  0  0
  3  5  1  0  0  0
  5  6  2  0  0  0
  6 13  1  0  0  0
  6  7  1  0  0  0
 13 14  2  0  0  0
 13 15  1  0  0  0
  7  8  1  0  0  0
  7 12  2  0  0  0
  8  9  2  0  0  0
  9 16  1  0  0  0
  9 10  1  0  0  0
 16 17  1  0  0  0
 17 18  2  0  0  0
 17 19  2  0  0  0
 17 20  1  0  0  0
 20 21  1  0  0  0
 21 22  2  0  0  0
 21 26  1  0  0  0
 22 23  1  0  0  0
 23 24  2  0  0  0
 24 25  1  0  0  0
 25 26  2  0  0  0
 10 11  2  0  0  0
 11 12  1  0  0  0
M  CHG 1  13   1
M  CHG 1  15  -1
M  END
> <minimizedAffinity>
-7.04068

$$$$
cs_R5_output_folder/data/smiles/71.pdb


 18 19  0  0  0  0  0  0  0  0999 V2000
   67.5180   47.1380   56.3285 O   0  0  0  0  0  0  0  0  0  0  0  0
   68.4994   46.7096   55.6651 C   0  0  0  0  0  0  0  0  0  0  0  0
   69.6516   46.2809   56.3629 N   0  0  0  0  0  0  0  0  0  0  0  0
   68.4316   46.6658   54.2266 C   0  0  0  0  0  0  0  0  0  0  0  0
   69.1700   47.5916   53.4825 C   0  0  0  0  0  0  0  0  0  0  0  0
   69.1287   47.5784   52.1105 C   0  0  0  0  0  0  0  0  0  0  0  0
   68.3436   46.6342   51.4862 C   0  0  0  0  0  0  0  0  0  0  0  0
   67.6344   45.7469   52.1945 N   0  0  0  0  0  0  0  0  0  0  0  0
   67.6680   45.7496   53.5539 C   0  0  0  0  0  0  0  0  0  0  0  0
   69.6445   46.3517   57.7292 N   0  0  0  0  0  0  0  0  0  0  0  0
   70.4154   45.7987   58.5266 C   0  0  0  0  0  0  0  0  0  0  0  0
   71.5509   44.9182   58.3060 C   0  0  0  0  0  0  0  0  0  0  0  0
   72.8526   45.4235   58.4144 C   0  0  0  0  0  0  0  0  0  0  0  0
   73.9639   44.6333   58.2159 C   0  0  0  0  0  0  0  0  0  0  0  0
   73.8652   43.2974   57.8985 C   0  0  0  0  0  0  0  0  0  0  0  0
   75.2889   42.2968   57.6479 Cl  0  0  0  0  0  0  0  0  0  0  0  0
   72.5954   42.7803   57.7878 C   0  0  0  0  0  0  0  0  0  0  0  0
   71.4610   43.5842   57.9899 C   0  0  0  0  0  0  0  0  0  0  0  0
  1  2  2  0  0  0
  2  3  1  0  0  0
  2  4  1  0  0  0
  3 10  1  0  0  0
 10 11  2  0  0  0
 11 12  1  0  0  0
 12 13  2  0  0  0
 12 18  1  0  0  0
 13 14  1  0  0  0
 14 15  2  0  0  0
 15 16  1  0  0  0
 15 17  1  0  0  0
 17 18  2  0  0  0
  4  5  2  0  0  0
  4  9  1  0  0  0
  5  6  1  0  0  0
  6  7  2  0  0  0
  7  8  1  0  0  0
  8  9  2  0  0  0
M  END
> <minimizedAffinity>
-6.76902

$$$$
cs_R5_output_folder/data/smiles/72.pdb


 20 21  0  0  0  0  0  0  0  0999 V2000
   71.6321   49.6467   55.5823 O   0  0  0  0  0  0  0  0  0  0  0  0
   71.4560   50.4707   54.6842 C   0  0  0  0  0  0  0  0  0  0  0  0
   70.6488   50.1743   53.5867 N   0  0  0  0  0  0  0  0  0  0  0  0
   69.9345   48.9979   53.2786 C   0  0  0  0  0  0  0  0  0  0  0  0
   69.1848   48.4521   54.3375 C   0  0  0  0  0  0  0  0  0  0  0  0
   68.4191   47.3192   54.2086 C   0  0  0  0  0  0  0  0  0  0  0  0
   68.3886   46.6857   52.9719 C   0  0  0  0  0  0  0  0  0  0  0  0
   69.1018   47.1808   51.9120 C   0  0  0  0  0  0  0  0  0  0  0  0
   69.8715   48.3442   52.0882 C   0  0  0  0  0  0  0  0  0  0  0  0
   70.5591   48.7957   50.9984 O   0  0  0  0  0  0  0  0  0  0  0  0
   67.6170   45.5108   52.7757 N   0  0  0  0  0  0  0  0  0  0  0  0
   67.5441   44.5976   53.5991 O   0  0  0  0  0  0  0  0  0  0  0  0
   66.9146   45.3907   51.6031 O   0  0  0  0  0  0  0  0  0  0  0  0
   72.1478   51.7662   54.8522 C   0  0  0  0  0  0  0  0  0  0  0  0
   73.4447   51.8625   54.3938 C   0  0  0  0  0  0  0  0  0  0  0  0
   74.1741   53.0405   54.5068 C   0  0  0  0  0  0  0  0  0  0  0  0
   73.5401   54.1175   55.1008 C   0  0  0  0  0  0  0  0  0  0  0  0
   72.2409   54.0325   55.5628 C   0  0  0  0  0  0  0  0  0  0  0  0
   71.5536   52.8454   55.4317 C   0  0  0  0  0  0  0  0  0  0  0  0
   69.5758   52.6259   56.1062 I   0  0  0  0  0  0  0  0  0  0  0  0
  1  2  2  0  0  0
  2  3  1  0  0  0
  2 14  1  0  0  0
  3  4  1  0  0  0
  4  5  2  0  0  0
  4  9  1  0  0  0
  5  6  1  0  0  0
  6  7  2  0  0  0
  7 11  1  0  0  0
  7  8  1  0  0  0
 11 12  2  0  0  0
 11 13  1  0  0  0
  8  9  2  0  0  0
  9 10  1  0  0  0
 14 15  2  0  0  0
 14 19  1  0  0  0
 15 16  1  0  0  0
 16 17  2  0  0  0
 17 18  1  0  0  0
 18 19  2  0  0  0
 19 20  1  0  0  0
M  CHG 1  11   1
M  CHG 1  13  -1
M  END
> <minimizedAffinity>
-7.80909

$$$$
cs_R5_output_folder/data/smiles/73.pdb


 24 26  0  0  0  0  0  0  0  0999 V2000
   69.4054   44.2792   57.1877 C   0  0  0  0  0  0  0  0  0  0  0  0
   70.0094   45.1051   57.9140 O   0  0  0  0  0  0  0  0  0  0  0  0
   68.5759   44.7772   56.1715 N   0  0  0  0  0  0  0  0  0  0  0  0
   67.3291   41.5159   57.2312 C   0  0  0  0  0  0  0  0  0  0  0  0
   68.7952   41.7315   57.4743 C   0  0  0  0  0  0  0  0  0  0  0  0
   69.6092   42.8493   57.4529 C   0  0  0  0  0  0  0  0  0  0  0  0
   70.6555   42.0068   57.7830 C   0  0  0  0  0  0  0  0  0  0  0  0
   71.9982   41.9704   58.0411 C   0  0  0  0  0  0  0  0  0  0  0  0
   72.7446   40.9371   58.6096 C   0  0  0  0  0  0  0  0  0  0  0  0
   72.3953   39.6442   58.9476 C   0  0  0  0  0  0  0  0  0  0  0  0
   73.6002   38.6529   60.0442 Br  0  0  0  0  0  0  0  0  0  0  0  0
   71.2247   38.9916   58.5554 C   0  0  0  0  0  0  0  0  0  0  0  0
   70.0884   39.5882   58.0577 C   0  0  0  0  0  0  0  0  0  0  0  0
   69.7778   40.8711   57.7958 N   0  0  0  0  0  0  0  0  0  0  0  0
   68.3340   46.1652   55.8565 C   0  0  0  0  0  0  0  0  0  0  0  0
   68.4803   46.4541   54.3939 C   0  0  0  0  0  0  0  0  0  0  0  0
   67.7802   45.6758   53.5070 C   0  0  0  0  0  0  0  0  0  0  0  0
   67.8958   45.9375   52.1504 C   0  0  0  0  0  0  0  0  0  0  0  0
   68.7006   46.9596   51.7169 C   0  0  0  0  0  0  0  0  0  0  0  0
   69.4128   47.7492   52.6121 C   0  0  0  0  0  0  0  0  0  0  0  0
   69.2859   47.4771   53.9473 C   0  0  0  0  0  0  0  0  0  0  0  0
   70.2406   48.8086   52.0835 C   0  0  0  0  0  0  0  0  0  0  0  0
   71.3697   49.2579   52.8127 N   0  0  0  0  0  0  0  0  0  0  0  0
   69.9854   49.3491   50.9854 O   0  0  0  0  0  0  0  0  0  0  0  0
  4  5  1  0  0  0
  5  6  2  0  0  0
  5 14  1  0  0  0
  6  1  1  0  0  0
  6  7  1  0  0  0
  1  2  2  0  0  0
  1  3  1  0  0  0
  3 15  1  0  0  0
 15 16  1  0  0  0
 16 17  2  0  0  0
 16 21  1  0  0  0
 17 18  1  0  0  0
 18 19  2  0  0  0
 19 20  1  0  0  0
 20 22  1  0  0  0
 20 21  2  0  0  0
 22 23  1  0  0  0
 22 24  2  0  0  0
  7  8  2  0  0  0
  7 14  1  0  0  0
  8  9  1  0  0  0
  9 10  2  0  0  0
 10 11  1  0  0  0
 10 12  1  0  0  0
 12 13  2  0  0  0
 13 14  1  0  0  0
M  END
> <minimizedAffinity>
-8.53817

$$$$
cs_R5_output_folder/data/smiles/74.pdb


 20 22  0  0  0  0  0  0  0  0999 V2000
   70.6326   46.8834   57.7228 O   0  0  0  0  0  0  0  0  0  0  0  0
   69.5970   46.7558   57.0376 C   0  0  0  0  0  0  0  0  0  0  0  0
   69.0316   45.4910   56.7635 N   0  0  0  0  0  0  0  0  0  0  0  0
   68.9426   47.9712   56.4951 C   0  0  0  0  0  0  0  0  0  0  0  0
   69.2936   48.1491   55.0785 N   0  0  0  0  0  0  0  0  0  0  0  0
   70.1385   49.0628   54.5876 C   0  0  0  0  0  0  0  0  0  0  0  0
   70.2108   48.9482   53.2401 N   0  0  0  0  0  0  0  0  0  0  0  0
   69.3919   47.9384   52.8710 C   0  0  0  0  0  0  0  0  0  0  0  0
   69.0976   47.4108   51.6295 C   0  0  0  0  0  0  0  0  0  0  0  0
   68.2038   46.3515   51.5314 C   0  0  0  0  0  0  0  0  0  0  0  0
   67.6323   45.8519   52.6843 C   0  0  0  0  0  0  0  0  0  0  0  0
   67.9402   46.3934   53.9150 C   0  0  0  0  0  0  0  0  0  0  0  0
   68.8333   47.4554   54.0217 C   0  0  0  0  0  0  0  0  0  0  0  0
   69.6495   44.3782   57.2586 O   0  0  0  0  0  0  0  0  0  0  0  0
   69.0942   43.1175   57.1377 C   0  0  0  0  0  0  0  0  0  0  0  0
   68.0534   42.9022   56.2250 C   0  0  0  0  0  0  0  0  0  0  0  0
   67.4646   41.6665   56.0693 C   0  0  0  0  0  0  0  0  0  0  0  0
   67.8762   40.5795   56.8103 C   0  0  0  0  0  0  0  0  0  0  0  0
   68.8993   40.7756   57.7118 C   0  0  0  0  0  0  0  0  0  0  0  0
   69.4891   42.0142   57.8682 C   0  0  0  0  0  0  0  0  0  0  0  0
  1  2  2  0  0  0
  2  4  1  0  0  0
  2  3  1  0  0  0
  4  5  1  0  0  0
  5  6  1  0  0  0
  5 13  1  0  0  0
  6  7  2  0  0  0
  7  8  1  0  0  0
  8  9  1  0  0  0
  8 13  2  0  0  0
  9 10  2  0  0  0
 10 11  1  0  0  0
 11 12  2  0  0  0
 12 13  1  0  0  0
  3 14  1  0  0  0
 14 15  1  0  0  0
 15 16  2  0  0  0
 15 20  1  0  0  0
 16 17  1  0  0  0
 17 18  2  0  0  0
 18 19  1  0  0  0
 19 20  2  0  0  0
M  END
> <minimizedAffinity>
-7.51264

$$$$
cs_R5_output_folder/data/smiles/75.pdb


 32 36  0  0  0  0  0  0  0  0999 V2000
   71.5211   47.1201   58.8748 C   0  0  0  0  0  0  0  0  0  0  0  0
   70.7241   47.9141   58.0649 C   0  0  0  0  0  0  0  0  0  0  0  0
   69.8545   47.4202   57.1500 C   0  0  0  0  0  0  0  0  0  0  0  0
   69.7599   46.0311   57.0197 C   0  0  0  0  0  0  0  0  0  0  0  0
   70.5455   45.2269   57.8177 C   0  0  0  0  0  0  0  0  0  0  0  0
   71.4244   45.7559   58.7424 C   0  0  0  0  0  0  0  0  0  0  0  0
   72.1881   44.9153   59.5161 F   0  0  0  0  0  0  0  0  0  0  0  0
   74.7833   49.5211   57.9015 N   0  0  0  0  0  0  0  0  0  0  0  0
   74.6925   50.6111   58.8128 C   0  0  0  0  0  0  0  0  0  0  0  0
   74.8875   50.2352   60.2522 C   0  0  0  0  0  0  0  0  0  0  0  0
   74.5887   48.7858   60.5243 C   0  0  0  0  0  0  0  0  0  0  0  0
   73.7132   48.2254   59.5108 N   0  0  0  0  0  0  0  0  0  0  0  0
   72.4365   47.6934   59.8484 C   0  0  0  0  0  0  0  0  0  0  0  0
   72.0851   47.7251   61.0777 O   0  0  0  0  0  0  0  0  0  0  0  0
   74.2155   48.2390   58.1631 C   0  0  0  0  0  0  0  0  0  0  0  0
   74.7707   49.6061   55.5873 N   0  0  0  0  0  0  0  0  0  0  0  0
   75.4839   49.7192   56.6511 C   0  0  0  0  0  0  0  0  0  0  0  0
   76.9334   50.0347   56.6367 C   0  0  0  0  0  0  0  0  0  0  0  0
   77.8446   49.4140   55.6731 C   0  0  0  0  0  0  0  0  0  0  0  0
   77.8343   48.9094   57.0668 C   0  0  0  0  0  0  0  0  0  0  0  0
   69.0230   48.2343   56.2891 C   0  0  0  0  0  0  0  0  0  0  0  0
   69.3697   48.2767   54.8683 C   0  0  0  0  0  0  0  0  0  0  0  0
   70.2769   49.2271   54.4805 N   0  0  0  0  0  0  0  0  0  0  0  0
   70.6606   49.4171   53.2536 N   0  0  0  0  0  0  0  0  0  0  0  0
   70.1819   48.6721   52.2431 C   0  0  0  0  0  0  0  0  0  0  0  0
   70.5315   48.8315   51.0465 O   0  0  0  0  0  0  0  0  0  0  0  0
   69.2544   47.6890   52.5830 C   0  0  0  0  0  0  0  0  0  0  0  0
   68.7375   46.8885   51.5930 C   0  0  0  0  0  0  0  0  0  0  0  0
   67.8263   45.8964   51.8904 C   0  0  0  0  0  0  0  0  0  0  0  0
   67.4358   45.7138   53.2020 C   0  0  0  0  0  0  0  0  0  0  0  0
   67.9296   46.4940   54.2299 C   0  0  0  0  0  0  0  0  0  0  0  0
   68.8438   47.4841   53.8946 C   0  0  0  0  0  0  0  0  0  0  0  0
 16 17  2  0  0  0
 17 18  1  0  0  0
 17  8  1  0  0  0
 18 19  1  0  0  0
 18 20  1  0  0  0
 19 20  1  0  0  0
  8  9  1  0  0  0
  8 15  1  0  0  0
  9 10  1  0  0  0
 10 11  1  0  0  0
 11 12  1  0  0  0
 12 13  1  0  0  0
 12 15  1  0  0  0
 13 14  2  0  0  0
 13  1  1  0  0  0
  1  2  2  0  0  0
  1  6  1  0  0  0
  2  3  1  0  0  0
  3 21  1  0  0  0
  3  4  2  0  0  0
 21 22  1  0  0  0
 22 23  2  0  0  0
 22 32  1  0  0  0
 23 24  1  0  0  0
 24 25  1  0  0  0
 25 26  2  0  0  0
 25 27  1  0  0  0
 27 28  1  0  0  0
 27 32  2  0  0  0
 28 29  2  0  0  0
 29 30  1  0  0  0
 30 31  2  0  0  0
 31 32  1  0  0  0
  4  5  1  0  0  0
  5  6  2  0  0  0
  6  7  1  0  0  0
M  CHG 1  16   1
M  END
> <minimizedAffinity>
-10.22386

$$$$
cs_R5_output_folder/data/smiles/76.pdb


 27 30  0  0  0  0  0  0  0  0999 V2000
   65.5301   38.6893   60.7069 C   0  0  0  0  0  0  0  0  0  0  0  0
   64.3096   39.1347   60.5528 O   0  0  0  0  0  0  0  0  0  0  0  0
   66.5092   39.6567   60.5166 N   0  0  0  0  0  0  0  0  0  0  0  0
   66.1088   41.0330   60.1678 C   0  0  0  0  0  0  0  0  0  0  0  0
   66.4415   41.8942   61.3630 C   0  0  0  0  0  0  0  0  0  0  0  0
   67.8584   41.6178   61.7550 C   0  0  0  0  0  0  0  0  0  0  0  0
   68.5939   40.8133   60.7340 C   0  0  0  0  0  0  0  0  0  0  0  0
   67.9136   39.4365   60.6312 C   0  0  0  0  0  0  0  0  0  0  0  0
   68.5749   42.8739   62.2149 C   0  0  0  0  0  0  0  0  0  0  0  0
   69.2255   42.0363   63.2008 N   0  0  0  0  0  0  0  0  0  0  0  0
   68.0937   41.1746   63.1307 C   0  0  0  0  0  0  0  0  0  0  0  0
   67.5304   40.3762   63.9037 O   0  0  0  0  0  0  0  0  0  0  0  0
   70.4568   42.0804   63.9096 C   0  0  0  0  0  0  0  0  0  0  0  0
   71.5321   42.8142   63.4038 C   0  0  0  0  0  0  0  0  0  0  0  0
   72.7464   42.8890   64.0558 C   0  0  0  0  0  0  0  0  0  0  0  0
   72.9246   42.2227   65.2493 C   0  0  0  0  0  0  0  0  0  0  0  0
   71.8483   41.5044   65.7284 C   0  0  0  0  0  0  0  0  0  0  0  0
   70.6703   41.4447   65.0757 N   0  0  0  0  0  0  0  0  0  0  0  0
   65.1877   36.2943   60.0455 C   0  0  0  0  0  0  0  0  0  0  0  0
   65.7104   37.2628   61.0523 C   0  0  0  0  0  0  0  0  0  0  0  0
   65.2846   36.9100   62.4268 C   0  0  0  0  0  0  0  0  0  0  0  0
   64.2167   36.0108   62.5987 C   0  0  0  0  0  0  0  0  0  0  0  0
   63.7498   35.6540   63.8369 C   0  0  0  0  0  0  0  0  0  0  0  0
   64.3477   36.1952   64.9511 C   0  0  0  0  0  0  0  0  0  0  0  0
   65.3878   37.0720   64.8338 C   0  0  0  0  0  0  0  0  0  0  0  0
   66.1280   37.7406   66.2683 Cl  0  0  0  0  0  0  0  0  0  0  0  0
   65.8505   37.4237   63.5603 C   0  0  0  0  0  0  0  0  0  0  0  0
 20 19  1  0  0  0
 20  1  1  0  0  0
 20 21  1  0  0  0
  1  2  2  0  0  0
  1  3  1  0  0  0
  3  4  1  0  0  0
  3  8  1  0  0  0
  4  5  1  0  0  0
  5  6  1  0  0  0
  6  7  1  0  0  0
  6  9  1  0  0  0
  6 11  1  0  0  0
  7  8  1  0  0  0
  9 10  1  0  0  0
 10 13  1  0  0  0
 10 11  1  0  0  0
 13 14  2  0  0  0
 13 18  1  0  0  0
 14 15  1  0  0  0
 15 16  2  0  0  0
 16 17  1  0  0  0
 17 18  2  0  0  0
 11 12  2  0  0  0
 21 22  2  0  0  0
 21 27  1  0  0  0
 22 23  1  0  0  0
 23 24  2  0  0  0
 24 25  1  0  0  0
 25 26  1  0  0  0
 25 27  2  0  0  0
M  END
> <minimizedAffinity>
-6.80870

$$$$
cs_R5_output_folder/data/smiles/78.pdb


 27 29  0  0  0  0  0  0  0  0999 V2000
   69.2936   46.7328   57.8593 N   0  0  0  0  0  0  0  0  0  0  0  0
   72.7947   48.0042   58.1692 C   0  0  0  0  0  0  0  0  0  0  0  0
   73.4108   46.7827   58.4461 C   0  0  0  0  0  0  0  0  0  0  0  0
   72.7084   45.5960   58.5236 C   0  0  0  0  0  0  0  0  0  0  0  0
   71.3511   45.5943   58.3245 C   0  0  0  0  0  0  0  0  0  0  0  0
   70.6958   46.7786   58.0472 C   0  0  0  0  0  0  0  0  0  0  0  0
   71.4352   47.9474   57.9778 C   0  0  0  0  0  0  0  0  0  0  0  0
   77.3817   50.3141   58.7430 C   0  0  0  0  0  0  0  0  0  0  0  0
   75.9974   50.4945   58.3879 N   0  0  0  0  0  0  0  0  0  0  0  0
   75.2000   50.2157   59.5554 C   0  0  0  0  0  0  0  0  0  0  0  0
   73.7265   50.1122   59.2265 C   0  0  0  0  0  0  0  0  0  0  0  0
   73.5460   49.2052   58.1094 N   0  0  0  0  0  0  0  0  0  0  0  0
   74.2262   49.6305   56.9013 C   0  0  0  0  0  0  0  0  0  0  0  0
   75.7041   49.7047   57.2486 C   0  0  0  0  0  0  0  0  0  0  0  0
   68.4699   47.8772   56.9113 S   0  0  0  0  0  0  0  0  0  0  0  0
   68.9404   49.2630   57.2909 O   0  0  0  0  0  0  0  0  0  0  0  0
   66.9848   47.8091   57.1956 O   0  0  0  0  0  0  0  0  0  0  0  0
   68.7212   47.6692   55.1994 C   0  0  0  0  0  0  0  0  0  0  0  0
   69.2842   48.6377   54.4195 C   0  0  0  0  0  0  0  0  0  0  0  0
   69.4687   48.4261   53.0587 C   0  0  0  0  0  0  0  0  0  0  0  0
   70.0347   49.4250   52.3283 F   0  0  0  0  0  0  0  0  0  0  0  0
   69.0933   47.2456   52.4629 C   0  0  0  0  0  0  0  0  0  0  0  0
   69.2713   47.0370   51.1483 F   0  0  0  0  0  0  0  0  0  0  0  0
   68.5329   46.2868   53.2543 C   0  0  0  0  0  0  0  0  0  0  0  0
   68.1475   45.0992   52.6961 F   0  0  0  0  0  0  0  0  0  0  0  0
   68.3423   46.4771   54.5983 C   0  0  0  0  0  0  0  0  0  0  0  0
   67.7923   45.5288   55.3603 F   0  0  0  0  0  0  0  0  0  0  0  0
  8  9  1  0  0  0
  9 10  1  0  0  0
  9 14  1  0  0  0
 10 11  1  0  0  0
 11 12  1  0  0  0
 12  2  1  0  0  0
 12 13  1  0  0  0
  2  3  2  0  0  0
  2  7  1  0  0  0
  3  4  1  0  0  0
  4  5  2  0  0  0
  5  6  1  0  0  0
  6  1  1  0  0  0
  6  7  2  0  0  0
  1 15  1  0  0  0
 15 16  2  0  0  0
 15 17  2  0  0  0
 15 18  1  0  0  0
 18 19  2  0  0  0
 18 26  1  0  0  0
 19 20  1  0  0  0
 20 21  1  0  0  0
 20 22  2  0  0  0
 22 23  1  0  0  0
 22 24  1  0  0  0
 24 25  1  0  0  0
 24 26  2  0  0  0
 26 27  1  0  0  0
 13 14  1  0  0  0
M  CHG 1   9   1
M  END
> <minimizedAffinity>
-7.84122

$$$$
cs_R5_output_folder/data/smiles/79.pdb


 20 21  0  0  0  0  0  0  0  0999 V2000
   69.9878   49.1532   54.4088 N   0  0  0  0  0  0  0  0  0  0  0  0
   69.5140   50.4779   54.3352 C   0  0  0  0  0  0  0  0  0  0  0  0
   68.4331   50.6854   53.7343 O   0  0  0  0  0  0  0  0  0  0  0  0
   70.2021   51.6311   54.9151 C   0  0  0  0  0  0  0  0  0  0  0  0
   71.4960   51.9849   54.5904 C   0  0  0  0  0  0  0  0  0  0  0  0
   72.1207   53.0835   55.1718 C   0  0  0  0  0  0  0  0  0  0  0  0
   73.7815   53.5049   54.7268 Cl  0  0  0  0  0  0  0  0  0  0  0  0
   71.4949   53.8785   56.0989 C   0  0  0  0  0  0  0  0  0  0  0  0
   70.1883   53.5302   56.4335 C   0  0  0  0  0  0  0  0  0  0  0  0
   69.5841   52.4395   55.8462 C   0  0  0  0  0  0  0  0  0  0  0  0
   68.2331   52.0917   56.1850 N   0  0  0  0  0  0  0  0  0  0  0  0
   68.7757   47.0544   54.6144 C   0  0  0  0  0  0  0  0  0  0  0  0
   68.1064   46.0111   53.9527 C   0  0  0  0  0  0  0  0  0  0  0  0
   68.0475   45.9461   52.5797 C   0  0  0  0  0  0  0  0  0  0  0  0
   68.6485   46.9114   51.8096 C   0  0  0  0  0  0  0  0  0  0  0  0
   69.2933   47.9162   52.4651 C   0  0  0  0  0  0  0  0  0  0  0  0
   69.3684   48.0067   53.8600 C   0  0  0  0  0  0  0  0  0  0  0  0
   68.7799   46.9542   56.0781 C   0  0  0  0  0  0  0  0  0  0  0  0
   67.6079   48.5724   57.3339 C   0  0  0  0  0  0  0  0  0  0  0  0
   67.6355   47.4110   56.6401 O   0  0  0  0  0  0  0  0  0  0  0  0
 19 20  1  0  0  0
 20 18  1  0  0  0
 18 12  1  0  0  0
 12 13  2  0  0  0
 12 17  1  0  0  0
 13 14  1  0  0  0
 14 15  2  0  0  0
 15 16  1  0  0  0
 16 17  2  0  0  0
 17  1  1  0  0  0
  1  2  1  0  0  0
  2  3  2  0  0  0
  2  4  1  0  0  0
  4  5  2  0  0  0
  4 10  1  0  0  0
  5  6  1  0  0  0
  6  7  1  0  0  0
  6  8  2  0  0  0
  8  9  1  0  0  0
  9 10  2  0  0  0
 10 11  1  0  0  0
M  END
> <minimizedAffinity>
-6.60218

$$$$
cs_R5_output_folder/data/smiles/80.pdb


 28 30  0  0  0  0  0  0  0  0999 V2000
   74.3964   35.3172   53.4739 C   0  0  0  0  0  0  0  0  0  0  0  0
   75.7220   35.7234   53.4500 C   0  0  0  0  0  0  0  0  0  0  0  0
   76.5486   35.4907   52.3450 C   0  0  0  0  0  0  0  0  0  0  0  0
   76.1076   34.8542   51.2327 C   0  0  0  0  0  0  0  0  0  0  0  0
   74.7758   34.4472   51.2590 C   0  0  0  0  0  0  0  0  0  0  0  0
   73.9477   34.6795   52.3621 C   0  0  0  0  0  0  0  0  0  0  0  0
   73.6613   34.9000   55.8563 C   0  0  0  0  0  0  0  0  0  0  0  0
   74.4049   33.8655   55.9418 O   0  0  0  0  0  0  0  0  0  0  0  0
   73.6571   35.6102   54.6484 N   0  0  0  0  0  0  0  0  0  0  0  0
   71.3168   36.1132   59.2432 C   0  0  0  0  0  0  0  0  0  0  0  0
   71.6816   34.8003   59.0872 C   0  0  0  0  0  0  0  0  0  0  0  0
   72.4356   34.4104   57.9970 C   0  0  0  0  0  0  0  0  0  0  0  0
   72.8543   35.2812   57.0345 C   0  0  0  0  0  0  0  0  0  0  0  0
   72.4774   36.6078   57.2051 C   0  0  0  0  0  0  0  0  0  0  0  0
   71.7245   37.0152   58.2882 C   0  0  0  0  0  0  0  0  0  0  0  0
   70.6689   37.6327   60.9102 O   0  0  0  0  0  0  0  0  0  0  0  0
   70.5267   36.4888   60.3962 C   0  0  0  0  0  0  0  0  0  0  0  0
   69.5820   35.6263   60.9945 N   0  0  0  0  0  0  0  0  0  0  0  0
   68.8717   36.0650   62.0915 O   0  0  0  0  0  0  0  0  0  0  0  0
   76.8541   34.5664   50.0627 N   0  0  0  0  0  0  0  0  0  0  0  0
   77.6367   35.4614   49.3249 C   0  0  0  0  0  0  0  0  0  0  0  0
   77.6995   36.6718   49.7292 O   0  0  0  0  0  0  0  0  0  0  0  0
   78.3816   35.0829   48.1198 C   0  0  0  0  0  0  0  0  0  0  0  0
   77.6894   34.7614   46.9722 C   0  0  0  0  0  0  0  0  0  0  0  0
   78.3725   34.4018   45.8237 C   0  0  0  0  0  0  0  0  0  0  0  0
   79.7516   34.3535   45.7879 C   0  0  0  0  0  0  0  0  0  0  0  0
   80.4461   34.6743   46.9335 C   0  0  0  0  0  0  0  0  0  0  0  0
   79.7289   35.0365   48.0858 C   0  0  0  0  0  0  0  0  0  0  0  0
 16 17  2  0  0  0
 17 18  1  0  0  0
 17 10  1  0  0  0
 18 19  1  0  0  0
 10 11  2  0  0  0
 10 15  1  0  0  0
 11 12  1  0  0  0
 12 13  2  0  0  0
 13  7  1  0  0  0
 13 14  1  0  0  0
  7  8  2  0  0  0
  7  9  1  0  0  0
  9  1  1  0  0  0
  1  2  2  0  0  0
  1  6  1  0  0  0
  2  3  1  0  0  0
  3  4  2  0  0  0
  4 20  1  0  0  0
  4  5  1  0  0  0
 20 21  1  0  0  0
 21 22  2  0  0  0
 21 23  1  0  0  0
 23 24  2  0  0  0
 23 28  1  0  0  0
 24 25  1  0  0  0
 25 26  2  0  0  0
 26 27  1  0  0  0
 27 28  2  0  0  0
  5  6  2  0  0  0
 14 15  2  0  0  0
M  END
> <minimizedAffinity>
-7.98046

$$$$
cs_R5_output_folder/data/smiles/81.pdb


 27 28  0  0  0  0  0  0  0  0999 V2000
   69.8216   49.2830   52.6597 S   0  0  0  0  0  0  0  0  0  0  0  0
   69.5810   49.1569   51.1617 O   0  0  0  0  0  0  0  0  0  0  0  0
   71.3271   49.2934   52.8735 O   0  0  0  0  0  0  0  0  0  0  0  0
   69.2299   47.8719   53.4863 C   0  0  0  0  0  0  0  0  0  0  0  0
   68.5076   46.9415   52.7871 C   0  0  0  0  0  0  0  0  0  0  0  0
   68.2387   47.0778   51.4468 F   0  0  0  0  0  0  0  0  0  0  0  0
   68.0270   45.8175   53.4338 C   0  0  0  0  0  0  0  0  0  0  0  0
   67.3170   44.9216   52.7070 F   0  0  0  0  0  0  0  0  0  0  0  0
   68.2766   45.6360   54.7756 C   0  0  0  0  0  0  0  0  0  0  0  0
   67.7957   44.5316   55.3759 F   0  0  0  0  0  0  0  0  0  0  0  0
   69.0006   46.5528   55.5093 C   0  0  0  0  0  0  0  0  0  0  0  0
   69.3131   46.3048   57.2402 S   0  0  0  0  0  0  0  0  0  0  0  0
   69.4617   47.6619   54.8255 C   0  0  0  0  0  0  0  0  0  0  0  0
   70.1744   48.5523   55.5740 F   0  0  0  0  0  0  0  0  0  0  0  0
   69.1574   50.7423   53.2147 N   0  0  0  0  0  0  0  0  0  0  0  0
   71.2489   53.2241   55.8674 C   0  0  0  0  0  0  0  0  0  0  0  0
   69.8677   53.2574   55.8516 C   0  0  0  0  0  0  0  0  0  0  0  0
   69.1852   52.4401   54.9794 C   0  0  0  0  0  0  0  0  0  0  0  0
   69.8534   51.5934   54.1246 C   0  0  0  0  0  0  0  0  0  0  0  0
   71.2513   51.6002   54.1832 C   0  0  0  0  0  0  0  0  0  0  0  0
   71.9879   52.3847   55.0222 C   0  0  0  0  0  0  0  0  0  0  0  0
   73.3852   52.4328   55.1231 N   0  0  0  0  0  0  0  0  0  0  0  0
   74.2248   51.3138   55.2538 C   0  0  0  0  0  0  0  0  0  0  0  0
   75.6560   51.5297   55.3462 N   0  0  0  0  0  0  0  0  0  0  0  0
   73.7619   50.1632   55.2901 O   0  0  0  0  0  0  0  0  0  0  0  0
   72.3455   53.5417   58.0022 C   0  0  0  0  0  0  0  0  0  0  0  0
   71.9498   54.0398   56.7378 O   0  0  0  0  0  0  0  0  0  0  0  0
 26 27  1  0  0  0
 27 16  1  0  0  0
 16 17  2  0  0  0
 16 21  1  0  0  0
 17 18  1  0  0  0
 18 19  2  0  0  0
 19 15  1  0  0  0
 19 20  1  0  0  0
 15  1  1  0  0  0
  1  2  2  0  0  0
  1  3  2  0  0  0
  1  4  1  0  0  0
  4  5  2  0  0  0
  4 13  1  0  0  0
  5  6  1  0  0  0
  5  7  1  0  0  0
  7  8  1  0  0  0
  7  9  2  0  0  0
  9 10  1  0  0  0
  9 11  1  0  0  0
 11 12  1  0  0  0
 11 13  2  0  0  0
 13 14  1  0  0  0
 20 21  2  0  0  0
 21 22  1  0  0  0
 22 23  1  0  0  0
 23 24  1  0  0  0
 23 25  2  0  0  0
M  END
> <minimizedAffinity>
-8.54483

$$$$
cs_R5_output_folder/data/smiles/82.pdb


 23 25  0  0  0  0  0  0  0  0999 V2000
   68.6576   48.6141   56.9103 C   0  0  0  0  0  0  0  0  0  0  0  0
   67.4619   48.6237   57.5911 C   0  0  0  0  0  0  0  0  0  0  0  0
   66.8561   49.8440   57.8842 C   0  0  0  0  0  0  0  0  0  0  0  0
   67.4550   51.0282   57.4921 C   0  0  0  0  0  0  0  0  0  0  0  0
   68.6657   51.0298   56.8032 C   0  0  0  0  0  0  0  0  0  0  0  0
   69.2354   49.8204   56.5293 C   0  0  0  0  0  0  0  0  0  0  0  0
   69.3084   52.2751   56.4014 C   0  0  0  0  0  0  0  0  0  0  0  0
   68.7372   53.0192   55.5399 O   0  0  0  0  0  0  0  0  0  0  0  0
   70.5413   52.7342   56.9011 N   0  0  0  0  0  0  0  0  0  0  0  0
   71.3400   52.0231   57.8881 C   0  0  0  0  0  0  0  0  0  0  0  0
   72.6255   51.6315   57.2453 C   0  0  0  0  0  0  0  0  0  0  0  0
   73.0196   52.3533   56.0103 C   0  0  0  0  0  0  0  0  0  0  0  0
   72.4314   53.6709   55.7428 C   0  0  0  0  0  0  0  0  0  0  0  0
   71.1554   53.9848   56.4726 C   0  0  0  0  0  0  0  0  0  0  0  0
   69.3632   47.3101   56.6034 C   0  0  0  0  0  0  0  0  0  0  0  0
   67.6168   45.8632   51.3929 C   0  0  0  0  0  0  0  0  0  0  0  0
   68.0545   46.2334   52.7721 C   0  0  0  0  0  0  0  0  0  0  0  0
   68.6535   47.4472   53.0357 C   0  0  0  0  0  0  0  0  0  0  0  0
   69.0581   47.7620   54.2878 N   0  0  0  0  0  0  0  0  0  0  0  0
   68.8969   46.9321   55.2960 N   0  0  0  0  0  0  0  0  0  0  0  0
   68.3247   45.7500   55.0989 C   0  0  0  0  0  0  0  0  0  0  0  0
   68.1321   44.9030   56.0040 O   0  0  0  0  0  0  0  0  0  0  0  0
   67.8798   45.3550   53.8232 C   0  0  0  0  0  0  0  0  0  0  0  0
 16 17  1  0  0  0
 17 18  1  0  0  0
 17 23  2  0  0  0
 18 19  2  0  0  0
 19 20  1  0  0  0
 20 15  1  0  0  0
 20 21  1  0  0  0
 15  1  1  0  0  0
  1  2  2  0  0  0
  1  6  1  0  0  0
  2  3  1  0  0  0
  3  4  2  0  0  0
  4  5  1  0  0  0
  5  7  1  0  0  0
  5  6  2  0  0  0
  7  8  2  0  0  0
  7  9  1  0  0  0
  9 10  1  0  0  0
  9 14  1  0  0  0
 10 11  1  0  0  0
 11 12  1  0  0  0
 12 13  1  0  0  0
 13 14  1  0  0  0
 21 22  2  0  0  0
 21 23  1  0  0  0
M  END
> <minimizedAffinity>
-7.44706

$$$$
cs_R5_output_folder/data/smiles/83.pdb


 22 24  0  0  0  0  0  0  0  0999 V2000
   74.1903   35.3470   55.5901 N   0  0  0  0  0  0  0  0  0  0  0  0
   73.8946   35.3684   54.2259 C   0  0  0  0  0  0  0  0  0  0  0  0
   72.7015   35.3640   53.8776 O   0  0  0  0  0  0  0  0  0  0  0  0
   74.8979   35.3962   53.1595 C   0  0  0  0  0  0  0  0  0  0  0  0
   76.0923   36.0779   53.2376 C   0  0  0  0  0  0  0  0  0  0  0  0
   76.9876   36.0633   52.2044 N   0  0  0  0  0  0  0  0  0  0  0  0
   76.7695   35.3955   51.0600 C   0  0  0  0  0  0  0  0  0  0  0  0
   77.6616   35.3722   50.0121 C   0  0  0  0  0  0  0  0  0  0  0  0
   77.4229   34.6811   48.8425 C   0  0  0  0  0  0  0  0  0  0  0  0
   76.2274   33.9974   48.7620 C   0  0  0  0  0  0  0  0  0  0  0  0
   75.3546   34.0188   49.7848 N   0  0  0  0  0  0  0  0  0  0  0  0
   75.5881   34.6971   50.9327 C   0  0  0  0  0  0  0  0  0  0  0  0
   74.6841   34.7113   51.9746 C   0  0  0  0  0  0  0  0  0  0  0  0
   71.7716   36.3172   58.2943 C   0  0  0  0  0  0  0  0  0  0  0  0
   71.5920   35.0897   58.8822 C   0  0  0  0  0  0  0  0  0  0  0  0
   72.2464   33.9662   58.4059 C   0  0  0  0  0  0  0  0  0  0  0  0
   73.0864   34.0838   57.3306 C   0  0  0  0  0  0  0  0  0  0  0  0
   73.3076   35.3189   56.6899 C   0  0  0  0  0  0  0  0  0  0  0  0
   72.6394   36.3767   57.2040 C   0  0  0  0  0  0  0  0  0  0  0  0
   71.0794   37.5460   58.7865 C   0  0  0  0  0  0  0  0  0  0  0  0
   71.6178   39.7396   58.1815 O   0  0  0  0  0  0  0  0  0  0  0  0
   71.9955   38.7220   58.7487 C   0  0  0  0  0  0  0  0  0  0  0  0
 21 22  2  0  0  0
 22 20  1  0  0  0
 20 14  1  0  0  0
 14 15  2  0  0  0
 14 19  1  0  0  0
 15 16  1  0  0  0
 16 17  2  0  0  0
 17 18  1  0  0  0
 18  1  1  0  0  0
 18 19  2  0  0  0
  1  2  1  0  0  0
  2  3  2  0  0  0
  2  4  1  0  0  0
  4  5  2  0  0  0
  4 13  1  0  0  0
  5  6  1  0  0  0
  6  7  2  0  0  0
  7  8  1  0  0  0
  7 12  1  0  0  0
  8  9  2  0  0  0
  9 10  1  0  0  0
 10 11  2  0  0  0
 11 12  1  0  0  0
 12 13  2  0  0  0
M  END
> <minimizedAffinity>
-7.37612

$$$$
cs_R5_output_folder/data/smiles/84.pdb


 21 22  0  0  0  0  0  0  0  0999 V2000
   74.0396   34.8881   55.5408 C   0  0  0  0  0  0  0  0  0  0  0  0
   74.8702   33.9466   55.5769 O   0  0  0  0  0  0  0  0  0  0  0  0
   74.0121   35.6730   54.3674 N   0  0  0  0  0  0  0  0  0  0  0  0
   71.5179   35.4843   58.9776 C   0  0  0  0  0  0  0  0  0  0  0  0
   71.8721   36.5196   58.1398 C   0  0  0  0  0  0  0  0  0  0  0  0
   72.6813   36.3231   57.0381 C   0  0  0  0  0  0  0  0  0  0  0  0
   73.1857   35.0807   56.7081 C   0  0  0  0  0  0  0  0  0  0  0  0
   72.8374   34.0381   57.5402 C   0  0  0  0  0  0  0  0  0  0  0  0
   72.0170   34.2423   58.6546 C   0  0  0  0  0  0  0  0  0  0  0  0
   70.0108   36.8348   60.3844 C   0  0  0  0  0  0  0  0  0  0  0  0
   70.7060   35.6631   60.0886 O   0  0  0  0  0  0  0  0  0  0  0  0
   74.8598   35.4598   53.2437 C   0  0  0  0  0  0  0  0  0  0  0  0
   74.5570   34.6462   52.1742 C   0  0  0  0  0  0  0  0  0  0  0  0
   75.4264   34.4792   51.1061 C   0  0  0  0  0  0  0  0  0  0  0  0
   76.6340   35.1290   51.0785 C   0  0  0  0  0  0  0  0  0  0  0  0
   76.9572   35.9480   52.1394 C   0  0  0  0  0  0  0  0  0  0  0  0
   76.0770   36.1060   53.2022 C   0  0  0  0  0  0  0  0  0  0  0  0
   77.7039   34.8941   49.7148 S   0  0  0  0  0  0  0  0  0  0  0  0
   76.8380   34.0533   48.4691 N   0  0  0  0  0  0  0  0  0  0  0  0
   78.9297   34.1321   50.1284 O   0  0  0  0  0  0  0  0  0  0  0  0
   78.0578   36.2501   49.1708 O   0  0  0  0  0  0  0  0  0  0  0  0
 10 11  1  0  0  0
 11  4  1  0  0  0
  4  5  2  0  0  0
  4  9  1  0  0  0
  5  6  1  0  0  0
  6  7  2  0  0  0
  7  1  1  0  0  0
  7  8  1  0  0  0
  1  2  2  0  0  0
  1  3  1  0  0  0
  3 12  1  0  0  0
 12 13  2  0  0  0
 12 17  1  0  0  0
 13 14  1  0  0  0
 14 15  2  0  0  0
 15 18  1  0  0  0
 15 16  1  0  0  0
 18 19  1  0  0  0
 18 20  2  0  0  0
 18 21  2  0  0  0
 16 17  2  0  0  0
  8  9  2  0  0  0
M  END
> <minimizedAffinity>
-6.39697

$$$$
cs_R5_output_folder/data/smiles/85.pdb


 19 20  0  0  0  0  0  0  0  0999 V2000
   70.5223   45.2908   58.0607 C   0  0  0  0  0  0  0  0  0  0  0  0
   69.7914   45.2676   59.0787 O   0  0  0  0  0  0  0  0  0  0  0  0
   70.0690   46.0732   56.9696 N   0  0  0  0  0  0  0  0  0  0  0  0
   75.5304   42.4216   58.1364 C   0  0  0  0  0  0  0  0  0  0  0  0
   74.2161   43.1224   58.1114 C   0  0  0  0  0  0  0  0  0  0  0  0
   73.0226   42.4515   57.9385 C   0  0  0  0  0  0  0  0  0  0  0  0
   71.8128   43.1552   57.9210 C   0  0  0  0  0  0  0  0  0  0  0  0
   71.7635   44.5244   58.0735 C   0  0  0  0  0  0  0  0  0  0  0  0
   72.9586   45.1463   58.2398 N   0  0  0  0  0  0  0  0  0  0  0  0
   74.1318   44.4908   58.2605 C   0  0  0  0  0  0  0  0  0  0  0  0
   75.2147   45.1289   58.4193 O   0  0  0  0  0  0  0  0  0  0  0  0
   68.9026   46.7847   56.9762 N   0  0  0  0  0  0  0  0  0  0  0  0
   68.2535   47.2434   56.0122 C   0  0  0  0  0  0  0  0  0  0  0  0
   68.5100   47.1803   54.5854 C   0  0  0  0  0  0  0  0  0  0  0  0
   67.9254   46.1630   53.8239 C   0  0  0  0  0  0  0  0  0  0  0  0
   68.1257   46.0501   52.4893 C   0  0  0  0  0  0  0  0  0  0  0  0
   68.9172   46.9336   51.8156 C   0  0  0  0  0  0  0  0  0  0  0  0
   69.5066   47.9455   52.5379 C   0  0  0  0  0  0  0  0  0  0  0  0
   69.3085   48.0728   53.9129 C   0  0  0  0  0  0  0  0  0  0  0  0
  4  5  1  0  0  0
  5  6  2  0  0  0
  5 10  1  0  0  0
  6  7  1  0  0  0
  7  8  2  0  0  0
  8  1  1  0  0  0
  8  9  1  0  0  0
  1  2  2  0  0  0
  1  3  1  0  0  0
  3 12  1  0  0  0
 12 13  2  0  0  0
 13 14  1  0  0  0
 14 15  2  0  0  0
 14 19  1  0  0  0
 15 16  1  0  0  0
 16 17  2  0  0  0
 17 18  1  0  0  0
 18 19  2  0  0  0
  9 10  1  0  0  0
 10 11  2  0  0  0
M  END
> <minimizedAffinity>
-7.38413

$$$$
cs_R5_output_folder/data/smiles/86.pdb


 20 21  0  0  0  0  0  0  0  0999 V2000
   69.7556   49.7411   53.8792 N   0  0  0  0  0  0  0  0  0  0  0  0
   71.0034   50.3375   54.0721 C   0  0  0  0  0  0  0  0  0  0  0  0
   72.0216   49.8096   53.6008 O   0  0  0  0  0  0  0  0  0  0  0  0
   68.5952   47.8329   55.4571 C   0  0  0  0  0  0  0  0  0  0  0  0
   68.7749   47.5755   54.0087 C   0  0  0  0  0  0  0  0  0  0  0  0
   68.3413   46.3959   53.4422 C   0  0  0  0  0  0  0  0  0  0  0  0
   68.5272   46.2016   52.0903 C   0  0  0  0  0  0  0  0  0  0  0  0
   69.1192   47.1429   51.3387 N   0  0  0  0  0  0  0  0  0  0  0  0
   69.5616   48.3299   51.8795 C   0  0  0  0  0  0  0  0  0  0  0  0
   70.1075   49.1636   51.1324 O   0  0  0  0  0  0  0  0  0  0  0  0
   69.3965   48.5640   53.2144 C   0  0  0  0  0  0  0  0  0  0  0  0
   71.2068   51.5948   54.8224 C   0  0  0  0  0  0  0  0  0  0  0  0
   70.1860   52.3491   55.3342 C   0  0  0  0  0  0  0  0  0  0  0  0
   70.4316   53.5351   56.0396 C   0  0  0  0  0  0  0  0  0  0  0  0
   71.7132   53.9779   56.2381 C   0  0  0  0  0  0  0  0  0  0  0  0
   72.7567   53.2441   55.7378 C   0  0  0  0  0  0  0  0  0  0  0  0
   72.4829   52.0735   55.0441 C   0  0  0  0  0  0  0  0  0  0  0  0
   74.0888   53.6728   55.9260 N   0  0  0  0  0  0  0  0  0  0  0  0
   74.3614   54.5739   56.7261 O   0  0  0  0  0  0  0  0  0  0  0  0
   75.0876   53.0815   55.2117 O   0  0  0  0  0  0  0  0  0  0  0  0
  4  5  1  0  0  0
  5  6  1  0  0  0
  5 11  2  0  0  0
  6  7  2  0  0  0
  7  8  1  0  0  0
  8  9  1  0  0  0
  9 10  2  0  0  0
  9 11  1  0  0  0
 11  1  1  0  0  0
  1  2  1  0  0  0
  2  3  2  0  0  0
  2 12  1  0  0  0
 12 13  2  0  0  0
 12 17  1  0  0  0
 13 14  1  0  0  0
 14 15  2  0  0  0
 15 16  1  0  0  0
 16 18  1  0  0  0
 16 17  2  0  0  0
 18 19  2  0  0  0
 18 20  1  0  0  0
M  CHG 1  18   1
M  CHG 1  20  -1
M  END
> <minimizedAffinity>
-7.60155

$$$$
cs_R5_output_folder/data/smiles/87.pdb


 27 30  0  0  0  0  0  0  0  0999 V2000
   71.2404   46.5197   58.1911 C   0  0  0  0  0  0  0  0  0  0  0  0
   71.8029   47.4146   59.0985 C   0  0  0  0  0  0  0  0  0  0  0  0
   71.3713   48.7270   59.1064 C   0  0  0  0  0  0  0  0  0  0  0  0
   70.3874   49.1748   58.2311 C   0  0  0  0  0  0  0  0  0  0  0  0
   69.8174   48.3177   57.3303 C   0  0  0  0  0  0  0  0  0  0  0  0
   70.2739   46.9982   57.3441 C   0  0  0  0  0  0  0  0  0  0  0  0
   74.1595   42.3435   57.9007 C   0  0  0  0  0  0  0  0  0  0  0  0
   72.9373   43.1955   58.0395 C   0  0  0  0  0  0  0  0  0  0  0  0
   71.6895   42.7953   58.2065 C   0  0  0  0  0  0  0  0  0  0  0  0
   71.2309   41.3679   58.2930 C   0  0  0  0  0  0  0  0  0  0  0  0
   70.8630   43.9894   58.2885 C   0  0  0  0  0  0  0  0  0  0  0  0
   69.6261   43.9918   58.4465 O   0  0  0  0  0  0  0  0  0  0  0  0
   71.6705   45.1606   58.1633 N   0  0  0  0  0  0  0  0  0  0  0  0
   73.0018   44.6607   58.0030 C   0  0  0  0  0  0  0  0  0  0  0  0
   74.0094   45.4008   57.8600 O   0  0  0  0  0  0  0  0  0  0  0  0
   68.7579   48.7158   56.3352 C   0  0  0  0  0  0  0  0  0  0  0  0
   69.2430   48.6673   54.9406 C   0  0  0  0  0  0  0  0  0  0  0  0
   70.1192   49.6250   54.4939 N   0  0  0  0  0  0  0  0  0  0  0  0
   70.5543   49.6582   53.2469 N   0  0  0  0  0  0  0  0  0  0  0  0
   70.1775   48.7635   52.3221 C   0  0  0  0  0  0  0  0  0  0  0  0
   70.5812   48.7803   51.1293 O   0  0  0  0  0  0  0  0  0  0  0  0
   69.3024   47.7730   52.6951 C   0  0  0  0  0  0  0  0  0  0  0  0
   68.8680   46.7998   51.8154 C   0  0  0  0  0  0  0  0  0  0  0  0
   67.9971   45.7865   52.1810 C   0  0  0  0  0  0  0  0  0  0  0  0
   67.5466   45.7571   53.4910 C   0  0  0  0  0  0  0  0  0  0  0  0
   67.9873   46.7314   54.3523 C   0  0  0  0  0  0  0  0  0  0  0  0
   68.8521   47.7475   54.0083 C   0  0  0  0  0  0  0  0  0  0  0  0
  7  8  1  0  0  0
  8  9  2  0  0  0
  8 14  1  0  0  0
  9 10  1  0  0  0
  9 11  1  0  0  0
 11 12  2  0  0  0
 11 13  1  0  0  0
 13  1  1  0  0  0
 13 14  1  0  0  0
  1  2  2  0  0  0
  1  6  1  0  0  0
  2  3  1  0  0  0
  3  4  2  0  0  0
  4  5  1  0  0  0
  5 16  1  0  0  0
  5  6  2  0  0  0
 16 17  1  0  0  0
 17 18  2  0  0  0
 17 27  1  0  0  0
 18 19  1  0  0  0
 19 20  1  0  0  0
 20 21  2  0  0  0
 20 22  1  0  0  0
 22 23  1  0  0  0
 22 27  2  0  0  0
 23 24  2  0  0  0
 24 25  1  0  0  0
 25 26  2  0  0  0
 26 27  1  0  0  0
 14 15  2  0  0  0
M  END
> <minimizedAffinity>
-9.38633

$$$$
cs_R5_output_folder/data/smiles/88.pdb


 23 25  0  0  0  0  0  0  0  0999 V2000
   73.8681   42.7918   59.2520 C   0  0  0  0  0  0  0  0  0  0  0  0
   72.6161   42.2237   58.7137 C   0  0  0  0  0  0  0  0  0  0  0  0
   71.6760   43.0672   58.1593 C   0  0  0  0  0  0  0  0  0  0  0  0
   70.5286   42.4518   57.6787 C   0  0  0  0  0  0  0  0  0  0  0  0
   69.6571   43.2188   57.1657 O   0  0  0  0  0  0  0  0  0  0  0  0
   70.3568   41.1558   57.7506 O   0  0  0  0  0  0  0  0  0  0  0  0
   71.2510   40.3291   58.2819 C   0  0  0  0  0  0  0  0  0  0  0  0
   71.0254   38.9712   58.3347 C   0  0  0  0  0  0  0  0  0  0  0  0
   71.9409   38.0646   58.8849 C   0  0  0  0  0  0  0  0  0  0  0  0
   73.1017   38.6160   59.3808 C   0  0  0  0  0  0  0  0  0  0  0  0
   73.3355   39.9881   59.3301 C   0  0  0  0  0  0  0  0  0  0  0  0
   72.4205   40.8596   58.7824 C   0  0  0  0  0  0  0  0  0  0  0  0
   71.8756   44.5371   58.0784 C   0  0  0  0  0  0  0  0  0  0  0  0
   71.0738   45.2191   59.1550 C   0  0  0  0  0  0  0  0  0  0  0  0
   71.5135   45.3182   60.3227 O   0  0  0  0  0  0  0  0  0  0  0  0
   69.8290   45.7580   58.8915 O   0  0  0  0  0  0  0  0  0  0  0  0
   71.6279   36.6842   58.9222 N   0  0  0  0  0  0  0  0  0  0  0  0
   72.1583   35.6830   58.0806 C   0  0  0  0  0  0  0  0  0  0  0  0
   72.6674   36.0147   56.8174 C   0  0  0  0  0  0  0  0  0  0  0  0
   73.2113   35.1005   55.9600 C   0  0  0  0  0  0  0  0  0  0  0  0
   73.2763   33.7730   56.3370 C   0  0  0  0  0  0  0  0  0  0  0  0
   72.7926   33.3896   57.5676 C   0  0  0  0  0  0  0  0  0  0  0  0
   72.2440   34.3486   58.4141 C   0  0  0  0  0  0  0  0  0  0  0  0
  1  2  1  0  0  0
  2  3  2  0  0  0
  2 12  1  0  0  0
  3 13  1  0  0  0
  3  4  1  0  0  0
 13 14  1  0  0  0
 14 15  2  0  0  0
 14 16  1  0  0  0
  4  5  2  0  0  0
  4  6  1  0  0  0
  6  7  1  0  0  0
  7  8  1  0  0  0
  7 12  2  0  0  0
  8  9  2  0  0  0
  9 17  1  0  0  0
  9 10  1  0  0  0
 17 18  1  0  0  0
 18 19  2  0  0  0
 18 23  1  0  0  0
 19 20  1  0  0  0
 20 21  2  0  0  0
 21 22  1  0  0  0
 22 23  2  0  0  0
 10 11  2  0  0  0
 11 12  1  0  0  0
M  END
> <minimizedAffinity>
-6.75958

$$$$
cs_R5_output_folder/data/smiles/89.pdb


 26 28  0  0  0  0  0  0  0  0999 V2000
   78.5757   33.4654   52.1910 C   0  0  0  0  0  0  0  0  0  0  0  0
   77.8411   34.7132   52.4767 C   0  0  0  0  0  0  0  0  0  0  0  0
   77.7181   35.2898   53.7216 C   0  0  0  0  0  0  0  0  0  0  0  0
   76.9588   36.4226   53.5111 C   0  0  0  0  0  0  0  0  0  0  0  0
   76.6662   36.4791   52.1980 N   0  0  0  0  0  0  0  0  0  0  0  0
   77.1870   35.4560   51.5413 N   0  0  0  0  0  0  0  0  0  0  0  0
   77.1137   35.1459   50.1563 C   0  0  0  0  0  0  0  0  0  0  0  0
   76.2172   34.2559   49.6065 C   0  0  0  0  0  0  0  0  0  0  0  0
   76.1863   33.9894   48.2517 C   0  0  0  0  0  0  0  0  0  0  0  0
   77.0594   34.6080   47.3823 C   0  0  0  0  0  0  0  0  0  0  0  0
   77.0298   34.3439   46.0361 F   0  0  0  0  0  0  0  0  0  0  0  0
   77.9615   35.4994   47.9175 C   0  0  0  0  0  0  0  0  0  0  0  0
   77.9794   35.7548   49.2726 C   0  0  0  0  0  0  0  0  0  0  0  0
   78.2792   34.7887   54.9722 C   0  0  0  0  0  0  0  0  0  0  0  0
   79.5096   34.8530   55.1645 O   0  0  0  0  0  0  0  0  0  0  0  0
   77.4820   34.2457   55.9486 O   0  0  0  0  0  0  0  0  0  0  0  0
   76.4316   33.3349   55.7220 C   0  0  0  0  0  0  0  0  0  0  0  0
   75.1809   34.1327   55.5934 C   0  0  0  0  0  0  0  0  0  0  0  0
   74.6486   34.7953   56.6903 C   0  0  0  0  0  0  0  0  0  0  0  0
   73.4974   35.5379   56.6007 C   0  0  0  0  0  0  0  0  0  0  0  0
   72.8229   35.6532   55.4131 C   0  0  0  0  0  0  0  0  0  0  0  0
   73.3310   35.0015   54.2949 C   0  0  0  0  0  0  0  0  0  0  0  0
   74.5019   34.2525   54.4063 C   0  0  0  0  0  0  0  0  0  0  0  0
   72.6310   35.1133   53.0320 C   0  0  0  0  0  0  0  0  0  0  0  0
   73.3188   34.8761   51.8276 N   0  0  0  0  0  0  0  0  0  0  0  0
   71.4249   35.4184   53.0099 O   0  0  0  0  0  0  0  0  0  0  0  0
  1  2  1  0  0  0
  2  3  2  0  0  0
  2  6  1  0  0  0
  3 14  1  0  0  0
  3  4  1  0  0  0
 14 15  2  0  0  0
 14 16  1  0  0  0
 16 17  1  0  0  0
 17 18  1  0  0  0
 18 19  2  0  0  0
 18 23  1  0  0  0
 19 20  1  0  0  0
 20 21  2  0  0  0
 21 22  1  0  0  0
 22 24  1  0  0  0
 22 23  2  0  0  0
 24 25  1  0  0  0
 24 26  2  0  0  0
  4  5  2  0  0  0
  5  6  1  0  0  0
  6  7  1  0  0  0
  7  8  2  0  0  0
  7 13  1  0  0  0
  8  9  1  0  0  0
  9 10  2  0  0  0
 10 11  1  0  0  0
 10 12  1  0  0  0
 12 13  2  0  0  0
M  END
> <minimizedAffinity>
-7.48993

$$$$
cs_R5_output_folder/data/smiles/90.pdb


 27 30  0  0  0  0  0  0  0  0999 V2000
   74.9456   35.2633   54.1404 C   0  0  0  0  0  0  0  0  0  0  0  0
   75.6008   34.6813   55.2039 C   0  0  0  0  0  0  0  0  0  0  0  0
   74.9579   34.4532   56.3976 C   0  0  0  0  0  0  0  0  0  0  0  0
   73.6221   34.8083   56.5543 C   0  0  0  0  0  0  0  0  0  0  0  0
   72.9957   35.3855   55.4812 C   0  0  0  0  0  0  0  0  0  0  0  0
   73.6334   35.6152   54.2874 C   0  0  0  0  0  0  0  0  0  0  0  0
   72.9611   34.5570   57.8230 C   0  0  0  0  0  0  0  0  0  0  0  0
   72.2657   33.5307   57.9507 O   0  0  0  0  0  0  0  0  0  0  0  0
   73.1133   35.4707   58.8842 N   0  0  0  0  0  0  0  0  0  0  0  0
   73.8928   36.6721   58.8233 C   0  0  0  0  0  0  0  0  0  0  0  0
   72.9745   37.8475   58.9863 C   0  0  0  0  0  0  0  0  0  0  0  0
   71.8348   37.5768   59.8083 N   0  0  0  0  0  0  0  0  0  0  0  0
   71.9692   36.4955   60.7215 C   0  0  0  0  0  0  0  0  0  0  0  0
   72.4392   35.2000   60.1556 C   0  0  0  0  0  0  0  0  0  0  0  0
   70.6025   37.6118   59.0646 C   0  0  0  0  0  0  0  0  0  0  0  0
   70.2814   38.9462   58.4313 C   0  0  0  0  0  0  0  0  0  0  0  0
   68.8818   38.8333   58.9911 C   0  0  0  0  0  0  0  0  0  0  0  0
   69.3992   37.8086   59.9733 C   0  0  0  0  0  0  0  0  0  0  0  0
   76.3608   36.5374   52.7121 O   0  0  0  0  0  0  0  0  0  0  0  0
   75.6788   35.4953   52.8746 C   0  0  0  0  0  0  0  0  0  0  0  0
   75.6624   34.5845   51.7893 N   0  0  0  0  0  0  0  0  0  0  0  0
   76.3619   34.8021   50.5690 C   0  0  0  0  0  0  0  0  0  0  0  0
   75.9249   34.1376   49.4355 C   0  0  0  0  0  0  0  0  0  0  0  0
   76.5712   34.3075   48.2072 C   0  0  0  0  0  0  0  0  0  0  0  0
   77.6581   35.1408   48.0837 C   0  0  0  0  0  0  0  0  0  0  0  0
   78.0821   35.7979   49.2236 C   0  0  0  0  0  0  0  0  0  0  0  0
   77.4505   35.6349   50.4418 C   0  0  0  0  0  0  0  0  0  0  0  0
 19 20  2  0  0  0
 20 21  1  0  0  0
 20  1  1  0  0  0
 21 22  1  0  0  0
 22 23  2  0  0  0
 22 27  1  0  0  0
 23 24  1  0  0  0
 24 25  2  0  0  0
 25 26  1  0  0  0
 26 27  2  0  0  0
  1  2  2  0  0  0
  1  6  1  0  0  0
  2  3  1  0  0  0
  3  4  2  0  0  0
  4  7  1  0  0  0
  4  5  1  0  0  0
  7  8  2  0  0  0
  7  9  1  0  0  0
  9 10  1  0  0  0
  9 14  1  0  0  0
 10 11  1  0  0  0
 11 12  1  0  0  0
 12 15  1  0  0  0
 12 13  1  0  0  0
 15 16  1  0  0  0
 15 18  1  0  0  0
 16 17  1  0  0  0
 17 18  1  0  0  0
 13 14  1  0  0  0
  5  6  2  0  0  0
M  CHG 1  12   1
M  END
> <minimizedAffinity>
-7.07007

$$$$
cs_R5_output_folder/data/smiles/91.pdb


 19 20  0  0  0  0  0  0  0  0999 V2000
   71.5850   47.7118   58.9965 C   0  0  0  0  0  0  0  0  0  0  0  0
   70.9924   48.8379   58.4710 C   0  0  0  0  0  0  0  0  0  0  0  0
   69.9738   48.7892   57.5324 C   0  0  0  0  0  0  0  0  0  0  0  0
   69.4971   47.5780   57.0714 C   0  0  0  0  0  0  0  0  0  0  0  0
   70.0888   46.4439   57.5954 C   0  0  0  0  0  0  0  0  0  0  0  0
   71.0994   46.4974   58.5276 C   0  0  0  0  0  0  0  0  0  0  0  0
   72.7774   46.8910   60.9756 C   0  0  0  0  0  0  0  0  0  0  0  0
   72.6439   47.7450   59.9781 C   0  0  0  0  0  0  0  0  0  0  0  0
   75.0036   46.1254   61.8778 N   0  0  0  0  0  0  0  0  0  0  0  0
   73.8775   46.9864   61.9328 C   0  0  0  0  0  0  0  0  0  0  0  0
   73.7936   47.8731   62.8258 O   0  0  0  0  0  0  0  0  0  0  0  0
   68.4077   47.4463   56.1016 C   0  0  0  0  0  0  0  0  0  0  0  0
   67.2343   47.4537   56.5749 O   0  0  0  0  0  0  0  0  0  0  0  0
   68.6376   47.3135   54.6685 C   0  0  0  0  0  0  0  0  0  0  0  0
   68.0147   46.2777   53.9744 C   0  0  0  0  0  0  0  0  0  0  0  0
   68.1828   46.1176   52.6157 C   0  0  0  0  0  0  0  0  0  0  0  0
   68.9750   46.9729   51.8701 C   0  0  0  0  0  0  0  0  0  0  0  0
   69.5914   47.9975   52.5544 C   0  0  0  0  0  0  0  0  0  0  0  0
   69.4252   48.1639   53.9206 C   0  0  0  0  0  0  0  0  0  0  0  0
  9 10  1  0  0  0
 10 11  2  0  0  0
 10  7  1  0  0  0
  7  8  2  0  0  0
  8  1  1  0  0  0
  1  2  2  0  0  0
  1  6  1  0  0  0
  2  3  1  0  0  0
  3  4  2  0  0  0
  4 12  1  0  0  0
  4  5  1  0  0  0
 12 13  2  0  0  0
 12 14  1  0  0  0
 14 15  2  0  0  0
 14 19  1  0  0  0
 15 16  1  0  0  0
 16 17  2  0  0  0
 17 18  1  0  0  0
 18 19  2  0  0  0
  5  6  2  0  0  0
M  END
> <minimizedAffinity>
-6.61739

$$$$
cs_R5_output_folder/data/smiles/92.pdb


 24 26  0  0  0  0  0  0  0  0999 V2000
   70.0152   46.8525   57.6373 N   0  0  0  0  0  0  0  0  0  0  0  0
   70.1804   48.1045   57.0628 C   0  0  0  0  0  0  0  0  0  0  0  0
   71.2306   48.7659   57.2700 O   0  0  0  0  0  0  0  0  0  0  0  0
   72.1684   44.1118   58.8856 C   0  0  0  0  0  0  0  0  0  0  0  0
   72.7207   44.7229   59.9909 C   0  0  0  0  0  0  0  0  0  0  0  0
   72.4266   46.0144   60.3539 C   0  0  0  0  0  0  0  0  0  0  0  0
   71.5288   46.7591   59.5857 C   0  0  0  0  0  0  0  0  0  0  0  0
   70.9555   46.1934   58.4817 C   0  0  0  0  0  0  0  0  0  0  0  0
   71.2910   44.8584   58.1468 C   0  0  0  0  0  0  0  0  0  0  0  0
   73.6332   42.8309   57.4869 C   0  0  0  0  0  0  0  0  0  0  0  0
   72.5650   42.7200   58.5999 C   0  0  0  0  0  0  0  0  0  0  0  0
   71.4956   41.8332   58.0749 C   0  0  0  0  0  0  0  0  0  0  0  0
   69.1387   48.7458   56.1839 C   0  0  0  0  0  0  0  0  0  0  0  0
   69.4821   48.6820   54.7531 C   0  0  0  0  0  0  0  0  0  0  0  0
   70.3447   49.6210   54.2828 N   0  0  0  0  0  0  0  0  0  0  0  0
   70.6535   49.6257   53.0117 N   0  0  0  0  0  0  0  0  0  0  0  0
   70.1476   48.7321   52.1316 C   0  0  0  0  0  0  0  0  0  0  0  0
   70.4922   48.8045   50.9228 O   0  0  0  0  0  0  0  0  0  0  0  0
   69.2654   47.7560   52.5608 C   0  0  0  0  0  0  0  0  0  0  0  0
   68.7635   46.8246   51.6701 C   0  0  0  0  0  0  0  0  0  0  0  0
   67.9055   45.8549   52.1393 C   0  0  0  0  0  0  0  0  0  0  0  0
   67.5662   45.8227   53.4623 C   0  0  0  0  0  0  0  0  0  0  0  0
   68.0819   46.7717   54.3442 C   0  0  0  0  0  0  0  0  0  0  0  0
   68.9419   47.7555   53.9049 C   0  0  0  0  0  0  0  0  0  0  0  0
 10 11  1  0  0  0
 11 12  1  0  0  0
 11  4  1  0  0  0
  4  5  2  0  0  0
  4  9  1  0  0  0
  5  6  1  0  0  0
  6  7  2  0  0  0
  7  8  1  0  0  0
  8  1  1  0  0  0
  8  9  2  0  0  0
  1  2  1  0  0  0
  2  3  2  0  0  0
  2 13  1  0  0  0
 13 14  1  0  0  0
 14 15  2  0  0  0
 14 24  1  0  0  0
 15 16  1  0  0  0
 16 17  1  0  0  0
 17 18  2  0  0  0
 17 19  1  0  0  0
 19 20  1  0  0  0
 19 24  2  0  0  0
 20 21  2  0  0  0
 21 22  1  0  0  0
 22 23  2  0  0  0
 23 24  1  0  0  0
M  END
> <minimizedAffinity>
-8.52155

$$$$
cs_R5_output_folder/data/smiles/93.pdb


 26 27  0  0  0  0  0  0  0  0999 V2000
   71.0277   46.0296   59.1772 C   0  0  0  0  0  0  0  0  0  0  0  0
   72.0996   44.8019   59.1457 S   0  0  0  0  0  0  0  0  0  0  0  0
   71.3419   47.2320   59.8557 N   0  0  0  0  0  0  0  0  0  0  0  0
   72.0798   48.3022   59.2264 C   0  0  0  0  0  0  0  0  0  0  0  0
   69.6357   50.8001   56.7288 C   0  0  0  0  0  0  0  0  0  0  0  0
   69.2774   50.5507   58.0381 C   0  0  0  0  0  0  0  0  0  0  0  0
   70.0511   49.7500   58.8548 C   0  0  0  0  0  0  0  0  0  0  0  0
   71.2177   49.1644   58.3952 C   0  0  0  0  0  0  0  0  0  0  0  0
   71.5708   49.4160   57.0891 C   0  0  0  0  0  0  0  0  0  0  0  0
   70.7994   50.2164   56.2700 C   0  0  0  0  0  0  0  0  0  0  0  0
   69.1984   53.1319   55.9732 C   0  0  0  0  0  0  0  0  0  0  0  0
   68.7808   51.6625   55.8861 C   0  0  0  0  0  0  0  0  0  0  0  0
   68.8265   51.2719   54.4301 C   0  0  0  0  0  0  0  0  0  0  0  0
   69.7917   45.8615   58.5168 N   0  0  0  0  0  0  0  0  0  0  0  0
   69.7528   45.9274   57.1227 N   0  0  0  0  0  0  0  0  0  0  0  0
   68.8335   46.7171   56.4009 C   0  0  0  0  0  0  0  0  0  0  0  0
   68.0132   47.3921   57.0756 O   0  0  0  0  0  0  0  0  0  0  0  0
   68.7639   46.8097   54.9463 C   0  0  0  0  0  0  0  0  0  0  0  0
   67.9354   46.0118   54.1858 C   0  0  0  0  0  0  0  0  0  0  0  0
   67.8934   46.1260   52.7936 C   0  0  0  0  0  0  0  0  0  0  0  0
   68.6752   47.0375   52.1239 C   0  0  0  0  0  0  0  0  0  0  0  0
   69.5072   47.8397   52.8749 C   0  0  0  0  0  0  0  0  0  0  0  0
   69.5436   47.7192   54.2648 C   0  0  0  0  0  0  0  0  0  0  0  0
   70.3197   48.7844   52.2065 N   0  0  0  0  0  0  0  0  0  0  0  0
   69.9410   49.2664   51.1336 O   0  0  0  0  0  0  0  0  0  0  0  0
   71.5140   49.1506   52.7589 O   0  0  0  0  0  0  0  0  0  0  0  0
 11 12  1  0  0  0
 12 13  1  0  0  0
 12  5  1  0  0  0
  5  6  2  0  0  0
  5 10  1  0  0  0
  6  7  1  0  0  0
  7  8  2  0  0  0
  8  4  1  0  0  0
  8  9  1  0  0  0
  4  3  1  0  0  0
  3  1  1  0  0  0
  1  2  2  0  0  0
  1 14  1  0  0  0
 14 15  1  0  0  0
 15 16  1  0  0  0
 16 17  2  0  0  0
 16 18  1  0  0  0
 18 19  2  0  0  0
 18 23  1  0  0  0
 19 20  1  0  0  0
 20 21  2  0  0  0
 21 22  1  0  0  0
 22 24  1  0  0  0
 22 23  2  0  0  0
 24 25  2  0  0  0
 24 26  1  0  0  0
  9 10  2  0  0  0
M  CHG 1  24   1
M  CHG 1  26  -1
M  END
> <minimizedAffinity>
-8.46280

$$$$
cs_R5_output_folder/data/smiles/94.pdb


 22 24  0  0  0  0  0  0  0  0999 V2000
   68.7362   48.0826   57.0292 C   0  0  0  0  0  0  0  0  0  0  0  0
   69.2958   47.1026   57.8006 N   0  0  0  0  0  0  0  0  0  0  0  0
   69.5200   45.8776   57.2979 C   0  0  0  0  0  0  0  0  0  0  0  0
   69.1901   45.5693   55.9717 C   0  0  0  0  0  0  0  0  0  0  0  0
   68.6316   46.5484   55.2005 C   0  0  0  0  0  0  0  0  0  0  0  0
   68.4403   47.7459   55.7818 N   0  0  0  0  0  0  0  0  0  0  0  0
   68.2665   46.2887   53.8190 C   0  0  0  0  0  0  0  0  0  0  0  0
   68.7426   47.1188   52.7946 C   0  0  0  0  0  0  0  0  0  0  0  0
   68.4210   46.9071   51.4690 C   0  0  0  0  0  0  0  0  0  0  0  0
   67.6086   45.8549   51.1031 C   0  0  0  0  0  0  0  0  0  0  0  0
   67.1307   45.0283   52.0936 C   0  0  0  0  0  0  0  0  0  0  0  0
   67.4625   45.2490   53.4416 C   0  0  0  0  0  0  0  0  0  0  0  0
   68.5061   49.3704   57.5748 N   0  0  0  0  0  0  0  0  0  0  0  0
   69.4312   50.7272   54.8934 C   0  0  0  0  0  0  0  0  0  0  0  0
   69.1710   52.2093   55.0641 C   0  0  0  0  0  0  0  0  0  0  0  0
   68.7888   52.5348   56.4612 C   0  0  0  0  0  0  0  0  0  0  0  0
   68.9157   51.7531   57.5009 C   0  0  0  0  0  0  0  0  0  0  0  0
   69.4807   50.3979   57.3824 C   0  0  0  0  0  0  0  0  0  0  0  0
   70.2380   50.2746   56.0912 C   0  0  0  0  0  0  0  0  0  0  0  0
   70.3310   51.4086   52.7737 O   0  0  0  0  0  0  0  0  0  0  0  0
   70.3000   50.5417   53.6977 C   0  0  0  0  0  0  0  0  0  0  0  0
   71.1078   49.4248   53.5368 O   0  0  0  0  0  0  0  0  0  0  0  0
 20 21  2  0  0  0
 21 22  1  0  0  0
 14 21  1  0  0  0
 14 15  1  0  0  0
 14 19  1  0  0  0
 15 16  1  0  0  0
 16 17  2  0  0  0
 17 18  1  0  0  0
 18 13  1  0  0  0
 18 19  1  0  0  0
 13  1  1  0  0  0
  1  2  2  0  0  0
  1  6  1  0  0  0
  2  3  1  0  0  0
  3  4  2  0  0  0
  4  5  1  0  0  0
  5  7  1  0  0  0
  5  6  2  0  0  0
  7  8  2  0  0  0
  7 12  1  0  0  0
  8  9  1  0  0  0
  9 10  2  0  0  0
 10 11  1  0  0  0
 11 12  2  0  0  0
M  END
> <minimizedAffinity>
-7.15014

$$$$
cs_R5_output_folder/data/smiles/95.pdb


 21 23  0  0  0  0  0  0  0  0999 V2000
   68.9407   46.8944   57.6390 O   0  0  0  0  0  0  0  0  0  0  0  0
   71.0585   41.9390   57.6602 O   0  0  0  0  0  0  0  0  0  0  0  0
   71.8872   42.8682   57.7320 C   0  0  0  0  0  0  0  0  0  0  0  0
   73.3875   42.8302   57.6879 C   0  0  0  0  0  0  0  0  0  0  0  0
   73.7636   44.0383   58.4909 C   0  0  0  0  0  0  0  0  0  0  0  0
   72.6047   44.9566   58.3291 C   0  0  0  0  0  0  0  0  0  0  0  0
   72.4657   46.3251   58.5447 C   0  0  0  0  0  0  0  0  0  0  0  0
   71.2676   46.9698   58.3220 C   0  0  0  0  0  0  0  0  0  0  0  0
   70.1397   46.3200   57.8771 C   0  0  0  0  0  0  0  0  0  0  0  0
   70.3006   44.9344   57.6647 C   0  0  0  0  0  0  0  0  0  0  0  0
   71.4943   44.2897   57.8867 C   0  0  0  0  0  0  0  0  0  0  0  0
   68.3693   47.6995   56.7242 C   0  0  0  0  0  0  0  0  0  0  0  0
   68.5421   47.4119   55.2893 C   0  0  0  0  0  0  0  0  0  0  0  0
   67.8645   46.4044   54.6466 C   0  0  0  0  0  0  0  0  0  0  0  0
   68.0257   46.1439   53.2868 C   0  0  0  0  0  0  0  0  0  0  0  0
   68.8895   46.9068   52.5369 C   0  0  0  0  0  0  0  0  0  0  0  0
   69.5859   47.9256   53.1510 C   0  0  0  0  0  0  0  0  0  0  0  0
   69.4018   48.1533   54.4888 C   0  0  0  0  0  0  0  0  0  0  0  0
   70.4907   48.7252   52.3662 N   0  0  0  0  0  0  0  0  0  0  0  0
   71.5401   49.1529   52.8744 O   0  0  0  0  0  0  0  0  0  0  0  0
   70.1921   49.0147   51.0595 O   0  0  0  0  0  0  0  0  0  0  0  0
  2  3  2  0  0  0
  3  4  1  0  0  0
  3 11  1  0  0  0
  4  5  1  0  0  0
  5  6  1  0  0  0
  6  7  2  0  0  0
  6 11  1  0  0  0
  7  8  1  0  0  0
  8  9  2  0  0  0
  9  1  1  0  0  0
  9 10  1  0  0  0
  1 12  1  0  0  0
 12 13  1  0  0  0
 13 14  2  0  0  0
 13 18  1  0  0  0
 14 15  1  0  0  0
 15 16  2  0  0  0
 16 17  1  0  0  0
 17 19  1  0  0  0
 17 18  2  0  0  0
 19 20  2  0  0  0
 19 21  1  0  0  0
 10 11  2  0  0  0
M  CHG 1  19   1
M  CHG 1  21  -1
M  END
> <minimizedAffinity>
-8.01688

$$$$
cs_R5_output_folder/data/smiles/96.pdb


 20 22  0  0  0  0  0  0  0  0999 V2000
   70.3668   49.9391   53.3489 C   0  0  0  0  0  0  0  0  0  0  0  0
   71.6872   49.6266   53.3806 N   0  0  0  0  0  0  0  0  0  0  0  0
   72.5838   50.2370   54.1228 N   0  0  0  0  0  0  0  0  0  0  0  0
   72.1728   51.2440   54.9088 C   0  0  0  0  0  0  0  0  0  0  0  0
   73.0146   51.8480   55.6313 O   0  0  0  0  0  0  0  0  0  0  0  0
   70.8667   51.6550   54.9671 C   0  0  0  0  0  0  0  0  0  0  0  0
   70.4356   52.6773   55.7789 C   0  0  0  0  0  0  0  0  0  0  0  0
   69.0984   53.0541   55.8199 C   0  0  0  0  0  0  0  0  0  0  0  0
   68.1776   52.3935   55.0327 C   0  0  0  0  0  0  0  0  0  0  0  0
   68.6456   51.3632   54.2202 C   0  0  0  0  0  0  0  0  0  0  0  0
   69.9529   50.9689   54.1559 C   0  0  0  0  0  0  0  0  0  0  0  0
   69.4483   49.2208   52.4370 C   0  0  0  0  0  0  0  0  0  0  0  0
   68.4787   46.4957   56.4380 N   0  0  0  0  0  0  0  0  0  0  0  0
   68.5144   46.6160   55.0273 C   0  0  0  0  0  0  0  0  0  0  0  0
   68.9376   47.7529   54.3932 C   0  0  0  0  0  0  0  0  0  0  0  0
   68.9847   47.9037   53.0031 C   0  0  0  0  0  0  0  0  0  0  0  0
   68.5779   46.8414   52.2467 C   0  0  0  0  0  0  0  0  0  0  0  0
   68.1472   45.6852   52.8475 C   0  0  0  0  0  0  0  0  0  0  0  0
   68.1060   45.5490   54.2203 C   0  0  0  0  0  0  0  0  0  0  0  0
   67.6799   44.4059   54.8170 F   0  0  0  0  0  0  0  0  0  0  0  0
 13 14  1  0  0  0
 14 15  2  0  0  0
 14 19  1  0  0  0
 15 16  1  0  0  0
 16 12  1  0  0  0
 16 17  2  0  0  0
 12  1  1  0  0  0
  1  2  2  0  0  0
  1 11  1  0  0  0
  2  3  1  0  0  0
  3  4  1  0  0  0
  4  5  2  0  0  0
  4  6  1  0  0  0
  6  7  1  0  0  0
  6 11  2  0  0  0
  7  8  2  0  0  0
  8  9  1  0  0  0
  9 10  2  0  0  0
 10 11  1  0  0  0
 17 18  1  0  0  0
 18 19  2  0  0  0
 19 20  1  0  0  0
M  END
> <minimizedAffinity>
-8.28915

$$$$
cs_R5_output_folder/data/smiles/97.pdb


 24 26  0  0  0  0  0  0  0  0999 V2000
   69.1918   38.5317   58.9768 O   0  0  0  0  0  0  0  0  0  0  0  0
   69.9152   39.3220   58.3119 C   0  0  0  0  0  0  0  0  0  0  0  0
   71.2988   39.0304   58.2466 N   0  0  0  0  0  0  0  0  0  0  0  0
   71.9266   37.8889   58.8952 C   0  0  0  0  0  0  0  0  0  0  0  0
   72.2161   37.9369   60.2396 C   0  0  0  0  0  0  0  0  0  0  0  0
   71.7772   37.1193   61.2482 C   0  0  0  0  0  0  0  0  0  0  0  0
   70.6075   36.4158   61.3613 C   0  0  0  0  0  0  0  0  0  0  0  0
   70.1790   35.3767   60.5616 C   0  0  0  0  0  0  0  0  0  0  0  0
   70.9492   34.3519   60.0580 C   0  0  0  0  0  0  0  0  0  0  0  0
   72.1563   34.6237   59.4393 C   0  0  0  0  0  0  0  0  0  0  0  0
   72.3171   35.4853   58.3803 C   0  0  0  0  0  0  0  0  0  0  0  0
   72.5942   35.8989   57.0272 C   0  0  0  0  0  0  0  0  0  0  0  0
   72.2328   36.7874   58.1131 C   0  0  0  0  0  0  0  0  0  0  0  0
   69.2871   40.4603   57.6672 C   0  0  0  0  0  0  0  0  0  0  0  0
   69.7824   41.7525   57.8863 C   0  0  0  0  0  0  0  0  0  0  0  0
   69.2167   42.8641   57.2955 C   0  0  0  0  0  0  0  0  0  0  0  0
   69.8031   44.1108   57.5915 O   0  0  0  0  0  0  0  0  0  0  0  0
   68.1438   42.7672   56.4652 C   0  0  0  0  0  0  0  0  0  0  0  0
   67.6125   43.9039   55.8983 O   0  0  0  0  0  0  0  0  0  0  0  0
   67.6343   41.4916   56.2326 C   0  0  0  0  0  0  0  0  0  0  0  0
   68.2057   40.3871   56.8273 C   0  0  0  0  0  0  0  0  0  0  0  0
   66.5113   41.3482   55.3718 N   0  0  0  0  0  0  0  0  0  0  0  0
   65.4510   42.0034   55.5547 O   0  0  0  0  0  0  0  0  0  0  0  0
   66.6223   40.4643   54.3272 O   0  0  0  0  0  0  0  0  0  0  0  0
  1  2  2  0  0  0
  2  3  1  0  0  0
  2 14  1  0  0  0
  3  4  1  0  0  0
  4  5  2  0  0  0
  4 13  1  0  0  0
  5  6  1  0  0  0
  6  7  2  0  0  0
  7  8  1  0  0  0
  8  9  2  0  0  0
  9 10  1  0  0  0
 10 11  2  0  0  0
 11 12  1  0  0  0
 11 13  1  0  0  0
 12 13  2  0  0  0
 14 15  2  0  0  0
 14 21  1  0  0  0
 15 16  1  0  0  0
 16 17  1  0  0  0
 16 18  2  0  0  0
 18 19  1  0  0  0
 18 20  1  0  0  0
 20 22  1  0  0  0
 20 21  2  0  0  0
 22 23  2  0  0  0
 22 24  1  0  0  0
M  CHG 1  22   1
M  CHG 1  24  -1
M  END
> <minimizedAffinity>
-7.05966

$$$$
cs_R5_output_folder/data/smiles/98.pdb


 23 24  0  0  0  0  0  0  0  0999 V2000
   68.6202   47.1407   57.1494 N   0  0  0  0  0  0  0  0  0  0  0  0
   69.8566   46.6680   57.8154 C   0  0  0  0  0  0  0  0  0  0  0  0
   70.8827   47.2220   57.3020 O   0  0  0  0  0  0  0  0  0  0  0  0
   70.0943   45.7522   58.8562 N   0  0  0  0  0  0  0  0  0  0  0  0
   71.6134   45.6118   59.0264 C   0  0  0  0  0  0  0  0  0  0  0  0
   72.1744   46.1310   60.1268 C   0  0  0  0  0  0  0  0  0  0  0  0
   73.4307   45.6204   60.5958 C   0  0  0  0  0  0  0  0  0  0  0  0
   74.0142   44.5816   59.8736 C   0  0  0  0  0  0  0  0  0  0  0  0
   73.4300   44.0645   58.7478 C   0  0  0  0  0  0  0  0  0  0  0  0
   72.2216   44.6052   58.3333 C   0  0  0  0  0  0  0  0  0  0  0  0
   74.0629   42.6069   58.0412 S   0  0  0  0  0  0  0  0  0  0  0  0
   73.3256   41.2318   58.7763 N   0  0  0  0  0  0  0  0  0  0  0  0
   73.5578   42.6098   56.5736 O   0  0  0  0  0  0  0  0  0  0  0  0
   75.5320   42.5404   57.9651 O   0  0  0  0  0  0  0  0  0  0  0  0
   68.9874   47.9232   56.0701 C   0  0  0  0  0  0  0  0  0  0  0  0
   68.8300   47.7462   54.6662 C   0  0  0  0  0  0  0  0  0  0  0  0
   69.6088   48.4662   53.8556 C   0  0  0  0  0  0  0  0  0  0  0  0
   69.8024   48.2191   52.4900 C   0  0  0  0  0  0  0  0  0  0  0  0
   69.0633   47.0605   52.0473 C   0  0  0  0  0  0  0  0  0  0  0  0
   68.3237   46.3674   52.7842 C   0  0  0  0  0  0  0  0  0  0  0  0
   68.0620   46.5975   54.2253 C   0  0  0  0  0  0  0  0  0  0  0  0
   68.4498   50.5999   56.7213 C   0  0  0  0  0  0  0  0  0  0  0  0
   68.6783   49.4800   56.4600 C   0  0  0  0  0  0  0  0  0  0  0  0
 22 23  3  0  0  0
 15 23  1  0  0  0
 15  1  1  0  0  0
 15 16  1  0  0  0
  1  2  1  0  0  0
  2  3  2  0  0  0
  2  4  1  0  0  0
  4  5  1  0  0  0
  5  6  2  0  0  0
  5 10  1  0  0  0
  6  7  1  0  0  0
  7  8  2  0  0  0
  8  9  1  0  0  0
  9 11  1  0  0  0
  9 10  2  0  0  0
 11 12  1  0  0  0
 11 13  2  0  0  0
 11 14  2  0  0  0
 16 17  2  0  0  0
 16 21  1  0  0  0
 17 18  1  0  0  0
 18 19  2  0  0  0
 19 20  1  0  0  0
 20 21  2  0  0  0
M  END
> <minimizedAffinity>
-6.58878

$$$$
cs_R5_output_folder/data/smiles/99.pdb


 29 32  0  0  0  0  0  0  0  0999 V2000
   70.5800   45.8064   58.4098 C   0  0  0  0  0  0  0  0  0  0  0  0
   69.9362   46.7650   57.6205 C   0  0  0  0  0  0  0  0  0  0  0  0
   70.3405   48.0731   57.5462 C   0  0  0  0  0  0  0  0  0  0  0  0
   71.4267   48.5159   58.2652 C   0  0  0  0  0  0  0  0  0  0  0  0
   72.0747   47.5934   59.0480 C   0  0  0  0  0  0  0  0  0  0  0  0
   71.6575   46.2517   59.1216 C   0  0  0  0  0  0  0  0  0  0  0  0
   72.3300   45.3848   59.9070 F   0  0  0  0  0  0  0  0  0  0  0  0
   69.4576   44.0395   59.4627 O   0  0  0  0  0  0  0  0  0  0  0  0
   70.0677   44.4577   58.4117 C   0  0  0  0  0  0  0  0  0  0  0  0
   70.1458   43.5003   57.3836 N   0  0  0  0  0  0  0  0  0  0  0  0
   69.5951   42.1837   57.5005 C   0  0  0  0  0  0  0  0  0  0  0  0
   70.1582   41.1714   58.2404 C   0  0  0  0  0  0  0  0  0  0  0  0
   69.5670   39.9055   58.3122 C   0  0  0  0  0  0  0  0  0  0  0  0
   68.3942   39.7000   57.6152 C   0  0  0  0  0  0  0  0  0  0  0  0
   67.8369   40.6863   56.8879 N   0  0  0  0  0  0  0  0  0  0  0  0
   68.4258   41.9101   56.8295 C   0  0  0  0  0  0  0  0  0  0  0  0
   67.8452   42.8717   56.0964 F   0  0  0  0  0  0  0  0  0  0  0  0
   69.4328   49.2193   56.4936 S   0  0  0  0  0  0  0  0  0  0  0  0
   69.7276   48.8765   54.7691 C   0  0  0  0  0  0  0  0  0  0  0  0
   70.5779   49.6396   54.0451 N   0  0  0  0  0  0  0  0  0  0  0  0
   70.8135   49.4037   52.7648 N   0  0  0  0  0  0  0  0  0  0  0  0
   70.2302   48.3974   52.0914 C   0  0  0  0  0  0  0  0  0  0  0  0
   70.4970   48.2206   50.8586 O   0  0  0  0  0  0  0  0  0  0  0  0
   69.3508   47.5774   52.7632 C   0  0  0  0  0  0  0  0  0  0  0  0
   68.7352   46.5366   52.1027 C   0  0  0  0  0  0  0  0  0  0  0  0
   67.8555   45.7190   52.7797 C   0  0  0  0  0  0  0  0  0  0  0  0
   67.6280   45.9897   54.1227 C   0  0  0  0  0  0  0  0  0  0  0  0
   68.2304   47.0230   54.8066 C   0  0  0  0  0  0  0  0  0  0  0  0
   69.1148   47.8331   54.0968 C   0  0  0  0  0  0  0  0  0  0  0  0
  8  9  2  0  0  0
  9 10  1  0  0  0
  9  1  1  0  0  0
 10 11  1  0  0  0
 11 12  2  0  0  0
 11 16  1  0  0  0
 12 13  1  0  0  0
 13 14  2  0  0  0
 14 15  1  0  0  0
 15 16  2  0  0  0
 16 17  1  0  0  0
  1  2  2  0  0  0
  1  6  1  0  0  0
  2  3  1  0  0  0
  3 18  1  0  0  0
  3  4  2  0  0  0
 18 19  1  0  0  0
 19 20  2  0  0  0
 19 29  1  0  0  0
 20 21  1  0  0  0
 21 22  1  0  0  0
 22 23  2  0  0  0
 22 24  1  0  0  0
 24 25  1  0  0  0
 24 29  2  0  0  0
 25 26  2  0  0  0
 26 27  1  0  0  0
 27 28  2  0  0  0
 28 29  1  0  0  0
  4  5  1  0  0  0
  5  6  2  0  0  0
  6  7  1  0  0  0
M  END
> <minimizedAffinity>
-10.19506

$$$$
