data/200k_reference_output/data/smiles/212.pdb
     RDKit          3D

 27 29  0  0  0  0  0  0  0  0999 V2000
   71.3437   48.4623   58.6266 O   0  0  0  0  0  0  0  0  0  0  0  0
   70.3996   48.0284   57.9214 C   0  0  0  0  0  0  0  0  0  0  0  0
   70.1700   46.6263   57.9138 N   0  0  0  0  0  0  0  0  0  0  0  0
   69.5698   48.9776   57.1337 C   0  0  0  0  0  0  0  0  0  0  0  0
   69.4560   48.5942   55.7586 N   0  0  0  0  0  0  0  0  0  0  0  0
   70.1470   49.2202   54.7708 C   0  0  0  0  0  0  0  0  0  0  0  0
   70.0201   48.8308   53.4540 C   0  0  0  0  0  0  0  0  0  0  0  0
   69.1812   47.7882   53.1029 C   0  0  0  0  0  0  0  0  0  0  0  0
   69.0380   47.3782   51.7761 C   0  0  0  0  0  0  0  0  0  0  0  0
   68.2051   46.3399   51.4140 C   0  0  0  0  0  0  0  0  0  0  0  0
   67.5121   45.7168   52.4305 C   0  0  0  0  0  0  0  0  0  0  0  0
   67.6393   46.1063   53.7483 C   0  0  0  0  0  0  0  0  0  0  0  0
   68.4824   47.1541   54.0980 C   0  0  0  0  0  0  0  0  0  0  0  0
   68.6460   47.5820   55.3927 C   0  0  0  0  0  0  0  0  0  0  0  0
   67.9885   46.9770   56.2801 O   0  0  0  0  0  0  0  0  0  0  0  0
   70.9784   45.7006   58.6649 C   0  0  0  0  0  0  0  0  0  0  0  0
   70.3529   44.3618   58.6262 C   0  0  0  0  0  0  0  0  0  0  0  0
   69.5973   43.9746   59.5990 O   0  0  0  0  0  0  0  0  0  0  0  0
   70.4912   43.4121   57.5902 N   0  0  0  0  0  0  0  0  0  0  0  0
   69.8346   42.1352   57.6731 C   0  0  0  0  0  0  0  0  0  0  0  0
   70.3290   41.0580   58.3690 C   0  0  0  0  0  0  0  0  0  0  0  0
   69.6367   39.8431   58.4084 C   0  0  0  0  0  0  0  0  0  0  0  0
   68.4359   39.6939   57.7482 C   0  0  0  0  0  0  0  0  0  0  0  0
   67.7850   38.5037   57.8022 F   0  0  0  0  0  0  0  0  0  0  0  0
   67.9409   40.7743   57.0504 C   0  0  0  0  0  0  0  0  0  0  0  0
   68.6358   41.9722   57.0194 C   0  0  0  0  0  0  0  0  0  0  0  0
   68.0783   42.9786   56.3113 F   0  0  0  0  0  0  0  0  0  0  0  0
  1  2  2  0
  2  4  1  0
  2  3  1  0
  4  5  1  0
  5  6  1  0
  5 14  1  0
  6  7  2  0
  7  8  1  0
  8  9  2  0
  8 13  1  0
  9 10  1  0
 10 11  2  0
 11 12  1  0
 12 13  2  0
 13 14  1  0
 14 15  2  0
  3 16  1  0
 16 17  1  0
 17 18  2  0
 17 19  1  0
 19 20  1  0
 20 21  2  0
 20 26  1  0
 21 22  1  0
 22 23  2  0
 23 24  1  0
 23 25  1  0
 25 26  2  0
 26 27  1  0
M  END
>  <minimizedAffinity>  (1) 
-9.13312

$$$$
data/200k_reference_output/data/smiles/278.pdb
     RDKit          3D

 31 33  0  0  0  0  0  0  0  0999 V2000
   70.3472   47.2403   57.6850 C   0  0  0  0  0  0  0  0  0  0  0  0
   70.9279   47.9125   56.7800 O   0  0  0  0  0  0  0  0  0  0  0  0
   68.9269   47.1519   57.5588 N   0  0  0  0  0  0  0  0  0  0  0  0
   68.1801   47.7778   56.4824 C   0  0  2  0  0  0  0  0  0  0  0  0
   68.3114   47.0410   55.2167 C   0  0  0  0  0  0  0  0  0  0  0  0
   67.8752   45.8435   55.3258 O   0  0  0  0  0  0  0  0  0  0  0  0
   68.7896   47.3160   53.9338 N   0  0  0  0  0  0  0  0  0  0  0  0
   68.5045   46.3240   52.9144 C   0  0  0  0  0  0  0  0  0  0  0  0
   69.5081   48.4462   53.5452 N   0  0  0  0  0  0  0  0  0  0  0  0
   69.6098   49.5751   54.1626 C   0  0  0  0  0  0  0  0  0  0  0  0
   69.0247   50.0282   55.4291 C   0  0  0  0  0  0  0  0  0  0  0  0
   69.1362   51.3957   55.5776 C   0  0  0  0  0  0  0  0  0  0  0  0
   68.6534   52.0374   56.6974 C   0  0  0  0  0  0  0  0  0  0  0  0
   68.0569   51.2470   57.6562 C   0  0  0  0  0  0  0  0  0  0  0  0
   67.9448   49.8800   57.5083 C   0  0  0  0  0  0  0  0  0  0  0  0
   68.4301   49.2252   56.3813 C   0  0  0  0  0  0  0  0  0  0  0  0
   72.4139   47.2780   59.0551 C   0  0  0  0  0  0  0  0  0  0  0  0
   71.0959   46.5889   58.7987 C   0  0  2  0  0  0  0  0  0  0  0  0
   71.3997   45.2377   58.3608 N   0  0  0  0  0  0  0  0  0  0  0  0
   70.6169   44.1086   58.7642 C   0  0  0  0  0  0  0  0  0  0  0  0
   69.6500   44.3781   59.5252 O   0  0  0  0  0  0  0  0  0  0  0  0
   70.8886   42.7414   58.3462 C   0  0  2  0  0  0  0  0  0  0  0  0
   71.9206   42.6322   57.4155 O   0  0  0  0  0  0  0  0  0  0  0  0
   69.6970   42.1821   57.6662 C   0  0  0  0  0  0  0  0  0  0  0  0
   69.3672   40.8421   57.9200 C   0  0  0  0  0  0  0  0  0  0  0  0
   68.2737   40.2581   57.3143 C   0  0  0  0  0  0  0  0  0  0  0  0
   67.9202   38.9566   57.5362 F   0  0  0  0  0  0  0  0  0  0  0  0
   67.4709   40.9679   56.4392 C   0  0  0  0  0  0  0  0  0  0  0  0
   67.7948   42.2795   56.1917 C   0  0  0  0  0  0  0  0  0  0  0  0
   66.9940   42.9624   55.3288 F   0  0  0  0  0  0  0  0  0  0  0  0
   68.8919   42.8736   56.7964 C   0  0  0  0  0  0  0  0  0  0  0  0
 18 17  1  6
 18 19  1  0
 18  1  1  0
 19 20  1  0
 20 21  2  0
 20 22  1  0
 22 23  1  6
 22 24  1  0
 24 25  2  0
 24 31  1  0
 25 26  1  0
 26 27  1  0
 26 28  2  0
 28 29  1  0
 29 30  1  0
 29 31  2  0
  1  2  2  0
  1  3  1  0
  4  3  1  1
  4  5  1  0
  4 16  1  0
  5  6  2  0
  5  7  1  0
  7  8  1  0
  7  9  1  0
  9 10  2  0
 10 11  1  0
 11 12  1  0
 11 16  2  0
 12 13  2  0
 13 14  1  0
 14 15  2  0
 15 16  1  0
M  END
>  <minimizedAffinity>  (2) 
-8.59076

$$$$
data/200k_reference_output/data/smiles/424.pdb
     RDKit          3D

 22 24  0  0  0  0  0  0  0  0999 V2000
   69.9704   49.2916   52.8724 S   0  0  0  0  0  0  0  0  0  0  0  0
   69.8312   50.0219   51.5461 O   0  0  0  0  0  0  0  0  0  0  0  0
   71.4555   48.9530   52.9503 O   0  0  0  0  0  0  0  0  0  0  0  0
   71.1384   52.0360   54.8960 C   0  0  0  0  0  0  0  0  0  0  0  0
   69.8960   51.8098   54.0861 C   0  0  2  0  0  0  0  0  0  0  0  0
   68.6677   52.3849   54.7487 C   0  0  0  0  0  0  0  0  0  0  0  0
   68.3832   51.3761   55.8016 C   0  0  0  0  0  0  0  0  0  0  0  0
   67.6978   51.4599   57.0053 C   0  0  0  0  0  0  0  0  0  0  0  0
   67.6119   50.3108   57.7553 C   0  0  0  0  0  0  0  0  0  0  0  0
   68.1752   49.1162   57.3475 C   0  0  0  0  0  0  0  0  0  0  0  0
   68.8522   49.0480   56.1507 C   0  0  0  0  0  0  0  0  0  0  0  0
   68.9535   50.1898   55.3763 C   0  0  0  0  0  0  0  0  0  0  0  0
   69.5918   50.3809   54.1200 N   0  0  0  0  0  0  0  0  0  0  0  0
   69.1146   47.8054   52.8807 C   0  0  0  0  0  0  0  0  0  0  0  0
   68.5576   47.3062   51.7331 C   0  0  0  0  0  0  0  0  0  0  0  0
   67.8634   46.1055   51.7285 C   0  0  0  0  0  0  0  0  0  0  0  0
   67.7518   45.4320   52.9139 C   0  0  0  0  0  0  0  0  0  0  0  0
   68.2954   45.8952   54.0922 C   0  0  0  0  0  0  0  0  0  0  0  0
   68.9723   47.0880   54.0443 C   0  0  0  0  0  0  0  0  0  0  0  0
   68.1381   45.1385   55.2838 N   0  0  0  0  0  0  0  0  0  0  0  0
   68.4994   45.6121   56.3778 O   0  0  0  0  0  0  0  0  0  0  0  0
   67.5957   43.8837   55.2848 O   0  0  0  0  0  0  0  0  0  0  0  0
  5  4  1  1
  5  6  1  0
  5 13  1  0
  6  7  1  0
  7  8  2  0
  7 12  1  0
  8  9  1  0
  9 10  2  0
 10 11  1  0
 11 12  2  0
 12 13  1  0
 13  1  1  0
  1  2  2  0
  1  3  2  0
  1 14  1  0
 14 15  2  0
 14 19  1  0
 15 16  1  0
 16 17  2  0
 17 18  1  0
 18 20  1  0
 18 19  2  0
 20 21  2  0
 20 22  1  0
M  CHG  2  20   1  22  -1
M  END
>  <minimizedAffinity>  (3) 
-9.41344

$$$$
data/200k_reference_output/data/smiles/606.pdb
     RDKit          3D

 22 24  0  0  0  0  0  0  0  0999 V2000
   68.3267   44.5596   55.9292 N   0  0  0  0  0  0  0  0  0  0  0  0
   67.9351   45.0560   54.8372 C   0  0  0  0  0  0  0  0  0  0  0  0
   68.4454   46.2676   54.2097 C   0  0  0  0  0  0  0  0  0  0  0  0
   68.4657   47.4788   54.8798 C   0  0  0  0  0  0  0  0  0  0  0  0
   68.9503   48.6256   54.2848 C   0  0  0  0  0  0  0  0  0  0  0  0
   69.4328   48.5975   52.9902 C   0  0  0  0  0  0  0  0  0  0  0  0
   69.4247   47.4057   52.2998 C   0  0  0  0  0  0  0  0  0  0  0  0
   68.9332   46.2666   52.9190 C   0  0  0  0  0  0  0  0  0  0  0  0
   69.9444   47.6585   51.0750 N   0  0  0  0  0  0  0  0  0  0  0  0
   70.2451   48.9222   51.0336 O   0  0  0  0  0  0  0  0  0  0  0  0
   69.9574   49.5124   52.1496 N   0  0  0  0  0  0  0  0  0  0  0  0
   70.1406   50.8498   52.4631 O   0  0  0  0  0  0  0  0  0  0  0  0
   69.8548   42.7623   57.3682 O   0  0  0  0  0  0  0  0  0  0  0  0
   68.6345   42.4995   57.2720 C   0  0  0  0  0  0  0  0  0  0  0  0
   67.8529   43.4086   56.5417 N   0  0  0  0  0  0  0  0  0  0  0  0
   68.1103   41.2934   57.9081 C   0  0  0  0  0  0  0  0  0  0  0  0
   68.5055   40.0233   57.5687 C   0  0  0  0  0  0  0  0  0  0  0  0
   67.9978   38.8967   58.1810 C   0  0  0  0  0  0  0  0  0  0  0  0
   67.0507   39.0076   59.1837 C   0  0  0  0  0  0  0  0  0  0  0  0
   66.2906   37.2771   60.1032 I   0  0  0  0  0  0  0  0  0  0  0  0
   66.6414   40.2727   59.5375 C   0  0  0  0  0  0  0  0  0  0  0  0
   67.1649   41.3942   58.9082 C   0  0  0  0  0  0  0  0  0  0  0  0
 13 14  2  0
 14 15  1  0
 14 16  1  0
 15  1  1  0
  1  2  2  0
  2  3  1  0
  3  4  1  0
  3  8  2  0
  4  5  2  0
  5  6  1  0
  6  7  1  0
  6 11  2  0
  7  8  1  0
  7  9  2  0
  9 10  1  0
 10 11  1  0
 11 12  1  0
 16 17  2  0
 16 22  1  0
 17 18  1  0
 18 19  2  0
 19 20  1  0
 19 21  1  0
 21 22  2  0
M  CHG  2  11   1  12  -1
M  END
>  <minimizedAffinity>  (4) 
-8.67787

$$$$
data/200k_reference_output/data/smiles/677.pdb
     RDKit          3D

 30 33  0  0  0  0  0  0  0  0999 V2000
   70.9279   38.9879   58.4427 N   0  0  0  0  0  0  0  0  0  0  0  0
   69.6682   39.4101   58.2108 C   0  0  0  0  0  0  0  0  0  0  0  0
   68.7686   38.5161   58.0894 O   0  0  0  0  0  0  0  0  0  0  0  0
   69.3308   40.7095   58.1045 N   0  0  0  0  0  0  0  0  0  0  0  0
   70.2383   41.6967   58.2238 C   0  0  0  0  0  0  0  0  0  0  0  0
   69.9062   43.0297   58.1167 C   0  0  0  0  0  0  0  0  0  0  0  0
   70.8484   44.0603   58.2401 C   0  0  0  0  0  0  0  0  0  0  0  0
   72.1378   43.6544   58.4772 C   0  0  0  0  0  0  0  0  0  0  0  0
   72.4815   42.3090   58.5863 C   0  0  0  0  0  0  0  0  0  0  0  0
   71.5407   41.3094   58.4621 C   0  0  0  0  0  0  0  0  0  0  0  0
   71.8549   39.9694   58.5659 C   0  0  0  0  0  0  0  0  0  0  0  0
   73.0474   39.6266   58.7848 O   0  0  0  0  0  0  0  0  0  0  0  0
   72.3939   33.4748   58.6999 C   0  0  0  0  0  0  0  0  0  0  0  0
   72.0134   34.9151   58.6294 C   0  0  0  0  0  0  0  0  0  0  0  0
   72.4254   35.7297   57.5977 C   0  0  0  0  0  0  0  0  0  0  0  0
   72.0503   37.0546   57.5720 C   0  0  0  0  0  0  0  0  0  0  0  0
   71.2642   37.6135   58.5527 C   0  0  0  0  0  0  0  0  0  0  0  0
   70.8618   36.7822   59.5767 C   0  0  0  0  0  0  0  0  0  0  0  0
   71.2216   35.4508   59.6304 C   0  0  0  0  0  0  0  0  0  0  0  0
   70.4300   45.4507   58.1168 C   0  0  0  0  0  0  0  0  0  0  0  0
   70.6791   46.2983   59.0290 O   0  0  0  0  0  0  0  0  0  0  0  0
   69.7352   45.9071   56.9860 N   0  0  0  0  0  0  0  0  0  0  0  0
   69.3355   47.3102   56.9057 C   0  0  0  0  0  0  0  0  0  0  0  0
   68.2120   47.5561   55.9628 C   0  0  0  0  0  0  0  0  0  0  0  0
   68.5219   47.3657   54.5385 C   0  0  0  0  0  0  0  0  0  0  0  0
   69.3700   48.2064   53.8531 C   0  0  0  0  0  0  0  0  0  0  0  0
   69.6044   47.9613   52.5047 C   0  0  0  0  0  0  0  0  0  0  0  0
   69.0240   46.9121   51.8224 C   0  0  0  0  0  0  0  0  0  0  0  0
   68.1803   46.0916   52.5423 C   0  0  0  0  0  0  0  0  0  0  0  0
   67.9150   46.2891   53.8776 C   0  0  0  0  0  0  0  0  0  0  0  0
 13 14  1  0
 14 15  2  0
 14 19  1  0
 15 16  1  0
 16 17  2  0
 17  1  1  0
 17 18  1  0
  1  2  1  0
  1 11  1  0
  2  3  2  0
  2  4  1  0
  4  5  1  0
  5  6  2  0
  5 10  1  0
  6  7  1  0
  7 20  1  0
  7  8  2  0
 20 21  2  0
 20 22  1  0
 22 23  1  0
 23 24  1  0
 24 25  1  0
 25 26  2  0
 25 30  1  0
 26 27  1  0
 27 28  2  0
 28 29  1  0
 29 30  2  0
  8  9  1  0
  9 10  2  0
 10 11  1  0
 11 12  2  0
 18 19  2  0
M  END
>  <minimizedAffinity>  (5) 
-10.10254

$$$$
data/200k_reference_output/data/smiles/730.pdb
     RDKit          3D

 25 28  0  0  0  0  0  0  0  0999 V2000
   73.1736   50.5174   53.8028 O   0  0  0  0  0  0  0  0  0  0  0  0
   71.9141   50.4326   53.9216 C   0  0  0  0  0  0  0  0  0  0  0  0
   71.2384   49.3483   53.4503 N   0  0  0  0  0  0  0  0  0  0  0  0
   69.9079   49.2239   53.5578 C   0  0  0  0  0  0  0  0  0  0  0  0
   69.2415   50.2320   54.1631 N   0  0  0  0  0  0  0  0  0  0  0  0
   69.8673   51.3183   54.6431 C   0  0  0  0  0  0  0  0  0  0  0  0
   71.2348   51.4603   54.5400 C   0  0  0  0  0  0  0  0  0  0  0  0
   71.9502   52.6545   55.0623 C   0  0  0  0  0  0  0  0  0  0  0  0
   71.0734   53.4750   55.9508 C   0  0  0  0  0  0  0  0  0  0  0  0
   69.9002   52.8394   56.4376 N   0  0  1  0  0  0  0  0  0  0  0  0
   69.1123   52.4079   55.3033 C   0  0  0  0  0  0  0  0  0  0  0  0
   69.1823   48.0591   53.0508 C   0  0  0  0  0  0  0  0  0  0  0  0
   68.5638   47.1960   53.9304 C   0  0  0  0  0  0  0  0  0  0  0  0
   67.8640   46.0764   53.4794 C   0  0  0  0  0  0  0  0  0  0  0  0
   67.7887   45.8273   52.1258 C   0  0  0  0  0  0  0  0  0  0  0  0
   68.4266   46.7220   51.2740 C   0  0  0  0  0  0  0  0  0  0  0  0
   69.0969   47.7998   51.7527 N   0  0  0  0  0  0  0  0  0  0  0  0
   70.0609   51.7667   57.3511 C   0  0  0  0  0  0  0  0  0  0  0  0
   68.8937   50.8648   57.4482 C   0  0  0  0  0  0  0  0  0  0  0  0
   67.6223   51.3455   57.6682 C   0  0  0  0  0  0  0  0  0  0  0  0
   66.5205   50.5259   57.7617 C   0  0  0  0  0  0  0  0  0  0  0  0
   66.6463   49.1640   57.6367 C   0  0  0  0  0  0  0  0  0  0  0  0
   67.9086   48.6570   57.4157 C   0  0  0  0  0  0  0  0  0  0  0  0
   68.0383   47.2848   57.2898 O   0  0  0  0  0  0  0  0  0  0  0  0
   69.0147   49.4981   57.3233 C   0  0  0  0  0  0  0  0  0  0  0  0
  1  2  2  0
  2  3  1  0
  2  7  1  0
  3  4  1  0
  4 12  1  0
  4  5  2  0
 12 13  2  0
 12 17  1  0
 13 14  1  0
 14 15  2  0
 15 16  1  0
 16 17  2  0
  5  6  1  0
  6  7  2  0
  6 11  1  0
  7  8  1  0
  8  9  1  0
  9 10  1  0
 10 18  1  1
 10 11  1  0
 18 19  1  0
 19 20  2  0
 19 25  1  0
 20 21  1  0
 21 22  2  0
 22 23  1  0
 23 24  1  0
 23 25  2  0
M  CHG  1  10   1
M  END
>  <minimizedAffinity>  (6) 
-8.71128

$$$$
data/200k_reference_output/data/smiles/782.pdb
     RDKit          3D

 23 25  0  0  0  0  0  0  0  0999 V2000
   68.9560   48.8015   56.1378 C   0  0  0  0  0  0  0  0  0  0  0  0
   69.3818   48.6673   54.7539 C   0  0  0  0  0  0  0  0  0  0  0  0
   70.2853   49.5892   54.3058 N   0  0  0  0  0  0  0  0  0  0  0  0
   70.6742   49.5914   53.0532 N   0  0  0  0  0  0  0  0  0  0  0  0
   70.2031   48.6963   52.1742 C   0  0  0  0  0  0  0  0  0  0  0  0
   70.5631   48.6809   50.9632 O   0  0  0  0  0  0  0  0  0  0  0  0
   69.2895   47.7304   52.5421 C   0  0  0  0  0  0  0  0  0  0  0  0
   68.8093   46.7982   51.6743 C   0  0  0  0  0  0  0  0  0  0  0  0
   67.9220   45.8620   52.1213 C   0  0  0  0  0  0  0  0  0  0  0  0
   67.5143   45.8544   53.4366 C   0  0  0  0  0  0  0  0  0  0  0  0
   67.9905   46.7990   54.3508 C   0  0  0  0  0  0  0  0  0  0  0  0
   68.8802   47.7378   53.8913 C   0  0  0  0  0  0  0  0  0  0  0  0
   70.6525   46.0512   58.0971 C   0  0  0  0  0  0  0  0  0  0  0  0
   71.7773   46.7177   58.5772 C   0  0  0  0  0  0  0  0  0  0  0  0
   71.9672   48.0265   58.2701 C   0  0  0  0  0  0  0  0  0  0  0  0
   71.0362   48.7133   57.4701 C   0  0  0  0  0  0  0  0  0  0  0  0
   69.9293   48.0901   56.9850 C   0  0  0  0  0  0  0  0  0  0  0  0
   69.7576   46.7392   57.3176 C   0  0  0  0  0  0  0  0  0  0  0  0
   71.0705   43.5792   57.7566 N   0  0  0  0  0  0  0  0  0  0  0  0
   70.4670   44.6508   58.4469 C   0  0  0  0  0  0  0  0  0  0  0  0
   69.7271   44.3355   59.4232 O   0  0  0  0  0  0  0  0  0  0  0  0
   72.2318   41.5432   58.3445 C   0  0  0  0  0  0  0  0  0  0  0  0
   70.8626   42.1870   58.1303 C   0  0  0  0  0  0  0  0  0  0  0  0
 22 23  1  0
 23 19  1  0
 19 20  1  0
 20 21  2  0
 20 13  1  0
 13 14  2  0
 13 18  1  0
 14 15  1  0
 15 16  2  0
 16 17  1  0
 17  1  1  0
 17 18  2  0
  1  2  1  0
  2  3  2  0
  2 12  1  0
  3  4  1  0
  4  5  1  0
  5  6  2  0
  5  7  1  0
  7  8  1  0
  7 12  2  0
  8  9  2  0
  9 10  1  0
 10 11  2  0
 11 12  1  0
M  END
>  <minimizedAffinity>  (7) 
-8.75271

$$$$
data/200k_reference_output/data/smiles/812.pdb
     RDKit          3D

 25 28  0  0  0  0  0  0  0  0999 V2000
   67.7312   39.0956   57.2973 O   0  0  0  0  0  0  0  0  0  0  0  0
   68.2104   40.2696   57.2644 C   0  0  0  0  0  0  0  0  0  0  0  0
   67.6882   41.1888   56.4491 N   0  0  0  0  0  0  0  0  0  0  0  0
   68.1816   42.4347   56.4003 C   0  0  0  0  0  0  0  0  0  0  0  0
   67.8870   43.5522   55.7079 N   0  0  0  0  0  0  0  0  0  0  0  0
   68.6980   44.5705   56.0272 C   0  0  0  0  0  0  0  0  0  0  0  0
   69.5377   44.0820   56.9559 N   0  0  0  0  0  0  0  0  0  0  0  0
   69.2595   42.7915   57.2118 C   0  0  0  0  0  0  0  0  0  0  0  0
   69.7521   41.7963   58.0305 C   0  0  0  0  0  0  0  0  0  0  0  0
   70.7300   42.0818   58.7805 O   0  0  0  0  0  0  0  0  0  0  0  0
   69.2633   40.5448   58.0848 N   0  0  0  0  0  0  0  0  0  0  0  0
   68.6835   45.9354   55.4860 C   0  0  0  0  0  0  0  0  0  0  0  0
   68.4281   46.1901   54.1551 C   0  0  0  0  0  0  0  0  0  0  0  0
   68.4143   47.4794   53.6448 C   0  0  0  0  0  0  0  0  0  0  0  0
   68.6573   48.5664   54.4593 C   0  0  0  0  0  0  0  0  0  0  0  0
   68.9117   48.3097   55.7901 C   0  0  0  0  0  0  0  0  0  0  0  0
   68.9250   47.0188   56.2981 C   0  0  0  0  0  0  0  0  0  0  0  0
   69.8178   39.5263   58.9632 C   0  0  0  0  0  0  0  0  0  0  0  0
   71.1504   39.0435   58.4713 C   0  0  0  0  0  0  0  0  0  0  0  0
   71.3435   37.6004   58.6117 C   0  0  0  0  0  0  0  0  0  0  0  0
   70.7443   36.8408   59.5985 C   0  0  0  0  0  0  0  0  0  0  0  0
   70.9609   35.4920   59.6772 C   0  0  0  0  0  0  0  0  0  0  0  0
   71.7730   34.8113   58.7990 C   0  0  0  0  0  0  0  0  0  0  0  0
   72.3807   35.5499   57.8070 C   0  0  0  0  0  0  0  0  0  0  0  0
   72.1680   36.9055   57.7220 C   0  0  0  0  0  0  0  0  0  0  0  0
  1  2  2  0
  2  3  1  0
  2 11  1  0
  3  4  1  0
  4  5  1  0
  4  8  2  0
  5  6  1  0
  6 12  1  0
  6  7  2  0
 12 13  2  0
 12 17  1  0
 13 14  1  0
 14 15  2  0
 15 16  1  0
 16 17  2  0
  7  8  1  0
  8  9  1  0
  9 10  2  0
  9 11  1  0
 11 18  1  0
 18 19  1  0
 19 20  1  0
 20 21  2  0
 20 25  1  0
 21 22  1  0
 22 23  2  0
 23 24  1  0
 24 25  2  0
M  CHG  1   7   1
M  END
>  <minimizedAffinity>  (8) 
-8.81969

$$$$
data/200k_reference_output/data/smiles/840.pdb
     RDKit          3D

 25 28  0  0  0  0  0  0  0  0999 V2000
   68.2912   39.3362   57.3093 O   0  0  0  0  0  0  0  0  0  0  0  0
   69.1244   40.1464   57.7383 C   0  0  0  0  0  0  0  0  0  0  0  0
   69.0609   41.5440   57.3347 C   0  0  0  0  0  0  0  0  0  0  0  0
   68.1780   42.2706   56.5306 C   0  0  0  0  0  0  0  0  0  0  0  0
   68.5515   43.5995   56.5038 C   0  0  0  0  0  0  0  0  0  0  0  0
   69.6386   43.6521   57.2809 N   0  0  0  0  0  0  0  0  0  0  0  0
   69.9493   42.4398   57.7771 N   0  0  0  0  0  0  0  0  0  0  0  0
   71.0359   42.0004   58.6181 C   0  0  0  0  0  0  0  0  0  0  0  0
   70.6116   40.8518   59.4866 C   0  0  0  0  0  0  0  0  0  0  0  0
   70.1821   39.7554   58.6445 N   0  0  0  0  0  0  0  0  0  0  0  0
   70.6863   38.4424   58.6565 C   0  0  0  0  0  0  0  0  0  0  0  0
   70.3008   37.4452   59.5127 C   0  0  0  0  0  0  0  0  0  0  0  0
   70.8135   36.1629   59.5009 C   0  0  0  0  0  0  0  0  0  0  0  0
   70.3903   35.2210   60.3746 F   0  0  0  0  0  0  0  0  0  0  0  0
   71.7786   35.8714   58.5625 C   0  0  0  0  0  0  0  0  0  0  0  0
   72.1624   36.8733   57.7065 C   0  0  0  0  0  0  0  0  0  0  0  0
   71.6417   38.1106   57.7460 N   0  0  0  0  0  0  0  0  0  0  0  0
   67.9440   44.6466   55.8286 O   0  0  0  0  0  0  0  0  0  0  0  0
   68.5223   45.8545   55.4610 C   0  0  0  0  0  0  0  0  0  0  0  0
   68.4475   46.1891   54.0241 C   0  0  0  0  0  0  0  0  0  0  0  0
   67.6962   45.4442   53.1513 C   0  0  0  0  0  0  0  0  0  0  0  0
   67.6134   45.7553   51.7992 C   0  0  0  0  0  0  0  0  0  0  0  0
   68.3029   46.8472   51.3007 C   0  0  0  0  0  0  0  0  0  0  0  0
   69.0553   47.5996   52.1539 C   0  0  0  0  0  0  0  0  0  0  0  0
   69.1322   47.2807   53.5027 C   0  0  0  0  0  0  0  0  0  0  0  0
  1  2  2  0
  2  3  1  0
  2 10  1  0
  3  4  2  0
  3  7  1  0
  4  5  1  0
  5 18  1  0
  5  6  2  0
 18 19  1  0
 19 20  1  0
 20 21  2  0
 20 25  1  0
 21 22  1  0
 22 23  2  0
 23 24  1  0
 24 25  2  0
  6  7  1  0
  7  8  1  0
  8  9  1  0
  9 10  1  0
 10 11  1  0
 11 12  2  0
 11 17  1  0
 12 13  1  0
 13 14  1  0
 13 15  2  0
 15 16  1  0
 16 17  2  0
M  END
>  <minimizedAffinity>  (9) 
-8.53518

$$$$
data/200k_reference_output/data/smiles/868.pdb
     RDKit          3D

 23 26  0  0  0  0  0  0  0  0999 V2000
   70.7212   47.2704   57.4337 O   0  0  0  0  0  0  0  0  0  0  0  0
   70.1429   46.1590   57.2437 C   0  0  0  0  0  0  0  0  0  0  0  0
   70.5489   45.0260   57.8635 N   0  0  0  0  0  0  0  0  0  0  0  0
   69.9092   43.8488   57.6391 C   0  0  0  0  0  0  0  0  0  0  0  0
   70.3498   42.7427   58.2807 N   0  0  0  0  0  0  0  0  0  0  0  0
   69.7196   41.5618   58.0647 C   0  0  0  0  0  0  0  0  0  0  0  0
   70.1453   40.4028   58.7085 C   0  0  0  0  0  0  0  0  0  0  0  0
   69.5095   39.1947   58.4957 C   0  0  0  0  0  0  0  0  0  0  0  0
   68.4384   39.1245   57.6355 C   0  0  0  0  0  0  0  0  0  0  0  0
   68.0171   40.2693   56.9993 C   0  0  0  0  0  0  0  0  0  0  0  0
   68.6471   41.4847   57.2064 C   0  0  0  0  0  0  0  0  0  0  0  0
   68.2299   42.6349   56.5720 C   0  0  0  0  0  0  0  0  0  0  0  0
   67.2499   42.5564   55.7893 O   0  0  0  0  0  0  0  0  0  0  0  0
   68.8619   43.7994   56.7944 N   0  0  0  0  0  0  0  0  0  0  0  0
   68.4737   44.9256   56.1897 N   0  0  0  0  0  0  0  0  0  0  0  0
   69.0722   46.1145   56.3777 C   0  0  0  0  0  0  0  0  0  0  0  0
   68.6005   47.3552   55.6753 C   0  0  0  0  0  0  0  0  0  0  0  0
   68.5909   47.1538   54.2098 C   0  0  0  0  0  0  0  0  0  0  0  0
   67.8131   46.2109   53.5836 C   0  0  0  0  0  0  0  0  0  0  0  0
   67.8321   46.0510   52.1968 C   0  0  0  0  0  0  0  0  0  0  0  0
   68.6557   46.8621   51.4378 C   0  0  0  0  0  0  0  0  0  0  0  0
   69.4414   47.8119   52.0469 C   0  0  0  0  0  0  0  0  0  0  0  0
   69.4022   47.9489   53.4330 C   0  0  0  0  0  0  0  0  0  0  0  0
  1  2  2  0
  2  3  1  0
  2 16  1  0
  3  4  1  0
  4  5  2  0
  4 14  1  0
  5  6  1  0
  6  7  2  0
  6 11  1  0
  7  8  1  0
  8  9  2  0
  9 10  1  0
 10 11  2  0
 11 12  1  0
 12 13  2  0
 12 14  1  0
 14 15  1  0
 15 16  2  0
 16 17  1  0
 17 18  1  0
 18 19  2  0
 18 23  1  0
 19 20  1  0
 20 21  2  0
 21 22  1  0
 22 23  2  0
M  END
>  <minimizedAffinity>  (10) 
-8.70713

$$$$
data/200k_reference_output/data/smiles/870.pdb
     RDKit          3D

 31 35  0  0  0  0  0  0  0  0999 V2000
   70.5283   42.0881   58.9480 N   0  0  0  0  0  0  0  0  0  0  0  0
   70.9563   43.0415   59.9188 C   0  0  0  0  0  0  0  0  0  0  0  0
   71.5561   44.2703   59.2871 C   0  0  0  0  0  0  0  0  0  0  0  0
   70.6768   44.8589   58.2666 C   0  0  0  0  0  0  0  0  0  0  0  0
   70.5224   46.1495   57.7456 C   0  0  0  0  0  0  0  0  0  0  0  0
   69.5642   46.1132   56.8097 N   0  0  0  0  0  0  0  0  0  0  0  0
   69.1420   44.8654   56.7496 N   0  0  0  0  0  0  0  0  0  0  0  0
   69.7746   44.0646   57.6026 C   0  0  0  0  0  0  0  0  0  0  0  0
   69.6766   42.6224   57.9346 C   0  0  0  0  0  0  0  0  0  0  0  0
   68.8405   41.9221   57.3060 O   0  0  0  0  0  0  0  0  0  0  0  0
   69.5007   37.9026   61.1757 C   0  0  0  0  0  0  0  0  0  0  0  0
   70.2995   38.5092   60.1038 N   0  0  0  0  0  0  0  0  0  0  0  0
   70.1604   39.9171   59.9560 C   0  0  0  0  0  0  0  0  0  0  0  0
   69.3872   40.4897   60.7642 O   0  0  0  0  0  0  0  0  0  0  0  0
   70.8694   40.7204   58.9178 C   0  0  2  0  0  0  0  0  0  0  0  0
   72.3291   40.4066   59.0526 C   0  0  0  0  0  0  0  0  0  0  0  0
   72.6393   39.2378   58.2889 O   0  0  0  0  0  0  0  0  0  0  0  0
   72.1885   37.9310   58.5152 C   0  0  0  0  0  0  0  0  0  0  0  0
   72.8867   36.9615   57.8480 C   0  0  0  0  0  0  0  0  0  0  0  0
   72.4957   35.6572   58.0271 C   0  0  0  0  0  0  0  0  0  0  0  0
   71.4369   35.3027   58.8449 C   0  0  0  0  0  0  0  0  0  0  0  0
   70.7343   36.2809   59.5165 C   0  0  0  0  0  0  0  0  0  0  0  0
   71.1192   37.5949   59.3438 C   0  0  0  0  0  0  0  0  0  0  0  0
   69.1040   47.2477   56.0310 C   0  0  0  0  0  0  0  0  0  0  0  0
   68.7435   46.9059   54.6564 C   0  0  0  0  0  0  0  0  0  0  0  0
   69.2362   47.7130   53.6324 C   0  0  0  0  0  0  0  0  0  0  0  0
   68.9023   47.3983   52.3319 C   0  0  0  0  0  0  0  0  0  0  0  0
   68.0920   46.2984   52.0768 C   0  0  0  0  0  0  0  0  0  0  0  0
   67.7455   45.9615   50.8141 F   0  0  0  0  0  0  0  0  0  0  0  0
   67.6014   45.4948   53.0919 C   0  0  0  0  0  0  0  0  0  0  0  0
   67.9406   45.8172   54.3890 C   0  0  0  0  0  0  0  0  0  0  0  0
 11 12  1  0
 12 13  1  0
 12 23  1  0
 13 14  2  0
 13 15  1  0
 15  1  1  1
 15 16  1  0
  1  2  1  0
  1  9  1  0
  2  3  1  0
  3  4  1  0
  4  5  2  0
  4  8  1  0
  5  6  1  0
  6 24  1  0
  6  7  1  0
 24 25  1  0
 25 26  2  0
 25 31  1  0
 26 27  1  0
 27 28  2  0
 28 29  1  0
 28 30  1  0
 30 31  2  0
  7  8  2  0
  8  9  1  0
  9 10  2  0
 16 17  1  0
 17 18  1  0
 18 19  2  0
 18 23  1  0
 19 20  1  0
 20 21  2  0
 21 22  1  0
 22 23  2  0
M  END
>  <minimizedAffinity>  (11) 
-8.84780

$$$$
data/200k_reference_output/data/smiles/959.pdb
     RDKit          3D

 25 27  0  0  0  0  0  0  0  0999 V2000
   69.0577   48.0474   56.3512 C   0  0  0  0  0  0  0  0  0  0  0  0
   69.4298   48.1940   54.9878 N   0  0  0  0  0  0  0  0  0  0  0  0
   70.2985   49.2062   54.6682 C   0  0  0  0  0  0  0  0  0  0  0  0
   70.7385   49.8825   55.6265 O   0  0  0  0  0  0  0  0  0  0  0  0
   70.6335   49.4283   53.4042 N   0  0  0  0  0  0  0  0  0  0  0  0
   70.1584   48.7021   52.3949 C   0  0  0  0  0  0  0  0  0  0  0  0
   70.4685   48.9018   51.1877 O   0  0  0  0  0  0  0  0  0  0  0  0
   69.2812   47.6740   52.6567 C   0  0  0  0  0  0  0  0  0  0  0  0
   68.7542   46.9271   51.6104 C   0  0  0  0  0  0  0  0  0  0  0  0
   67.8602   45.9354   51.9275 C   0  0  0  0  0  0  0  0  0  0  0  0
   67.4921   45.6810   53.2256 C   0  0  0  0  0  0  0  0  0  0  0  0
   68.0185   46.4224   54.2354 C   0  0  0  0  0  0  0  0  0  0  0  0
   68.9246   47.4364   53.9948 C   0  0  0  0  0  0  0  0  0  0  0  0
   70.0545   47.3231   57.1873 C   0  0  0  0  0  0  0  0  0  0  0  0
   69.6498   44.9443   56.5963 N   0  0  0  0  0  0  0  0  0  0  0  0
   69.8335   45.9614   57.6105 C   0  0  0  0  0  0  0  0  0  0  0  0
   69.7784   45.5353   58.7723 O   0  0  0  0  0  0  0  0  0  0  0  0
   68.9143   39.5379   58.2678 C   0  0  0  0  0  0  0  0  0  0  0  0
   69.0856   40.9444   57.8207 C   0  0  0  0  0  0  0  0  0  0  0  0
   70.1668   41.6973   58.2100 C   0  0  0  0  0  0  0  0  0  0  0  0
   70.3462   42.9965   57.8095 C   0  0  0  0  0  0  0  0  0  0  0  0
   69.4328   43.6137   56.9846 C   0  0  0  0  0  0  0  0  0  0  0  0
   68.3389   42.8763   56.5814 C   0  0  0  0  0  0  0  0  0  0  0  0
   67.3963   43.4723   55.7461 O   0  0  0  0  0  0  0  0  0  0  0  0
   68.1658   41.5704   56.9877 C   0  0  0  0  0  0  0  0  0  0  0  0
 18 19  1  0
 19 20  2  0
 19 25  1  0
 20 21  1  0
 21 22  2  0
 22 15  1  0
 22 23  1  0
 15 16  1  0
 16 17  2  0
 16 14  1  0
 14  1  1  0
  1  2  1  0
  2  3  1  0
  2 13  1  0
  3  4  2  0
  3  5  1  0
  5  6  1  0
  6  7  2  0
  6  8  1  0
  8  9  1  0
  8 13  2  0
  9 10  2  0
 10 11  1  0
 11 12  2  0
 12 13  1  0
 23 24  1  0
 23 25  2  0
M  END
>  <minimizedAffinity>  (12) 
-9.35261

$$$$
data/200k_reference_output/data/smiles/1054.pdb
     RDKit          3D

 20 22  0  0  0  0  0  0  0  0999 V2000
   70.0564   48.5448   54.9811 C   0  0  0  0  0  0  0  0  0  0  0  0
   70.9153   49.3954   54.3452 N   0  0  0  0  0  0  0  0  0  0  0  0
   71.0512   49.4504   53.0418 N   0  0  0  0  0  0  0  0  0  0  0  0
   70.3545   48.6703   52.2019 C   0  0  0  0  0  0  0  0  0  0  0  0
   70.4775   48.7174   50.9506 O   0  0  0  0  0  0  0  0  0  0  0  0
   69.4643   47.7772   52.7378 C   0  0  0  0  0  0  0  0  0  0  0  0
   68.7198   46.9216   51.9451 C   0  0  0  0  0  0  0  0  0  0  0  0
   67.8431   46.0124   52.4909 C   0  0  0  0  0  0  0  0  0  0  0  0
   67.6983   45.9461   53.8504 C   0  0  0  0  0  0  0  0  0  0  0  0
   68.4458   46.8052   54.6429 C   0  0  0  0  0  0  0  0  0  0  0  0
   69.3366   47.7357   54.1267 C   0  0  0  0  0  0  0  0  0  0  0  0
   69.8958   48.5683   56.4444 C   0  0  0  0  0  0  0  0  0  0  0  0
   68.6156   50.6677   56.7379 C   0  0  0  0  0  0  0  0  0  0  0  0
   67.4788   51.3837   57.1405 C   0  0  0  0  0  0  0  0  0  0  0  0
   66.4031   50.7657   57.7266 C   0  0  0  0  0  0  0  0  0  0  0  0
   66.4978   49.3986   57.9004 C   0  0  0  0  0  0  0  0  0  0  0  0
   67.6008   48.6934   57.5115 C   0  0  0  0  0  0  0  0  0  0  0  0
   68.6780   49.2941   56.9252 C   0  0  0  0  0  0  0  0  0  0  0  0
   69.4234   52.5412   55.2696 C   0  0  0  0  0  0  0  0  0  0  0  0
   69.6536   51.4699   56.2202 N   0  0  0  0  0  0  0  0  0  0  0  0
 19 20  1  0
 20 13  1  0
 13 14  2  0
 13 18  1  0
 14 15  1  0
 15 16  2  0
 16 17  1  0
 17 18  2  0
 18 12  1  0
 12  1  1  0
  1  2  2  0
  1 11  1  0
  2  3  1  0
  3  4  1  0
  4  5  2  0
  4  6  1  0
  6  7  1  0
  6 11  2  0
  7  8  2  0
  8  9  1  0
  9 10  2  0
 10 11  1  0
M  END
>  <minimizedAffinity>  (13) 
-8.68205

$$$$
data/200k_reference_output/data/smiles/1070.pdb
     RDKit          3D

 21 23  0  0  0  0  0  0  0  0999 V2000
   70.5807   49.6272   54.2389 C   0  0  0  0  0  0  0  0  0  0  0  0
   69.7218   48.7241   54.8187 C   0  0  0  0  0  0  0  0  0  0  0  0
   69.0896   47.7634   54.0232 C   0  0  0  0  0  0  0  0  0  0  0  0
   68.2187   46.8255   54.5244 C   0  0  0  0  0  0  0  0  0  0  0  0
   67.6127   45.8914   53.7077 C   0  0  0  0  0  0  0  0  0  0  0  0
   67.9121   45.9287   52.3460 C   0  0  0  0  0  0  0  0  0  0  0  0
   68.7867   46.8758   51.8659 C   0  0  0  0  0  0  0  0  0  0  0  0
   69.3967   47.8118   52.6743 C   0  0  0  0  0  0  0  0  0  0  0  0
   70.2656   48.7390   52.1419 C   0  0  0  0  0  0  0  0  0  0  0  0
   70.5185   48.7504   50.9136 O   0  0  0  0  0  0  0  0  0  0  0  0
   70.8123   49.6026   52.9652 O   0  0  0  0  0  0  0  0  0  0  0  0
   71.2432   50.6363   55.0841 C   0  0  0  0  0  0  0  0  0  0  0  0
   70.8115   52.0257   54.5980 C   0  0  0  0  0  0  0  0  0  0  0  0
   69.4503   52.1625   54.8724 O   0  0  0  0  0  0  0  0  0  0  0  0
   69.1534   53.5956   56.5848 O   0  0  0  0  0  0  0  0  0  0  0  0
   68.9051   52.4624   56.1017 C   0  0  0  0  0  0  0  0  0  0  0  0
   68.0667   51.5323   56.8494 C   0  0  0  0  0  0  0  0  0  0  0  0
   68.5078   50.4760   57.6182 C   0  0  0  0  0  0  0  0  0  0  0  0
   67.4030   49.8472   58.1550 C   0  0  0  0  0  0  0  0  0  0  0  0
   66.3218   50.5597   57.6819 C   0  0  0  0  0  0  0  0  0  0  0  0
   66.7684   51.5364   56.9225 O   0  0  0  0  0  0  0  0  0  0  0  0
 15 16  2  0
 16 14  1  0
 16 17  1  0
 14 13  1  0
 13 12  1  0
 12  1  1  0
  1  2  2  0
  1 11  1  0
  2  3  1  0
  3  4  2  0
  3  8  1  0
  4  5  1  0
  5  6  2  0
  6  7  1  0
  7  8  2  0
  8  9  1  0
  9 10  2  0
  9 11  1  0
 17 18  2  0
 17 21  1  0
 18 19  1  0
 19 20  2  0
 20 21  1  0
M  END
>  <minimizedAffinity>  (14) 
-8.54179

$$$$
data/200k_reference_output/data/smiles/1172.pdb
     RDKit          3D

 28 31  0  0  0  0  0  0  0  0999 V2000
   70.8233   45.8902   58.1306 C   0  0  0  0  0  0  0  0  0  0  0  0
   69.9705   46.5395   57.2768 C   0  0  0  0  0  0  0  0  0  0  0  0
   69.7952   47.9086   57.2108 C   0  0  0  0  0  0  0  0  0  0  0  0
   70.5603   48.6543   58.0946 C   0  0  0  0  0  0  0  0  0  0  0  0
   71.4340   48.0987   58.9783 C   0  0  0  0  0  0  0  0  0  0  0  0
   71.5572   46.7272   58.9879 C   0  0  0  0  0  0  0  0  0  0  0  0
   72.7818   45.9309   60.2252 Br  0  0  0  0  0  0  0  0  0  0  0  0
   69.3599   44.0495   59.7274 O   0  0  0  0  0  0  0  0  0  0  0  0
   70.3046   43.6209   59.0388 C   0  0  0  0  0  0  0  0  0  0  0  0
   71.0410   44.5187   58.2405 N   0  0  0  0  0  0  0  0  0  0  0  0
   70.6519   42.1452   59.0645 C   0  0  1  0  0  0  0  0  0  0  0  0
   71.7650   41.9439   58.0668 C   0  0  0  0  0  0  0  0  0  0  0  0
   72.8575   41.2553   58.8504 C   0  0  0  0  0  0  0  0  0  0  0  0
   72.7176   41.8050   60.1664 N   0  0  0  0  0  0  0  0  0  0  0  0
   71.2832   41.7660   60.3694 C   0  0  0  0  0  0  0  0  0  0  0  0
   68.8603   48.5793   56.2914 C   0  0  0  0  0  0  0  0  0  0  0  0
   69.2657   48.5544   54.9184 N   0  0  0  0  0  0  0  0  0  0  0  0
   70.1195   49.4953   54.4675 C   0  0  0  0  0  0  0  0  0  0  0  0
   70.5618   50.3920   55.2645 O   0  0  0  0  0  0  0  0  0  0  0  0
   70.5689   49.5856   53.2040 N   0  0  0  0  0  0  0  0  0  0  0  0
   70.1803   48.7116   52.2806 C   0  0  0  0  0  0  0  0  0  0  0  0
   70.5601   48.7350   51.0863 O   0  0  0  0  0  0  0  0  0  0  0  0
   69.2993   47.7151   52.6716 C   0  0  0  0  0  0  0  0  0  0  0  0
   68.8485   46.7955   51.7525 C   0  0  0  0  0  0  0  0  0  0  0  0
   67.9615   45.8298   52.1526 C   0  0  0  0  0  0  0  0  0  0  0  0
   67.5215   45.7722   53.4572 C   0  0  0  0  0  0  0  0  0  0  0  0
   67.9767   46.6952   54.3732 C   0  0  0  0  0  0  0  0  0  0  0  0
   68.8553   47.6547   53.9937 C   0  0  0  0  0  0  0  0  0  0  0  0
  8  9  2  0
  9 10  1  0
 11  9  1  1
 10  1  1  0
  1  2  2  0
  1  6  1  0
  2  3  1  0
  3 16  1  0
  3  4  2  0
 16 17  1  0
 17 18  1  0
 17 28  1  0
 18 19  2  0
 18 20  1  0
 20 21  1  0
 21 22  2  0
 21 23  1  0
 23 24  1  0
 23 28  2  0
 24 25  2  0
 25 26  1  0
 26 27  2  0
 27 28  1  0
  4  5  1  0
  5  6  2  0
  6  7  1  0
 11 12  1  0
 11 15  1  0
 12 13  1  0
 13 14  1  0
 14 15  1  0
M  CHG  1  14   1
M  END
>  <minimizedAffinity>  (15) 
-8.91134

$$$$
data/200k_reference_output/data/smiles/1186.pdb
     RDKit          3D

 30 34  0  0  0  0  0  0  0  0999 V2000
   68.0734   44.6877   55.1304 C   0  0  0  0  0  0  0  0  0  0  0  0
   68.5427   45.9597   55.3780 C   0  0  0  0  0  0  0  0  0  0  0  0
   68.5368   46.9663   54.4296 C   0  0  0  0  0  0  0  0  0  0  0  0
   68.0363   46.6661   53.1901 C   0  0  0  0  0  0  0  0  0  0  0  0
   67.5653   45.3961   52.9384 C   0  0  0  0  0  0  0  0  0  0  0  0
   67.5912   44.4362   53.9025 N   0  0  0  0  0  0  0  0  0  0  0  0
   69.0397   48.3049   54.7155 C   0  0  0  0  0  0  0  0  0  0  0  0
   69.4199   49.2343   53.7721 C   0  0  0  0  0  0  0  0  0  0  0  0
   69.8447   50.3883   54.4048 C   0  0  0  0  0  0  0  0  0  0  0  0
   69.7119   50.1340   55.7663 C   0  0  0  0  0  0  0  0  0  0  0  0
   69.2334   48.8908   55.9053 N   0  0  0  0  0  0  0  0  0  0  0  0
   70.0752   51.1455   56.7927 C   0  0  2  0  0  0  0  0  0  0  0  0
   71.4613   50.8822   57.3379 C   0  0  0  0  0  0  0  0  0  0  0  0
   71.2370   49.9436   58.5054 C   0  0  0  0  0  0  0  0  0  0  0  0
   69.8581   50.0493   58.8750 N   0  0  0  0  0  0  0  0  0  0  0  0
   69.2021   50.9798   58.0041 C   0  0  0  0  0  0  0  0  0  0  0  0
   70.0244   52.5260   56.2236 C   0  0  0  0  0  0  0  0  0  0  0  0
   70.6811   52.6198   54.9426 N   0  0  0  0  0  0  0  0  0  0  0  0
   70.3467   51.6746   53.9437 C   0  0  0  0  0  0  0  0  0  0  0  0
   70.4791   51.9386   52.7452 O   0  0  0  0  0  0  0  0  0  0  0  0
   66.5908   42.3319   55.1400 O   0  0  0  0  0  0  0  0  0  0  0  0
   67.3457   42.5079   56.1300 C   0  0  0  0  0  0  0  0  0  0  0  0
   68.1069   43.6945   56.1495 N   0  0  0  0  0  0  0  0  0  0  0  0
   67.3829   41.4922   57.1765 C   0  0  0  0  0  0  0  0  0  0  0  0
   68.1104   40.3313   57.0011 C   0  0  0  0  0  0  0  0  0  0  0  0
   68.1674   39.3495   57.9712 C   0  0  0  0  0  0  0  0  0  0  0  0
   67.4931   39.4907   59.1659 C   0  0  0  0  0  0  0  0  0  0  0  0
   67.5497   38.5222   60.1239 F   0  0  0  0  0  0  0  0  0  0  0  0
   66.7625   40.6441   59.3562 C   0  0  0  0  0  0  0  0  0  0  0  0
   66.7168   41.6146   58.3762 C   0  0  0  0  0  0  0  0  0  0  0  0
 21 22  2  0
 22 23  1  0
 22 24  1  0
 23  1  1  0
  1  2  2  0
  1  6  1  0
  2  3  1  0
  3  7  1  0
  3  4  2  0
  7  8  2  0
  7 11  1  0
  8  9  1  0
  9 10  2  0
  9 19  1  0
 10 11  1  0
 12 10  1  0
 12 13  1  1
 12 16  1  0
 12 17  1  0
 13 14  1  0
 14 15  1  0
 15 16  1  0
 17 18  1  0
 18 19  1  0
 19 20  2  0
  4  5  1  0
  5  6  2  0
 24 25  2  0
 24 30  1  0
 25 26  1  0
 26 27  2  0
 27 28  1  0
 27 29  1  0
 29 30  2  0
M  CHG  1  15   1
M  END
>  <minimizedAffinity>  (16) 
-8.54242

$$$$
data/200k_reference_output/data/smiles/1523.pdb
     RDKit          3D

 25 26  0  0  0  0  0  0  0  0999 V2000
   67.9977   42.2143   56.4559 C   0  0  0  0  0  0  0  0  0  0  0  0
   66.5570   42.1660   55.7302 S   0  0  0  0  0  0  0  0  0  0  0  0
   67.2248   40.7170   58.6113 O   0  0  0  0  0  0  0  0  0  0  0  0
   68.2275   40.2671   58.0038 C   0  0  0  0  0  0  0  0  0  0  0  0
   68.6650   41.0037   56.8747 N   0  0  0  0  0  0  0  0  0  0  0  0
   68.8705   39.0466   58.4779 C   0  0  0  0  0  0  0  0  0  0  0  0
   70.1291   38.7434   58.2878 C   0  0  0  0  0  0  0  0  0  0  0  0
   70.8167   37.5487   58.7337 C   0  0  0  0  0  0  0  0  0  0  0  0
   70.4675   36.8034   59.8302 C   0  0  0  0  0  0  0  0  0  0  0  0
   71.1914   35.6577   60.1889 C   0  0  0  0  0  0  0  0  0  0  0  0
   72.2801   35.2397   59.4508 C   0  0  0  0  0  0  0  0  0  0  0  0
   72.9690   34.1187   59.8258 F   0  0  0  0  0  0  0  0  0  0  0  0
   72.6285   35.9835   58.3576 C   0  0  0  0  0  0  0  0  0  0  0  0
   71.9207   37.1200   57.9906 C   0  0  0  0  0  0  0  0  0  0  0  0
   68.6463   43.4586   56.6646 N   0  0  0  0  0  0  0  0  0  0  0  0
   68.2284   44.6746   56.0996 N   0  0  0  0  0  0  0  0  0  0  0  0
   69.0060   45.8626   56.3003 C   0  0  0  0  0  0  0  0  0  0  0  0
   70.0636   45.7665   57.0040 O   0  0  0  0  0  0  0  0  0  0  0  0
   68.6609   47.1806   55.7417 C   0  0  0  0  0  0  0  0  0  0  0  0
   68.6769   47.1206   54.2311 C   0  0  0  0  0  0  0  0  0  0  0  0
   69.4528   47.9196   53.4486 C   0  0  0  0  0  0  0  0  0  0  0  0
   69.3977   47.7513   52.0611 C   0  0  0  0  0  0  0  0  0  0  0  0
   68.5739   46.7944   51.4989 C   0  0  0  0  0  0  0  0  0  0  0  0
   67.7917   45.9907   52.2959 C   0  0  0  0  0  0  0  0  0  0  0  0
   67.8536   46.1669   53.6848 C   0  0  0  0  0  0  0  0  0  0  0  0
  3  4  2  0
  4  6  1  0
  4  5  1  0
  6  7  2  0
  7  8  1  0
  8  9  2  0
  8 14  1  0
  9 10  1  0
 10 11  2  0
 11 12  1  0
 11 13  1  0
 13 14  2  0
  5  1  1  0
  1  2  2  0
  1 15  1  0
 15 16  1  0
 16 17  1  0
 17 18  2  0
 17 19  1  0
 19 20  1  0
 20 21  2  0
 20 25  1  0
 21 22  1  0
 22 23  2  0
 23 24  1  0
 24 25  2  0
M  END
>  <minimizedAffinity>  (17) 
-8.73823

$$$$
data/200k_reference_output/data/smiles/1553.pdb
     RDKit          3D

 24 26  0  0  0  0  0  0  0  0999 V2000
   67.4536   42.0671   56.4975 C   0  0  0  0  0  0  0  0  0  0  0  0
   67.3171   41.3503   55.5101 O   0  0  0  0  0  0  0  0  0  0  0  0
   67.7913   43.4153   56.4222 N   0  0  0  0  0  0  0  0  0  0  0  0
   68.0267   44.1696   55.2916 N   0  0  0  0  0  0  0  0  0  0  0  0
   68.1593   45.5355   55.0915 C   0  0  0  0  0  0  0  0  0  0  0  0
   68.0481   46.2631   56.1349 O   0  0  0  0  0  0  0  0  0  0  0  0
   68.4093   46.2602   53.8551 C   0  0  0  0  0  0  0  0  0  0  0  0
   69.2406   47.3893   53.8840 C   0  0  0  0  0  0  0  0  0  0  0  0
   69.5388   48.1404   52.7696 C   0  0  0  0  0  0  0  0  0  0  0  0
   69.0186   47.8067   51.5414 C   0  0  0  0  0  0  0  0  0  0  0  0
   68.2027   46.7082   51.4765 C   0  0  0  0  0  0  0  0  0  0  0  0
   67.9040   45.9452   52.6260 C   0  0  0  0  0  0  0  0  0  0  0  0
   67.0696   44.8452   52.4874 O   0  0  0  0  0  0  0  0  0  0  0  0
   67.2424   41.4471   57.8662 C   0  0  0  0  0  0  0  0  0  0  0  0
   73.7167   40.5665   59.2136 C   0  0  0  0  0  0  0  0  0  0  0  0
   72.2570   40.5542   58.9187 C   0  0  0  0  0  0  0  0  0  0  0  0
   71.6281   41.7882   58.7416 C   0  0  0  0  0  0  0  0  0  0  0  0
   70.2912   41.8146   58.4704 C   0  0  0  0  0  0  0  0  0  0  0  0
   69.6030   40.6300   58.3786 C   0  0  0  0  0  0  0  0  0  0  0  0
   68.2633   40.4045   58.1164 C   0  0  0  0  0  0  0  0  0  0  0  0
   68.1179   39.0317   58.1418 C   0  0  0  0  0  0  0  0  0  0  0  0
   69.2900   38.4939   58.4016 O   0  0  0  0  0  0  0  0  0  0  0  0
   70.2081   39.4023   58.5504 C   0  0  0  0  0  0  0  0  0  0  0  0
   71.5567   39.3726   58.8249 C   0  0  0  0  0  0  0  0  0  0  0  0
 15 16  1  0
 16 17  2  0
 16 24  1  0
 17 18  1  0
 18 19  2  0
 19 20  1  0
 19 23  1  0
 20 14  1  0
 20 21  2  0
 14  1  1  0
  1  2  2  0
  1  3  1  0
  3  4  1  0
  4  5  1  0
  5  6  2  0
  5  7  1  0
  7  8  2  0
  7 12  1  0
  8  9  1  0
  9 10  2  0
 10 11  1  0
 11 12  2  0
 12 13  1  0
 21 22  1  0
 22 23  1  0
 23 24  2  0
M  END
>  <minimizedAffinity>  (18) 
-8.56591

$$$$
data/200k_reference_output/data/smiles/1758.pdb
     RDKit          3D

 28 31  0  0  0  0  0  0  0  0999 V2000
   70.7979   39.3467   58.5043 C   0  0  0  0  0  0  0  0  0  0  0  0
   69.4593   39.1448   58.6354 N   0  0  0  0  0  0  0  0  0  0  0  0
   68.7934   40.2739   58.5243 N   0  0  0  0  0  0  0  0  0  0  0  0
   69.6375   41.3013   58.3117 C   0  0  0  0  0  0  0  0  0  0  0  0
   69.5141   42.6698   58.1265 C   0  0  0  0  0  0  0  0  0  0  0  0
   70.6000   43.4948   57.9266 C   0  0  0  0  0  0  0  0  0  0  0  0
   71.8065   42.8965   57.9198 N   0  0  0  0  0  0  0  0  0  0  0  0
   71.9672   41.5610   58.0980 C   0  0  0  0  0  0  0  0  0  0  0  0
   70.8910   40.7207   58.2996 C   0  0  0  0  0  0  0  0  0  0  0  0
   72.9910   35.3048   56.6629 C   0  0  0  0  0  0  0  0  0  0  0  0
   72.9293   36.4175   57.6533 C   0  0  0  0  0  0  0  0  0  0  0  0
   71.9249   37.3563   57.6408 C   0  0  0  0  0  0  0  0  0  0  0  0
   71.8776   38.3778   58.5609 C   0  0  0  0  0  0  0  0  0  0  0  0
   72.9013   38.3848   59.4836 C   0  0  0  0  0  0  0  0  0  0  0  0
   73.9003   37.4352   59.4823 C   0  0  0  0  0  0  0  0  0  0  0  0
   73.9066   36.4567   58.5654 N   0  0  0  0  0  0  0  0  0  0  0  0
   70.4870   44.9003   57.7250 N   0  0  0  0  0  0  0  0  0  0  0  0
   69.4550   45.4216   56.8588 C   0  0  0  0  0  0  0  0  0  0  0  0
   68.7260   44.5544   56.3375 O   0  0  0  0  0  0  0  0  0  0  0  0
   69.3132   46.8121   56.6431 N   0  0  0  0  0  0  0  0  0  0  0  0
   68.2761   47.3065   55.7739 C   0  0  0  0  0  0  0  0  0  0  0  0
   68.5927   47.2630   54.3395 C   0  0  0  0  0  0  0  0  0  0  0  0
   67.9638   46.3251   53.5347 C   0  0  0  0  0  0  0  0  0  0  0  0
   68.2186   46.2537   52.1873 C   0  0  0  0  0  0  0  0  0  0  0  0
   69.1238   47.1350   51.6036 C   0  0  0  0  0  0  0  0  0  0  0  0
   69.7058   48.0221   52.4135 N   0  0  0  0  0  0  0  0  0  0  0  0
   70.6073   48.8904   51.7957 O   0  0  0  0  0  0  0  0  0  0  0  0
   69.4837   48.1234   53.7354 C   0  0  0  0  0  0  0  0  0  0  0  0
 10 11  1  0
 11 12  2  0
 11 16  1  0
 12 13  1  0
 13  1  1  0
 13 14  2  0
  1  2  2  0
  1  9  1  0
  2  3  1  0
  3  4  1  0
  4  5  1  0
  4  9  2  0
  5  6  2  0
  6 17  1  0
  6  7  1  0
 17 18  1  0
 18 19  2  0
 18 20  1  0
 20 21  1  0
 21 22  1  0
 22 23  2  0
 22 28  1  0
 23 24  1  0
 24 25  2  0
 25 26  1  0
 26 27  1  0
 26 28  2  0
  7  8  2  0
  8  9  1  0
 14 15  1  0
 15 16  2  0
M  CHG  2  26   1  27  -1
M  END
>  <minimizedAffinity>  (19) 
-8.86183

$$$$
data/200k_reference_output/data/smiles/1767.pdb
     RDKit          3D

 25 28  0  0  0  0  0  0  0  0999 V2000
   69.6820   49.6103   50.9439 O   0  0  0  0  0  0  0  0  0  0  0  0
   69.7984   49.3453   52.1771 C   0  0  0  0  0  0  0  0  0  0  0  0
   70.4675   50.1846   53.0542 O   0  0  0  0  0  0  0  0  0  0  0  0
   70.6001   49.9057   54.3962 C   0  0  0  0  0  0  0  0  0  0  0  0
   71.2067   50.6582   55.2130 O   0  0  0  0  0  0  0  0  0  0  0  0
   69.9877   48.6485   54.8803 C   0  0  0  0  0  0  0  0  0  0  0  0
   70.1108   48.3619   56.2015 C   0  0  0  0  0  0  0  0  0  0  0  0
   69.5566   47.1932   56.7200 C   0  0  0  0  0  0  0  0  0  0  0  0
   68.8954   46.3681   55.8427 C   0  0  0  0  0  0  0  0  0  0  0  0
   68.7553   46.6388   54.4835 C   0  0  0  0  0  0  0  0  0  0  0  0
   68.0732   45.7514   53.6775 C   0  0  0  0  0  0  0  0  0  0  0  0
   67.9751   46.0878   52.3388 C   0  0  0  0  0  0  0  0  0  0  0  0
   68.5336   47.2505   51.8580 C   0  0  0  0  0  0  0  0  0  0  0  0
   69.2054   48.1158   52.6783 C   0  0  0  0  0  0  0  0  0  0  0  0
   69.3207   47.8074   54.0194 C   0  0  0  0  0  0  0  0  0  0  0  0
   69.6987   46.9180   58.1071 N   0  0  0  0  0  0  0  0  0  0  0  0
   71.2647   46.5856   58.7444 S   0  0  0  0  0  0  0  0  0  0  0  0
   71.2723   46.6465   60.2439 O   0  0  0  0  0  0  0  0  0  0  0  0
   72.2882   47.4972   58.1577 O   0  0  0  0  0  0  0  0  0  0  0  0
   71.6490   44.9226   58.2718 C   0  0  0  0  0  0  0  0  0  0  0  0
   70.6491   43.9768   58.1069 C   0  0  0  0  0  0  0  0  0  0  0  0
   70.9189   42.6768   57.7398 C   0  0  0  0  0  0  0  0  0  0  0  0
   72.2315   42.2838   57.5239 C   0  0  0  0  0  0  0  0  0  0  0  0
   73.2430   43.2206   57.6854 C   0  0  0  0  0  0  0  0  0  0  0  0
   72.9439   44.5136   58.0533 C   0  0  0  0  0  0  0  0  0  0  0  0
  1  2  2  0
  2  3  1  0
  2 14  1  0
  3  4  1  0
  4  5  2  0
  4  6  1  0
  6  7  1  0
  6 15  2  0
  7  8  2  0
  8 16  1  0
  8  9  1  0
 16 17  1  0
 17 18  2  0
 17 19  2  0
 17 20  1  0
 20 21  2  0
 20 25  1  0
 21 22  1  0
 22 23  2  0
 23 24  1  0
 24 25  2  0
  9 10  2  0
 10 11  1  0
 10 15  1  0
 11 12  2  0
 12 13  1  0
 13 14  2  0
 14 15  1  0
M  END
>  <minimizedAffinity>  (20) 
-8.65778

$$$$
data/200k_reference_output/data/smiles/1835.pdb
     RDKit          3D

 28 31  0  0  0  0  0  0  0  0999 V2000
   73.0387   47.0927   60.1083 C   0  0  0  0  0  0  0  0  0  0  0  0
   72.4757   48.2763   59.6713 C   0  0  0  0  0  0  0  0  0  0  0  0
   71.3721   48.3129   58.8438 C   0  0  0  0  0  0  0  0  0  0  0  0
   70.7679   47.1544   58.4034 C   0  0  0  0  0  0  0  0  0  0  0  0
   69.6732   46.8854   57.5851 C   0  0  0  0  0  0  0  0  0  0  0  0
   69.5984   45.5475   57.5443 N   0  0  0  0  0  0  0  0  0  0  0  0
   70.5617   45.0052   58.2743 N   0  0  0  0  0  0  0  0  0  0  0  0
   71.3224   45.9657   58.8336 C   0  0  0  0  0  0  0  0  0  0  0  0
   72.4285   45.9363   59.6631 C   0  0  0  0  0  0  0  0  0  0  0  0
   74.2004   47.5811   62.2779 C   0  0  0  0  0  0  0  0  0  0  0  0
   73.1009   48.0810   62.6963 O   0  0  0  0  0  0  0  0  0  0  0  0
   74.1786   47.0755   60.9635 N   0  0  0  0  0  0  0  0  0  0  0  0
   75.3423   47.5839   63.1845 C   0  0  0  0  0  0  0  0  0  0  0  0
   74.9420   47.3043   65.5837 N   0  0  0  0  0  0  0  0  0  0  0  0
   75.1470   46.6187   64.3339 C   0  0  0  0  0  0  0  0  0  0  0  0
   68.6608   48.0858   56.8116 S   0  0  0  0  0  0  0  0  0  0  0  0
   68.6792   49.3070   57.7078 O   0  0  0  0  0  0  0  0  0  0  0  0
   67.2374   47.5568   56.7492 O   0  0  0  0  0  0  0  0  0  0  0  0
   69.1678   48.4409   55.2052 C   0  0  0  0  0  0  0  0  0  0  0  0
   69.9150   49.5292   54.8276 C   0  0  0  0  0  0  0  0  0  0  0  0
   70.2991   49.7763   53.5310 C   0  0  0  0  0  0  0  0  0  0  0  0
   69.9228   48.9005   52.5567 C   0  0  0  0  0  0  0  0  0  0  0  0
   69.1693   47.7881   52.8779 C   0  0  0  0  0  0  0  0  0  0  0  0
   68.8107   46.9293   51.8629 C   0  0  0  0  0  0  0  0  0  0  0  0
   68.0589   45.8041   52.1315 C   0  0  0  0  0  0  0  0  0  0  0  0
   67.6829   45.5728   53.4422 C   0  0  0  0  0  0  0  0  0  0  0  0
   68.0406   46.4289   54.4467 C   0  0  0  0  0  0  0  0  0  0  0  0
   68.7947   47.5642   54.2058 C   0  0  0  0  0  0  0  0  0  0  0  0
 14 15  1  0
 15 13  1  0
 13 10  1  0
 10 11  2  0
 10 12  1  0
 12  1  1  0
  1  2  2  0
  1  9  1  0
  2  3  1  0
  3  4  2  0
  4  5  1  0
  4  8  1  0
  5 16  1  0
  5  6  2  0
 16 17  2  0
 16 18  2  0
 16 19  1  0
 19 20  2  0
 19 28  1  0
 20 21  1  0
 21 22  2  0
 22 23  1  0
 23 24  1  0
 23 28  2  0
 24 25  2  0
 25 26  1  0
 26 27  2  0
 27 28  1  0
  6  7  1  0
  7  8  1  0
  8  9  2  0
M  CHG  1  14   1
M  END
>  <minimizedAffinity>  (21) 
-9.21285

$$$$
data/200k_reference_output/data/smiles/1910.pdb
     RDKit          3D

 28 31  0  0  0  0  0  0  0  0999 V2000
   69.4081   40.5198   58.4953 N   0  0  0  0  0  0  0  0  0  0  0  0
   69.7129   41.6801   59.2989 C   0  0  0  0  0  0  0  0  0  0  0  0
   70.3071   42.7054   58.3231 C   0  0  0  0  0  0  0  0  0  0  0  0
   69.2924   43.0752   57.3147 C   0  0  0  0  0  0  0  0  0  0  0  0
   69.0400   44.2471   56.6200 C   0  0  0  0  0  0  0  0  0  0  0  0
   67.9587   43.9165   55.8173 N   0  0  0  0  0  0  0  0  0  0  0  0
   67.6016   42.6771   56.0114 N   0  0  0  0  0  0  0  0  0  0  0  0
   68.3792   42.0905   56.9237 C   0  0  0  0  0  0  0  0  0  0  0  0
   68.4068   40.7625   57.5070 C   0  0  0  0  0  0  0  0  0  0  0  0
   67.6098   39.8454   57.1867 O   0  0  0  0  0  0  0  0  0  0  0  0
   71.9495   35.4081   59.1237 C   0  0  0  0  0  0  0  0  0  0  0  0
   71.2860   36.7276   58.9723 C   0  0  0  0  0  0  0  0  0  0  0  0
   71.8435   37.7245   58.2097 C   0  0  0  0  0  0  0  0  0  0  0  0
   71.2489   38.9791   58.0436 C   0  0  0  0  0  0  0  0  0  0  0  0
   70.0604   39.2600   58.6515 C   0  0  0  0  0  0  0  0  0  0  0  0
   69.4913   38.2645   59.4199 C   0  0  0  0  0  0  0  0  0  0  0  0
   70.0867   37.0281   59.5785 C   0  0  0  0  0  0  0  0  0  0  0  0
   69.6301   45.5200   56.6207 N   0  0  0  0  0  0  0  0  0  0  0  0
   68.9613   46.9584   56.0249 S   0  0  0  0  0  0  0  0  0  0  0  0
   69.6612   48.2069   56.4834 O   0  0  0  0  0  0  0  0  0  0  0  0
   67.5302   47.1291   56.5717 O   0  0  0  0  0  0  0  0  0  0  0  0
   68.7597   46.8704   54.2956 C   0  0  0  0  0  0  0  0  0  0  0  0
   67.9256   45.9360   53.7237 C   0  0  0  0  0  0  0  0  0  0  0  0
   67.7315   45.8615   52.3496 C   0  0  0  0  0  0  0  0  0  0  0  0
   68.4170   46.7716   51.5767 C   0  0  0  0  0  0  0  0  0  0  0  0
   69.2585   47.7222   52.0935 C   0  0  0  0  0  0  0  0  0  0  0  0
   69.4271   47.7681   53.4505 C   0  0  0  0  0  0  0  0  0  0  0  0
   70.2447   48.6836   54.0334 F   0  0  0  0  0  0  0  0  0  0  0  0
 11 12  1  0
 12 13  2  0
 12 17  1  0
 13 14  1  0
 14 15  2  0
 15  1  1  0
 15 16  1  0
  1  2  1  0
  1  9  1  0
  2  3  1  0
  3  4  1  0
  4  5  1  0
  4  8  2  0
  5 18  1  0
  5  6  2  0
 18 19  1  0
 19 20  2  0
 19 21  2  0
 19 22  1  0
 22 23  2  0
 22 27  1  0
 23 24  1  0
 24 25  2  0
 25 26  1  0
 26 27  2  0
 27 28  1  0
  6  7  1  0
  7  8  1  0
  8  9  1  0
  9 10  2  0
 16 17  2  0
M  END
>  <minimizedAffinity>  (22) 
-9.78601

$$$$
data/200k_reference_output/data/smiles/1912.pdb
     RDKit          3D

 22 24  0  0  0  0  0  0  0  0999 V2000
   68.5632   44.8792   55.5033 N   0  0  0  0  0  0  0  0  0  0  0  0
   68.2391   45.0165   54.2101 C   0  0  0  0  0  0  0  0  0  0  0  0
   68.3255   46.2429   53.5530 C   0  0  0  0  0  0  0  0  0  0  0  0
   68.7481   47.3743   54.1990 C   0  0  0  0  0  0  0  0  0  0  0  0
   68.8462   48.6160   53.6008 C   0  0  0  0  0  0  0  0  0  0  0  0
   69.2746   49.7366   54.3021 C   0  0  0  0  0  0  0  0  0  0  0  0
   69.6013   49.5626   55.6279 C   0  0  0  0  0  0  0  0  0  0  0  0
   69.5076   48.3262   56.2408 C   0  0  0  0  0  0  0  0  0  0  0  0
   69.0846   47.2299   55.5418 C   0  0  0  0  0  0  0  0  0  0  0  0
   68.9796   45.9770   56.1503 C   0  0  0  0  0  0  0  0  0  0  0  0
   69.2948   45.8923   57.3673 O   0  0  0  0  0  0  0  0  0  0  0  0
   68.1188   39.7617   58.0552 C   0  0  0  0  0  0  0  0  0  0  0  0
   68.2321   41.0868   57.3923 C   0  0  0  0  0  0  0  0  0  0  0  0
   69.2917   41.9232   57.6759 C   0  0  0  0  0  0  0  0  0  0  0  0
   69.3921   43.1545   57.0599 C   0  0  0  0  0  0  0  0  0  0  0  0
   68.4652   43.6094   56.1471 C   0  0  0  0  0  0  0  0  0  0  0  0
   67.4034   42.7653   55.8653 C   0  0  0  0  0  0  0  0  0  0  0  0
   67.2964   41.5282   56.4814 C   0  0  0  0  0  0  0  0  0  0  0  0
   67.9549   46.3074   52.1527 C   0  0  0  0  0  0  0  0  0  0  0  0
   68.5730   47.0711   51.1508 N   0  0  0  0  0  0  0  0  0  0  0  0
   66.9365   45.5271   51.8382 N   0  0  0  0  0  0  0  0  0  0  0  0
   66.5328   45.5405   50.5252 O   0  0  0  0  0  0  0  0  0  0  0  0
 12 13  1  0
 13 14  2  0
 13 18  1  0
 14 15  1  0
 15 16  2  0
 16  1  1  0
 16 17  1  0
  1  2  1  0
  1 10  1  0
  2  3  2  0
  3 19  1  0
  3  4  1  0
 19 20  1  0
 19 21  2  0
 21 22  1  0
  4  5  2  0
  4  9  1  0
  5  6  1  0
  6  7  2  0
  7  8  1  0
  8  9  2  0
  9 10  1  0
 10 11  2  0
 17 18  2  0
M  CHG  1  21   1
M  END
>  <minimizedAffinity>  (23) 
-8.86698

$$$$
data/200k_reference_output/data/smiles/2080.pdb
     RDKit          3D

 28 30  0  0  0  0  0  0  0  0999 V2000
   72.8509   51.9994   55.3199 C   0  0  0  0  0  0  0  0  0  0  0  0
   73.2001   53.2533   55.8258 C   0  0  0  0  0  0  0  0  0  0  0  0
   74.4071   53.5402   55.9042 O   0  0  0  0  0  0  0  0  0  0  0  0
   72.2571   54.0667   56.1884 O   0  0  0  0  0  0  0  0  0  0  0  0
   70.9937   53.8080   56.1183 C   0  0  0  0  0  0  0  0  0  0  0  0
   70.0389   54.7173   56.5207 O   0  0  0  0  0  0  0  0  0  0  0  0
   70.5706   52.5967   55.6318 C   0  0  0  0  0  0  0  0  0  0  0  0
   69.2241   52.2937   55.5554 C   0  0  0  0  0  0  0  0  0  0  0  0
   68.8168   51.0746   55.0758 C   0  0  0  0  0  0  0  0  0  0  0  0
   69.7355   50.1375   54.6650 C   0  0  0  0  0  0  0  0  0  0  0  0
   71.0855   50.4204   54.7334 C   0  0  0  0  0  0  0  0  0  0  0  0
   71.4912   51.6407   55.2128 C   0  0  0  0  0  0  0  0  0  0  0  0
   69.3257   48.8296   54.1498 C   0  0  0  0  0  0  0  0  0  0  0  0
   68.8664   47.8386   55.0012 C   0  0  0  0  0  0  0  0  0  0  0  0
   68.4720   46.5918   54.5450 C   0  0  0  0  0  0  0  0  0  0  0  0
   68.0282   45.6496   55.4203 F   0  0  0  0  0  0  0  0  0  0  0  0
   68.5356   46.3175   53.1873 C   0  0  0  0  0  0  0  0  0  0  0  0
   68.1570   45.1040   52.6972 F   0  0  0  0  0  0  0  0  0  0  0  0
   68.9939   47.3047   52.3278 C   0  0  0  0  0  0  0  0  0  0  0  0
   69.0500   47.0211   51.0056 F   0  0  0  0  0  0  0  0  0  0  0  0
   69.3874   48.5523   52.7969 C   0  0  0  0  0  0  0  0  0  0  0  0
   74.8617   50.6422   55.8831 N   0  0  0  0  0  0  0  0  0  0  0  0
   73.8791   51.0546   54.9410 C   0  0  0  0  0  0  0  0  0  0  0  0
   74.0108   50.5243   53.8213 O   0  0  0  0  0  0  0  0  0  0  0  0
   75.9175   49.6839   55.4973 C   0  0  0  0  0  0  0  0  0  0  0  0
   77.4187   51.5372   55.9670 O   0  0  0  0  0  0  0  0  0  0  0  0
   77.2224   50.3059   55.8254 C   0  0  0  0  0  0  0  0  0  0  0  0
   78.3134   49.4653   55.9896 O   0  0  0  0  0  0  0  0  0  0  0  0
 26 27  2  0
 27 28  1  0
 27 25  1  0
 25 22  1  0
 22 23  1  0
 23 24  2  0
 23  1  1  0
  1  2  1  0
  1 12  2  0
  2  3  2  0
  2  4  1  0
  4  5  1  0
  5  6  1  0
  5  7  2  0
  7  8  1  0
  7 12  1  0
  8  9  2  0
  9 10  1  0
 10 13  1  0
 10 11  2  0
 13 14  2  0
 13 21  1  0
 14 15  1  0
 15 16  1  0
 15 17  2  0
 17 18  1  0
 17 19  1  0
 19 20  1  0
 19 21  2  0
 11 12  1  0
M  END
>  <minimizedAffinity>  (24) 
-8.79074

$$$$
data/200k_reference_output/data/smiles/2158.pdb
     RDKit          3D

 25 27  0  0  0  0  0  0  0  0999 V2000
   69.7234   46.8787   57.0869 C   0  0  0  0  0  0  0  0  0  0  0  0
   70.6407   47.1537   58.1032 C   0  0  0  0  0  0  0  0  0  0  0  0
   71.2134   46.1656   58.8534 C   0  0  0  0  0  0  0  0  0  0  0  0
   70.8636   44.8647   58.5879 C   0  0  0  0  0  0  0  0  0  0  0  0
   69.9563   44.5801   57.5841 C   0  0  0  0  0  0  0  0  0  0  0  0
   69.4313   45.6006   56.8831 N   0  0  0  0  0  0  0  0  0  0  0  0
   69.5933   43.2439   57.3060 N   0  0  0  0  0  0  0  0  0  0  0  0
   70.2408   42.0325   57.7387 C   0  0  0  0  0  0  0  0  0  0  0  0
   69.0349   41.1979   58.1889 C   0  0  0  0  0  0  0  0  0  0  0  0
   68.0041   41.5504   57.1544 C   0  0  1  0  0  0  0  0  0  0  0  0
   66.7509   41.7948   57.7078 O   0  0  0  0  0  0  0  0  0  0  0  0
   68.4651   42.8382   56.5062 C   0  0  0  0  0  0  0  0  0  0  0  0
   72.1618   46.4480   59.9048 C   0  0  0  0  0  0  0  0  0  0  0  0
   71.7578   47.0471   60.9329 O   0  0  0  0  0  0  0  0  0  0  0  0
   73.4883   46.0916   59.8329 O   0  0  0  0  0  0  0  0  0  0  0  0
   69.1469   47.9489   56.2980 C   0  0  0  0  0  0  0  0  0  0  0  0
   69.4146   47.9647   54.9009 N   0  0  0  0  0  0  0  0  0  0  0  0
   70.1025   48.6587   52.2405 C   0  0  0  0  0  0  0  0  0  0  0  0
   69.1307   47.5971   52.5543 C   0  0  0  0  0  0  0  0  0  0  0  0
   68.5529   46.9205   51.5085 C   0  0  0  0  0  0  0  0  0  0  0  0
   67.6376   45.9181   51.7152 C   0  0  0  0  0  0  0  0  0  0  0  0
   67.0699   45.2519   50.6540 F   0  0  0  0  0  0  0  0  0  0  0  0
   67.3149   45.6084   53.0105 C   0  0  0  0  0  0  0  0  0  0  0  0
   67.8948   46.2880   54.0735 C   0  0  0  0  0  0  0  0  0  0  0  0
   68.8038   47.2849   53.8533 C   0  0  0  0  0  0  0  0  0  0  0  0
 18 19  1  0
 19 20  2  0
 19 25  1  0
 20 21  1  0
 21 22  1  0
 21 23  2  0
 23 24  1  0
 24 25  2  0
 25 17  1  0
 17 16  1  0
 16  1  1  0
  1  2  2  0
  1  6  1  0
  2  3  1  0
  3 13  1  0
  3  4  2  0
 13 14  2  0
 13 15  1  0
  4  5  1  0
  5  7  1  0
  5  6  2  0
  7  8  1  0
  7 12  1  0
  8  9  1  0
  9 10  1  0
 10 11  1  1
 10 12  1  0
M  END
>  <minimizedAffinity>  (25) 
-8.66034

$$$$
data/200k_reference_output/data/smiles/2250.pdb
     RDKit          3D

 27 29  0  0  0  0  0  0  0  0999 V2000
   69.2577   43.5553   58.7226 O   0  0  0  0  0  0  0  0  0  0  0  0
   69.2657   42.3082   58.9228 C   0  0  0  0  0  0  0  0  0  0  0  0
   69.9363   41.7334   60.0321 N   0  0  0  0  0  0  0  0  0  0  0  0
   69.9127   40.3259   60.2087 C   0  0  0  0  0  0  0  0  0  0  0  0
   70.5032   39.7760   61.1904 O   0  0  0  0  0  0  0  0  0  0  0  0
   69.2287   39.4378   59.3017 N   0  0  0  0  0  0  0  0  0  0  0  0
   68.5542   40.0255   58.1845 C   0  0  0  0  0  0  0  0  0  0  0  0
   67.9221   39.3173   57.3289 O   0  0  0  0  0  0  0  0  0  0  0  0
   68.5427   41.4646   57.9490 C   0  0  0  0  0  0  0  0  0  0  0  0
   67.9175   42.0096   56.9146 C   0  0  0  0  0  0  0  0  0  0  0  0
   69.2186   38.0128   59.5015 C   0  0  0  0  0  0  0  0  0  0  0  0
   70.4517   37.3252   59.0771 C   0  0  0  0  0  0  0  0  0  0  0  0
   71.2363   37.8846   58.1019 C   0  0  0  0  0  0  0  0  0  0  0  0
   72.3904   37.2607   57.6912 C   0  0  0  0  0  0  0  0  0  0  0  0
   72.7776   36.0747   58.2455 C   0  0  0  0  0  0  0  0  0  0  0  0
   71.9848   35.5252   59.2217 C   0  0  0  0  0  0  0  0  0  0  0  0
   70.8364   36.1330   59.6391 C   0  0  0  0  0  0  0  0  0  0  0  0
   67.9395   43.4158   56.7353 N   0  0  0  0  0  0  0  0  0  0  0  0
   68.0091   43.9884   55.4366 N   0  0  0  0  0  0  0  0  0  0  0  0
   68.2439   45.3612   55.2499 C   0  0  0  0  0  0  0  0  0  0  0  0
   68.3929   46.0798   56.2981 O   0  0  0  0  0  0  0  0  0  0  0  0
   68.3185   45.9627   53.9241 C   0  0  0  0  0  0  0  0  0  0  0  0
   69.0520   47.0823   53.6194 C   0  0  0  0  0  0  0  0  0  0  0  0
   69.0675   47.5951   52.3156 C   0  0  0  0  0  0  0  0  0  0  0  0
   68.3603   47.0105   51.2895 C   0  0  0  0  0  0  0  0  0  0  0  0
   67.6216   45.8849   51.5889 C   0  0  0  0  0  0  0  0  0  0  0  0
   67.6047   45.3799   52.8710 C   0  0  0  0  0  0  0  0  0  0  0  0
  1  2  2  0
  2  3  1  0
  2  9  1  0
  3  4  1  0
  4  5  2  0
  4  6  1  0
  6 11  1  0
  6  7  1  0
 11 12  1  0
 12 13  2  0
 12 17  1  0
 13 14  1  0
 14 15  2  0
 15 16  1  0
 16 17  2  0
  7  8  2  0
  7  9  1  0
  9 10  2  0
 10 18  1  0
 18 19  1  0
 19 20  1  0
 20 21  2  0
 20 22  1  0
 22 23  2  0
 22 27  1  0
 23 24  1  0
 24 25  2  0
 25 26  1  0
 26 27  2  0
M  END
>  <minimizedAffinity>  (26) 
-8.78196

$$$$
data/200k_reference_output/data/smiles/2260.pdb
     RDKit          3D

 23 25  0  0  0  0  0  0  0  0999 V2000
   68.3294   39.7004   57.0113 O   0  0  0  0  0  0  0  0  0  0  0  0
   68.5862   40.9315   57.0415 C   0  0  0  0  0  0  0  0  0  0  0  0
   67.8995   41.9442   56.2721 N   0  0  0  0  0  0  0  0  0  0  0  0
   68.4804   43.1915   56.5915 C   0  0  0  0  0  0  0  0  0  0  0  0
   68.1123   44.3152   56.0880 N   0  0  0  0  0  0  0  0  0  0  0  0
   69.5121   43.0136   57.5349 N   0  0  0  0  0  0  0  0  0  0  0  0
   69.6030   41.5997   57.8370 C   0  0  0  0  0  0  0  0  0  0  0  0
   70.4596   41.0247   58.6575 C   0  0  0  0  0  0  0  0  0  0  0  0
   70.5342   39.5981   58.9026 C   0  0  0  0  0  0  0  0  0  0  0  0
   69.8154   38.9252   59.8650 C   0  0  0  0  0  0  0  0  0  0  0  0
   69.9259   37.5768   60.1043 C   0  0  0  0  0  0  0  0  0  0  0  0
   70.7944   36.8288   59.3546 C   0  0  0  0  0  0  0  0  0  0  0  0
   70.9668   35.1160   59.6232 Cl  0  0  0  0  0  0  0  0  0  0  0  0
   71.5419   37.4501   58.3716 C   0  0  0  0  0  0  0  0  0  0  0  0
   71.4096   38.7941   58.1580 C   0  0  0  0  0  0  0  0  0  0  0  0
   68.6477   45.5250   56.3731 N   0  0  0  0  0  0  0  0  0  0  0  0
   68.8302   46.4541   55.5458 C   0  0  0  0  0  0  0  0  0  0  0  0
   68.4944   46.3673   54.1650 C   0  0  0  0  0  0  0  0  0  0  0  0
   67.6321   45.4984   53.5889 C   0  0  0  0  0  0  0  0  0  0  0  0
   67.3597   45.4820   52.2052 C   0  0  0  0  0  0  0  0  0  0  0  0
   67.9910   46.3838   51.3917 C   0  0  0  0  0  0  0  0  0  0  0  0
   68.8653   47.2711   51.9522 C   0  0  0  0  0  0  0  0  0  0  0  0
   69.1131   47.2681   53.2880 C   0  0  0  0  0  0  0  0  0  0  0  0
  1  2  2  0
  2  3  1  0
  2  7  1  0
  3  4  1  0
  4  5  2  0
  4  6  1  0
  5 16  1  0
 16 17  2  0
 17 18  1  0
 18 19  2  0
 18 23  1  0
 19 20  1  0
 20 21  2  0
 21 22  1  0
 22 23  2  0
  6  7  1  0
  7  8  2  0
  8  9  1  0
  9 10  2  0
  9 15  1  0
 10 11  1  0
 11 12  2  0
 12 13  1  0
 12 14  1  0
 14 15  2  0
M  CHG  1   5   1
M  END
>  <minimizedAffinity>  (27) 
-8.51635

$$$$
data/200k_reference_output/data/smiles/2454.pdb
     RDKit          3D

 28 31  0  0  0  0  0  0  0  0999 V2000
   69.0555   43.0042   57.1230 C   0  0  0  0  0  0  0  0  0  0  0  0
   69.5214   41.7482   57.4392 C   0  0  0  0  0  0  0  0  0  0  0  0
   70.7408   41.5404   58.0748 C   0  0  0  0  0  0  0  0  0  0  0  0
   71.4640   42.6765   58.3734 C   0  0  0  0  0  0  0  0  0  0  0  0
   71.0067   43.9374   58.0614 C   0  0  0  0  0  0  0  0  0  0  0  0
   71.7341   45.0606   58.3620 C   0  0  0  0  0  0  0  0  0  0  0  0
   72.8365   44.9276   58.9321 O   0  0  0  0  0  0  0  0  0  0  0  0
   71.2382   46.3066   58.0309 N   0  0  0  0  0  0  0  0  0  0  0  0
   70.0902   46.5125   57.4328 C   0  0  0  0  0  0  0  0  0  0  0  0
   69.3650   45.3653   57.1333 N   0  0  0  0  0  0  0  0  0  0  0  0
   69.8011   44.1442   57.4321 C   0  0  0  0  0  0  0  0  0  0  0  0
   71.2051   40.1990   58.3951 C   0  0  0  0  0  0  0  0  0  0  0  0
   70.4383   39.0573   58.3187 C   0  0  0  0  0  0  0  0  0  0  0  0
   71.2090   38.0219   58.6854 N   0  0  0  0  0  0  0  0  0  0  0  0
   72.4297   38.4162   58.9983 N   0  0  0  0  0  0  0  0  0  0  0  0
   72.4371   39.7507   58.8230 C   0  0  0  0  0  0  0  0  0  0  0  0
   67.0194   42.1945   55.9644 C   0  0  0  0  0  0  0  0  0  0  0  0
   67.8504   43.1833   56.4948 O   0  0  0  0  0  0  0  0  0  0  0  0
   69.4952   47.7991   57.0831 C   0  0  1  0  0  0  0  0  0  0  0  0
   70.6111   48.7293   56.7025 N   0  0  0  0  0  0  0  0  0  0  0  0
   68.4522   47.9084   56.0575 C   0  0  0  0  0  0  0  0  0  0  0  0
   68.6667   47.4921   54.6855 C   0  0  0  0  0  0  0  0  0  0  0  0
   67.9587   46.3734   54.2206 C   0  0  0  0  0  0  0  0  0  0  0  0
   68.0214   45.9472   52.9227 C   0  0  0  0  0  0  0  0  0  0  0  0
   68.8011   46.6209   52.0109 C   0  0  0  0  0  0  0  0  0  0  0  0
   69.4983   47.7129   52.4433 C   0  0  0  0  0  0  0  0  0  0  0  0
   70.2764   48.3924   51.5493 F   0  0  0  0  0  0  0  0  0  0  0  0
   69.4504   48.1582   53.7398 C   0  0  0  0  0  0  0  0  0  0  0  0
 17 18  1  0
 18  1  1  0
  1  2  2  0
  1 11  1  0
  2  3  1  0
  3 12  1  0
  3  4  2  0
 12 13  1  0
 12 16  2  0
 13 14  2  0
 14 15  1  0
 15 16  1  0
  4  5  1  0
  5  6  1  0
  5 11  2  0
  6  7  2  0
  6  8  1  0
  8  9  1  0
  9 19  1  0
  9 10  2  0
 19 20  1  6
 19 21  1  0
 21 22  1  0
 22 23  2  0
 22 28  1  0
 23 24  1  0
 24 25  2  0
 25 26  1  0
 26 27  1  0
 26 28  2  0
 10 11  1  0
M  CHG  1  20   1
M  END
>  <minimizedAffinity>  (28) 
-8.89891

$$$$
data/200k_reference_output/data/smiles/2462.pdb
     RDKit          3D

 30 32  0  0  0  0  0  0  0  0999 V2000
   71.4051   43.7448   57.8756 C   0  0  0  0  0  0  0  0  0  0  0  0
   70.1548   44.0243   57.4343 C   0  0  0  0  0  0  0  0  0  0  0  0
   69.6956   45.3301   57.3775 C   0  0  0  0  0  0  0  0  0  0  0  0
   70.4760   46.3969   57.7637 C   0  0  0  0  0  0  0  0  0  0  0  0
   71.7417   46.0928   58.2089 C   0  0  0  0  0  0  0  0  0  0  0  0
   72.2177   44.8096   58.2735 C   0  0  0  0  0  0  0  0  0  0  0  0
   73.2274   42.2154   57.7402 O   0  0  0  0  0  0  0  0  0  0  0  0
   71.9888   42.4140   57.9760 C   0  0  0  0  0  0  0  0  0  0  0  0
   71.1923   41.3028   58.3397 N   0  0  0  0  0  0  0  0  0  0  0  0
   71.7640   40.0001   58.4384 N   0  0  0  0  0  0  0  0  0  0  0  0
   70.8644   38.9090   58.3440 C   0  0  0  0  0  0  0  0  0  0  0  0
   69.6267   39.1264   58.1801 O   0  0  0  0  0  0  0  0  0  0  0  0
   71.2898   37.5276   58.4247 C   0  0  0  0  0  0  0  0  0  0  0  0
   72.1812   37.0415   57.5044 C   0  0  0  0  0  0  0  0  0  0  0  0
   72.6005   35.7183   57.5659 C   0  0  0  0  0  0  0  0  0  0  0  0
   72.1299   34.8818   58.5474 C   0  0  0  0  0  0  0  0  0  0  0  0
   71.2395   35.3738   59.4645 C   0  0  0  0  0  0  0  0  0  0  0  0
   70.8197   36.6860   59.4075 C   0  0  0  0  0  0  0  0  0  0  0  0
   69.9045   37.1414   60.3731 O   0  0  0  0  0  0  0  0  0  0  0  0
   70.0097   47.7377   57.7078 N   0  0  0  0  0  0  0  0  0  0  0  0
   68.5923   48.2303   56.8643 S   0  0  0  0  0  0  0  0  0  0  0  0
   68.3898   49.7071   57.0017 O   0  0  0  0  0  0  0  0  0  0  0  0
   67.4108   47.4888   57.4027 O   0  0  0  0  0  0  0  0  0  0  0  0
   68.7780   47.7998   55.1595 C   0  0  0  0  0  0  0  0  0  0  0  0
   69.5620   48.5653   54.3409 C   0  0  0  0  0  0  0  0  0  0  0  0
   69.7090   48.2266   52.9983 C   0  0  0  0  0  0  0  0  0  0  0  0
   69.0444   47.1095   52.5400 C   0  0  0  0  0  0  0  0  0  0  0  0
   69.1604   46.7443   51.2431 F   0  0  0  0  0  0  0  0  0  0  0  0
   68.2645   46.3553   53.3767 C   0  0  0  0  0  0  0  0  0  0  0  0
   68.1103   46.6822   54.7129 C   0  0  0  0  0  0  0  0  0  0  0  0
  7  8  2  0
  8  9  1  0
  8  1  1  0
  9 10  1  0
 10 11  1  0
 11 12  2  0
 11 13  1  0
 13 14  2  0
 13 18  1  0
 14 15  1  0
 15 16  2  0
 16 17  1  0
 17 18  2  0
 18 19  1  0
  1  2  2  0
  1  6  1  0
  2  3  1  0
  3  4  2  0
  4 20  1  0
  4  5  1  0
 20 21  1  0
 21 22  2  0
 21 23  2  0
 21 24  1  0
 24 25  2  0
 24 30  1  0
 25 26  1  0
 26 27  2  0
 27 28  1  0
 27 29  1  0
 29 30  2  0
  5  6  2  0
M  END
>  <minimizedAffinity>  (29) 
-8.93952

$$$$
data/200k_reference_output/data/smiles/2577.pdb
     RDKit          3D

 21 23  0  0  0  0  0  0  0  0999 V2000
   70.0513   50.6113   54.1481 C   0  0  2  0  0  0  0  0  0  0  0  0
   71.3293   51.2669   53.9939 O   0  0  0  0  0  0  0  0  0  0  0  0
   69.0923   51.7903   54.3052 C   0  0  0  0  0  0  0  0  0  0  0  0
   68.9819   52.2540   55.7408 C   0  0  0  0  0  0  0  0  0  0  0  0
   68.3707   51.1143   56.4688 C   0  0  0  0  0  0  0  0  0  0  0  0
   67.2832   51.2584   57.2736 C   0  0  0  0  0  0  0  0  0  0  0  0
   66.7420   50.1718   57.9413 C   0  0  0  0  0  0  0  0  0  0  0  0
   67.3578   48.9472   57.7480 C   0  0  0  0  0  0  0  0  0  0  0  0
   68.4527   48.7847   56.9417 C   0  0  0  0  0  0  0  0  0  0  0  0
   68.9644   49.8875   56.2922 C   0  0  0  0  0  0  0  0  0  0  0  0
   70.1651   49.8470   55.4046 C   0  0  0  0  0  0  0  0  0  0  0  0
   69.8370   49.9321   52.8568 C   0  0  0  0  0  0  0  0  0  0  0  0
   69.2046   47.6441   51.9854 C   0  0  0  0  0  0  0  0  0  0  0  0
   70.2350   47.5387   51.2731 O   0  0  0  0  0  0  0  0  0  0  0  0
   69.0047   48.7966   52.7427 N   0  0  0  0  0  0  0  0  0  0  0  0
   68.3041   45.9938   54.4566 C   0  0  0  0  0  0  0  0  0  0  0  0
   67.8193   45.7964   53.0731 C   0  0  0  0  0  0  0  0  0  0  0  0
   66.9282   44.8938   52.6510 O   0  0  0  0  0  0  0  0  0  0  0  0
   66.7572   45.0283   51.3591 N   0  0  0  0  0  0  0  0  0  0  0  0
   67.5543   46.0473   50.9145 C   0  0  0  0  0  0  0  0  0  0  0  0
   68.2298   46.5365   52.0008 C   0  0  0  0  0  0  0  0  0  0  0  0
 16 17  1  0
 17 18  1  0
 17 21  2  0
 18 19  1  0
 19 20  2  0
 20 21  1  0
 21 13  1  0
 13 14  2  0
 13 15  1  0
 15 12  1  0
 12  1  1  0
  1  2  1  6
  1  3  1  0
  1 11  1  0
  3  4  1  0
  4  5  1  0
  5  6  2  0
  5 10  1  0
  6  7  1  0
  7  8  2  0
  8  9  1  0
  9 10  2  0
 10 11  1  0
M  END
>  <minimizedAffinity>  (30) 
-8.72261

$$$$
data/200k_reference_output/data/smiles/2642.pdb
     RDKit          3D

 26 29  0  0  0  0  0  0  0  0999 V2000
   70.5914   41.9138   59.4019 C   0  0  0  0  0  0  0  0  0  0  0  0
   69.5560   41.4203   58.5048 C   0  0  0  0  0  0  0  0  0  0  0  0
   69.0778   42.2776   57.5247 C   0  0  0  0  0  0  0  0  0  0  0  0
   69.3563   43.5942   57.1758 C   0  0  0  0  0  0  0  0  0  0  0  0
   70.1838   44.3349   57.7433 O   0  0  0  0  0  0  0  0  0  0  0  0
   68.5961   43.9669   56.1203 N   0  0  0  0  0  0  0  0  0  0  0  0
   67.8543   42.9239   55.8030 N   0  0  0  0  0  0  0  0  0  0  0  0
   68.1125   41.8759   56.6282 C   0  0  0  0  0  0  0  0  0  0  0  0
   67.6531   40.5987   56.7523 C   0  0  0  0  0  0  0  0  0  0  0  0
   68.1469   39.7760   57.7333 C   0  0  0  0  0  0  0  0  0  0  0  0
   67.6881   38.6009   57.7995 O   0  0  0  0  0  0  0  0  0  0  0  0
   69.1042   40.1547   58.6324 N   0  0  0  0  0  0  0  0  0  0  0  0
   68.5928   45.2408   55.4712 C   0  0  0  0  0  0  0  0  0  0  0  0
   69.0365   46.3931   56.0847 C   0  0  0  0  0  0  0  0  0  0  0  0
   69.0207   47.6206   55.4266 C   0  0  0  0  0  0  0  0  0  0  0  0
   68.5553   47.7158   54.1281 C   0  0  0  0  0  0  0  0  0  0  0  0
   68.5477   48.9261   53.4981 F   0  0  0  0  0  0  0  0  0  0  0  0
   68.1121   46.5624   53.5153 C   0  0  0  0  0  0  0  0  0  0  0  0
   68.1305   45.3443   54.1794 C   0  0  0  0  0  0  0  0  0  0  0  0
   69.5368   39.2151   59.6097 C   0  0  0  0  0  0  0  0  0  0  0  0
   70.4324   38.1484   59.1139 C   0  0  0  0  0  0  0  0  0  0  0  0
   70.3846   36.8717   59.6252 C   0  0  0  0  0  0  0  0  0  0  0  0
   71.2225   35.8431   59.1686 C   0  0  0  0  0  0  0  0  0  0  0  0
   72.1409   36.0765   58.1739 C   0  0  0  0  0  0  0  0  0  0  0  0
   72.1898   37.3479   57.6623 C   0  0  0  0  0  0  0  0  0  0  0  0
   71.3616   38.3838   58.1066 C   0  0  0  0  0  0  0  0  0  0  0  0
  1  2  1  0
  2  3  2  0
  2 12  1  0
  3  4  1  0
  3  8  1  0
  4  5  2  0
  4  6  1  0
  6 13  1  0
  6  7  1  0
 13 14  2  0
 13 19  1  0
 14 15  1  0
 15 16  2  0
 16 17  1  0
 16 18  1  0
 18 19  2  0
  7  8  1  0
  8  9  2  0
  9 10  1  0
 10 11  2  0
 10 12  1  0
 12 20  1  0
 20 21  1  0
 21 22  2  0
 21 26  1  0
 22 23  1  0
 23 24  2  0
 24 25  1  0
 25 26  2  0
M  END
>  <minimizedAffinity>  (31) 
-8.61349

$$$$
data/200k_reference_output/data/smiles/2889.pdb
     RDKit          3D

 33 37  0  0  0  0  0  0  0  0999 V2000
   70.8528   49.1229   57.7484 N   0  0  0  0  0  0  0  0  0  0  0  0
   69.6752   49.9332   57.7661 C   0  0  0  0  0  0  0  0  0  0  0  0
   69.3868   50.7108   56.5586 C   0  0  0  0  0  0  0  0  0  0  0  0
   70.2395   50.4604   55.3816 C   0  0  0  0  0  0  0  0  0  0  0  0
   71.7028   50.3832   55.7890 C   0  0  0  0  0  0  0  0  0  0  0  0
   71.9641   49.6300   57.0446 C   0  0  0  0  0  0  0  0  0  0  0  0
   70.1145   51.7014   54.5245 C   0  0  0  0  0  0  0  0  0  0  0  0
   69.9950   52.8623   54.9743 O   0  0  0  0  0  0  0  0  0  0  0  0
   70.1529   51.3402   53.1732 N   0  0  0  0  0  0  0  0  0  0  0  0
   70.3454   49.9278   53.1205 C   0  0  0  0  0  0  0  0  0  0  0  0
   69.8885   49.4401   54.4545 N   0  0  0  0  0  0  0  0  0  0  0  0
   69.2877   48.1540   54.5396 C   0  0  0  0  0  0  0  0  0  0  0  0
   68.7785   47.5952   53.3578 C   0  0  0  0  0  0  0  0  0  0  0  0
   68.1689   46.3692   53.3413 C   0  0  0  0  0  0  0  0  0  0  0  0
   68.0226   45.6215   54.4723 C   0  0  0  0  0  0  0  0  0  0  0  0
   68.5304   46.1809   55.6481 C   0  0  0  0  0  0  0  0  0  0  0  0
   69.1415   47.4128   55.6618 C   0  0  0  0  0  0  0  0  0  0  0  0
   71.1323   48.7382   59.0802 C   0  0  0  0  0  0  0  0  0  0  0  0
   72.4221   47.2773   60.6884 C   0  0  0  0  0  0  0  0  0  0  0  0
   71.7066   47.4107   59.3665 C   0  0  1  0  0  0  0  0  0  0  0  0
   70.8928   46.2665   59.0240 N   0  0  0  0  0  0  0  0  0  0  0  0
   71.4329   45.1188   58.3305 C   0  0  0  0  0  0  0  0  0  0  0  0
   72.6439   45.0972   58.0069 O   0  0  0  0  0  0  0  0  0  0  0  0
   70.5594   43.9870   58.0093 C   0  0  0  0  0  0  0  0  0  0  0  0
   70.6609   42.7163   58.5394 C   0  0  0  0  0  0  0  0  0  0  0  0
   69.6741   41.9031   58.0114 C   0  0  0  0  0  0  0  0  0  0  0  0
   69.2930   40.5868   58.1619 C   0  0  0  0  0  0  0  0  0  0  0  0
   68.2191   40.0354   57.4704 C   0  0  0  0  0  0  0  0  0  0  0  0
   67.8555   38.7286   57.6329 F   0  0  0  0  0  0  0  0  0  0  0  0
   67.5055   40.8464   56.5973 C   0  0  0  0  0  0  0  0  0  0  0  0
   67.8926   42.1597   56.4531 C   0  0  0  0  0  0  0  0  0  0  0  0
   68.9557   42.7129   57.1343 C   0  0  0  0  0  0  0  0  0  0  0  0
   69.5224   43.9373   57.1710 N   0  0  0  0  0  0  0  0  0  0  0  0
 20 19  1  1
 20 18  1  0
 20 21  1  0
 18  1  1  0
  1  2  1  0
  1  6  1  0
  2  3  1  0
  3  4  1  0
  4  5  1  0
  4  7  1  0
  4 11  1  0
  5  6  1  0
  7  8  2  0
  7  9  1  0
  9 10  1  0
 10 11  1  0
 11 12  1  0
 12 13  2  0
 12 17  1  0
 13 14  1  0
 14 15  2  0
 15 16  1  0
 16 17  2  0
 21 22  1  0
 22 23  2  0
 22 24  1  0
 24 25  2  0
 24 33  1  0
 25 26  1  0
 26 27  2  0
 26 32  1  0
 27 28  1  0
 28 29  1  0
 28 30  2  0
 30 31  1  0
 31 32  2  0
 32 33  1  0
M  CHG  1   1   1
M  END
>  <minimizedAffinity>  (32) 
-8.71729

$$$$
data/200k_reference_output/data/smiles/2919.pdb
     RDKit          3D

 30 32  0  0  0  0  0  0  0  0999 V2000
   67.7825   43.7499   55.9125 N   0  0  0  0  0  0  0  0  0  0  0  0
   68.4443   42.7507   56.6535 C   0  0  0  0  0  0  0  0  0  0  0  0
   69.5465   43.0501   57.1824 O   0  0  0  0  0  0  0  0  0  0  0  0
   67.9659   41.4351   56.8480 N   0  0  0  0  0  0  0  0  0  0  0  0
   68.6699   40.4538   57.6068 C   0  0  0  0  0  0  0  0  0  0  0  0
   69.9760   40.6577   58.0048 C   0  0  0  0  0  0  0  0  0  0  0  0
   70.6793   39.7231   58.7392 C   0  0  0  0  0  0  0  0  0  0  0  0
   70.0995   38.5306   59.1120 C   0  0  0  0  0  0  0  0  0  0  0  0
   68.7954   38.3137   58.7208 C   0  0  0  0  0  0  0  0  0  0  0  0
   68.1002   39.2542   57.9863 C   0  0  0  0  0  0  0  0  0  0  0  0
   70.8680   37.5284   59.9051 C   0  0  0  0  0  0  0  0  0  0  0  0
   71.5186   36.5238   59.0210 C   0  0  0  0  0  0  0  0  0  0  0  0
   72.1690   36.9402   57.8705 C   0  0  0  0  0  0  0  0  0  0  0  0
   72.7915   36.0357   57.0157 C   0  0  0  0  0  0  0  0  0  0  0  0
   72.7716   34.6953   57.2988 C   0  0  0  0  0  0  0  0  0  0  0  0
   72.1303   34.2607   58.4374 C   0  0  0  0  0  0  0  0  0  0  0  0
   71.5138   35.1717   59.2825 C   0  0  0  0  0  0  0  0  0  0  0  0
   68.2105   45.7276   54.4893 C   0  0  0  0  0  0  0  0  0  0  0  0
   67.6531   45.0620   53.5545 O   0  0  0  0  0  0  0  0  0  0  0  0
   68.2869   45.0499   55.7375 N   0  0  0  0  0  0  0  0  0  0  0  0
   69.6854   49.6614   53.9285 C   0  0  0  0  0  0  0  0  0  0  0  0
   69.3779   49.1957   55.1916 C   0  0  0  0  0  0  0  0  0  0  0  0
   68.8961   47.8963   55.3330 C   0  0  0  0  0  0  0  0  0  0  0  0
   68.7157   47.0651   54.2597 C   0  0  0  0  0  0  0  0  0  0  0  0
   69.0206   47.5288   53.0107 C   0  0  0  0  0  0  0  0  0  0  0  0
   69.5070   48.8310   52.8446 C   0  0  0  0  0  0  0  0  0  0  0  0
   71.9486   51.3783   54.2388 N   0  0  0  0  0  0  0  0  0  0  0  0
   70.2909   51.2874   53.7337 S   0  0  0  0  0  0  0  0  0  0  0  0
   69.4940   52.2671   54.5662 O   0  0  0  0  0  0  0  0  0  0  0  0
   70.1505   51.7196   52.3054 O   0  0  0  0  0  0  0  0  0  0  0  0
 27 28  1  0
 28 29  2  0
 28 30  2  0
 28 21  1  0
 21 22  2  0
 21 26  1  0
 22 23  1  0
 23 24  2  0
 24 18  1  0
 24 25  1  0
 18 19  2  0
 18 20  1  0
 20  1  1  0
  1  2  1  0
  2  3  2  0
  2  4  1  0
  4  5  1  0
  5  6  2  0
  5 10  1  0
  6  7  1  0
  7  8  2  0
  8 11  1  0
  8  9  1  0
 11 12  1  0
 12 13  2  0
 12 17  1  0
 13 14  1  0
 14 15  2  0
 15 16  1  0
 16 17  2  0
  9 10  2  0
 25 26  2  0
M  END
>  <minimizedAffinity>  (33) 
-10.15446

$$$$
data/200k_reference_output/data/smiles/2939.pdb
     RDKit          3D

 29 32  0  0  0  0  0  0  0  0999 V2000
   68.6639   43.3200   56.5631 C   0  0  0  0  0  0  0  0  0  0  0  0
   69.7272   43.0376   57.4390 C   0  0  0  0  0  0  0  0  0  0  0  0
   70.8053   44.0135   57.7884 C   0  0  0  0  0  0  0  0  0  0  0  0
   69.5837   41.7889   57.8693 N   0  0  0  0  0  0  0  0  0  0  0  0
   68.4927   41.2073   57.3414 N   0  0  0  0  0  0  0  0  0  0  0  0
   67.9457   42.1615   56.5484 C   0  0  0  0  0  0  0  0  0  0  0  0
   66.6675   41.9693   55.8137 C   0  0  0  0  0  0  0  0  0  0  0  0
   67.6881   45.7604   52.4226 C   0  0  0  0  0  0  0  0  0  0  0  0
   68.0282   45.7548   53.8732 C   0  0  0  0  0  0  0  0  0  0  0  0
   68.1827   46.9789   54.4912 C   0  0  0  0  0  0  0  0  0  0  0  0
   68.4967   46.9711   55.8243 C   0  0  0  0  0  0  0  0  0  0  0  0
   68.6449   48.0616   56.4164 O   0  0  0  0  0  0  0  0  0  0  0  0
   68.6470   45.7835   56.4981 N   0  0  0  0  0  0  0  0  0  0  0  0
   68.5007   44.6036   55.9138 C   0  0  0  0  0  0  0  0  0  0  0  0
   68.1864   44.6516   54.5805 N   0  0  0  0  0  0  0  0  0  0  0  0
   68.0981   39.8338   57.5787 C   0  0  0  0  0  0  0  0  0  0  0  0
   67.9120   39.4831   58.9954 C   0  0  0  0  0  0  0  0  0  0  0  0
   68.4801   38.2810   59.5613 C   0  0  0  0  0  0  0  0  0  0  0  0
   67.7520   37.3438   59.9434 O   0  0  0  0  0  0  0  0  0  0  0  0
   69.9144   38.1182   59.7081 N   0  0  0  0  0  0  0  0  0  0  0  0
   70.8709   39.1151   59.3127 C   0  0  0  0  0  0  0  0  0  0  0  0
   72.0139   38.5310   58.5289 C   0  0  0  0  0  0  0  0  0  0  0  0
   72.0528   37.0702   58.4503 C   0  0  0  0  0  0  0  0  0  0  0  0
   72.8775   36.4985   57.5067 C   0  0  0  0  0  0  0  0  0  0  0  0
   72.9456   35.1309   57.4039 C   0  0  0  0  0  0  0  0  0  0  0  0
   72.2123   34.3011   58.2183 C   0  0  0  0  0  0  0  0  0  0  0  0
   71.3974   34.8809   59.1512 C   0  0  0  0  0  0  0  0  0  0  0  0
   71.3122   36.2734   59.2746 C   0  0  0  0  0  0  0  0  0  0  0  0
   70.4281   36.8977   60.2803 C   0  0  0  0  0  0  0  0  0  0  0  0
  8  9  1  0
  9 10  2  0
  9 15  1  0
 10 11  1  0
 11 12  2  0
 11 13  1  0
 13 14  1  0
 14  1  1  0
 14 15  2  0
  1  2  1  0
  1  6  2  0
  2  3  1  0
  2  4  2  0
  4  5  1  0
  5 16  1  0
  5  6  1  0
 16 17  1  0
 17 18  1  0
 18 19  2  0
 18 20  1  0
 20 21  1  0
 20 29  1  0
 21 22  1  0
 22 23  1  0
 23 24  2  0
 23 28  1  0
 24 25  1  0
 25 26  2  0
 26 27  1  0
 27 28  2  0
 28 29  1  0
  6  7  1  0
M  END
>  <minimizedAffinity>  (34) 
-9.31149

$$$$
data/200k_reference_output/data/smiles/2991.pdb
     RDKit          3D

 32 35  0  0  0  0  0  0  0  0999 V2000
   70.5025   45.2505   57.8289 N   0  0  0  0  0  0  0  0  0  0  0  0
   69.5409   45.6418   56.9738 C   0  0  0  0  0  0  0  0  0  0  0  0
   68.9720   44.7221   56.3245 O   0  0  0  0  0  0  0  0  0  0  0  0
   69.1634   46.9468   56.7781 C   0  0  0  0  0  0  0  0  0  0  0  0
   69.8175   47.8800   57.5076 N   0  0  0  0  0  0  0  0  0  0  0  0
   70.7861   47.5554   58.3796 C   0  0  0  0  0  0  0  0  0  0  0  0
   71.4081   48.5606   59.0916 C   0  0  0  0  0  0  0  0  0  0  0  0
   72.4048   48.2744   59.9979 C   0  0  0  0  0  0  0  0  0  0  0  0
   72.7561   46.9545   60.1677 C   0  0  0  0  0  0  0  0  0  0  0  0
   72.1253   45.9378   59.4466 C   0  0  0  0  0  0  0  0  0  0  0  0
   71.1288   46.2100   58.5369 C   0  0  0  0  0  0  0  0  0  0  0  0
   70.8693   43.8613   57.9928 C   0  0  0  0  0  0  0  0  0  0  0  0
   69.5497   41.7570   58.4955 N   0  0  0  0  0  0  0  0  0  0  0  0
   69.8560   43.1161   58.8041 C   0  0  0  0  0  0  0  0  0  0  0  0
   69.2511   43.6332   59.7599 O   0  0  0  0  0  0  0  0  0  0  0  0
   68.1394   39.7779   58.8426 C   0  0  0  0  0  0  0  0  0  0  0  0
   68.6559   39.3441   57.7531 O   0  0  0  0  0  0  0  0  0  0  0  0
   68.5909   41.0501   59.2637 N   0  0  0  0  0  0  0  0  0  0  0  0
   64.2733   36.5779   61.6740 C   0  0  0  0  0  0  0  0  0  0  0  0
   65.2830   37.3769   60.9458 C   0  0  0  0  0  0  0  0  0  0  0  0
   64.9913   38.7011   60.6195 C   0  0  0  0  0  0  0  0  0  0  0  0
   65.9287   39.4424   59.9444 C   0  0  0  0  0  0  0  0  0  0  0  0
   67.1558   38.9673   59.5607 C   0  0  0  0  0  0  0  0  0  0  0  0
   67.4320   37.6415   59.8948 C   0  0  0  0  0  0  0  0  0  0  0  0
   66.4975   36.8822   60.5746 C   0  0  0  0  0  0  0  0  0  0  0  0
   68.0820   47.3657   55.8241 C   0  0  0  0  0  0  0  0  0  0  0  0
   68.4976   47.2841   54.4123 C   0  0  0  0  0  0  0  0  0  0  0  0
   67.9778   46.3370   53.5619 C   0  0  0  0  0  0  0  0  0  0  0  0
   68.3555   46.2514   52.2291 C   0  0  0  0  0  0  0  0  0  0  0  0
   69.2850   47.1596   51.7674 C   0  0  0  0  0  0  0  0  0  0  0  0
   69.8282   48.1176   52.5763 C   0  0  0  0  0  0  0  0  0  0  0  0
   69.4199   48.1693   53.9177 C   0  0  0  0  0  0  0  0  0  0  0  0
 19 20  1  0
 20 21  2  0
 20 25  1  0
 21 22  1  0
 22 23  2  0
 23 16  1  0
 23 24  1  0
 16 17  2  0
 16 18  1  0
 18 13  1  0
 13 14  1  0
 14 15  2  0
 14 12  1  0
 12  1  1  0
  1  2  1  0
  1 11  1  0
  2  3  2  0
  2  4  1  0
  4 26  1  0
  4  5  2  0
 26 27  1  0
 27 28  2  0
 27 32  1  0
 28 29  1  0
 29 30  2  0
 30 31  1  0
 31 32  2  0
  5  6  1  0
  6  7  1  0
  6 11  2  0
  7  8  2  0
  8  9  1  0
  9 10  2  0
 10 11  1  0
 24 25  2  0
M  END
>  <minimizedAffinity>  (35) 
-9.07431

$$$$
data/200k_reference_output/data/smiles/3076.pdb
     RDKit          3D

 23 25  0  0  0  0  0  0  0  0999 V2000
   71.1819   50.8570   55.4840 S   0  0  0  0  0  0  0  0  0  0  0  0
   70.4563   49.6345   54.3680 C   0  0  0  0  0  0  0  0  0  0  0  0
   69.6414   48.6760   54.8386 N   0  0  0  0  0  0  0  0  0  0  0  0
   69.0983   47.7552   54.0063 C   0  0  0  0  0  0  0  0  0  0  0  0
   68.2537   46.7743   54.5430 C   0  0  0  0  0  0  0  0  0  0  0  0
   67.6857   45.8242   53.7243 C   0  0  0  0  0  0  0  0  0  0  0  0
   67.9873   45.8942   52.3815 C   0  0  0  0  0  0  0  0  0  0  0  0
   68.8113   46.8471   51.8424 C   0  0  0  0  0  0  0  0  0  0  0  0
   69.3837   47.8017   52.6581 C   0  0  0  0  0  0  0  0  0  0  0  0
   70.2196   48.7838   52.1680 C   0  0  0  0  0  0  0  0  0  0  0  0
   70.4719   48.8150   50.9366 O   0  0  0  0  0  0  0  0  0  0  0  0
   70.7230   49.6641   53.0520 N   0  0  0  0  0  0  0  0  0  0  0  0
   72.3091   50.0679   56.6490 C   0  0  0  0  0  0  0  0  0  0  0  0
   73.9928   51.6910   56.7455 O   0  0  0  0  0  0  0  0  0  0  0  0
   73.7091   50.5550   56.3528 C   0  0  0  0  0  0  0  0  0  0  0  0
   74.6298   49.7595   55.6716 N   0  0  0  0  0  0  0  0  0  0  0  0
   75.9609   50.1273   55.3369 C   0  0  0  0  0  0  0  0  0  0  0  0
   77.0894   49.5682   56.1257 C   0  0  0  0  0  0  0  0  0  0  0  0
   78.1914   49.0960   55.2000 C   0  0  0  0  0  0  0  0  0  0  0  0
   79.5123   48.9830   55.8848 C   0  0  0  0  0  0  0  0  0  0  0  0
   79.8302   50.3530   56.4479 C   0  0  0  0  0  0  0  0  0  0  0  0
   78.8462   50.7876   57.4947 C   0  0  0  0  0  0  0  0  0  0  0  0
   77.4907   50.1641   57.3951 C   0  0  0  0  0  0  0  0  0  0  0  0
 14 15  2  0
 15 13  1  0
 15 16  1  0
 13  1  1  0
  1  2  1  0
  2  3  2  0
  2 12  1  0
  3  4  1  0
  4  5  2  0
  4  9  1  0
  5  6  1  0
  6  7  2  0
  7  8  1  0
  8  9  2  0
  9 10  1  0
 10 11  2  0
 10 12  1  0
 16 17  1  0
 17 18  1  0
 18 19  1  0
 18 23  1  0
 19 20  1  0
 20 21  1  0
 21 22  1  0
 22 23  1  0
M  END
>  <minimizedAffinity>  (36) 
-8.58289

$$$$
data/200k_reference_output/data/smiles/3098.pdb
     RDKit          3D

 29 32  0  0  0  0  0  0  0  0999 V2000
   71.0541   45.9763   58.3601 C   0  0  0  0  0  0  0  0  0  0  0  0
   70.0575   46.5609   57.5751 C   0  0  0  0  0  0  0  0  0  0  0  0
   69.8315   47.9090   57.5812 C   0  0  0  0  0  0  0  0  0  0  0  0
   70.6077   48.7112   58.3827 C   0  0  0  0  0  0  0  0  0  0  0  0
   71.6183   48.1735   59.1869 C   0  0  0  0  0  0  0  0  0  0  0  0
   71.8209   46.7988   59.1555 C   0  0  0  0  0  0  0  0  0  0  0  0
   72.8065   46.2410   59.9352 F   0  0  0  0  0  0  0  0  0  0  0  0
   69.4543   44.1786   59.6460 O   0  0  0  0  0  0  0  0  0  0  0  0
   70.4529   43.6877   59.0613 C   0  0  0  0  0  0  0  0  0  0  0  0
   71.3164   44.5843   58.3778 N   0  0  0  0  0  0  0  0  0  0  0  0
   70.7022   42.2420   59.0954 C   0  0  0  0  0  0  0  0  0  0  0  0
   69.6359   41.5040   58.4576 N   0  0  0  0  0  0  0  0  0  0  0  0
   68.9898   41.9192   57.2037 C   0  0  0  0  0  0  0  0  0  0  0  0
   67.8299   40.9557   57.0481 C   0  0  0  0  0  0  0  0  0  0  0  0
   68.3805   39.7131   57.7154 C   0  0  0  0  0  0  0  0  0  0  0  0
   69.0461   40.2890   58.9139 C   0  0  0  0  0  0  0  0  0  0  0  0
   69.1041   39.8445   60.0901 O   0  0  0  0  0  0  0  0  0  0  0  0
   68.7797   48.5183   56.7520 C   0  0  0  0  0  0  0  0  0  0  0  0
   68.5375   47.6277   55.5771 C   0  0  0  0  0  0  0  0  0  0  0  0
   67.8169   46.4966   55.6887 N   0  0  0  0  0  0  0  0  0  0  0  0
   67.5663   45.6708   54.7019 N   0  0  0  0  0  0  0  0  0  0  0  0
   68.0342   45.9227   53.4815 C   0  0  0  0  0  0  0  0  0  0  0  0
   67.8033   45.1477   52.5398 O   0  0  0  0  0  0  0  0  0  0  0  0
   68.7951   47.0739   53.2664 C   0  0  0  0  0  0  0  0  0  0  0  0
   69.0425   47.9246   54.3229 C   0  0  0  0  0  0  0  0  0  0  0  0
   69.8449   49.1720   54.1717 C   0  0  0  0  0  0  0  0  0  0  0  0
   70.6472   49.0453   52.8978 C   0  0  0  0  0  0  0  0  0  0  0  0
   69.6466   48.7681   51.7684 C   0  0  0  0  0  0  0  0  0  0  0  0
   69.2907   47.3012   51.8838 C   0  0  0  0  0  0  0  0  0  0  0  0
  8  9  2  0
  9 11  1  0
  9 10  1  0
 11 12  1  0
 12 13  1  0
 12 16  1  0
 13 14  1  0
 14 15  1  0
 15 16  1  0
 16 17  2  0
 10  1  1  0
  1  2  2  0
  1  6  1  0
  2  3  1  0
  3 18  1  0
  3  4  2  0
 18 19  1  0
 19 20  2  0
 19 25  1  0
 20 21  1  0
 21 22  1  0
 22 23  2  0
 22 24  1  0
 24 25  2  0
 24 29  1  0
 25 26  1  0
 26 27  1  0
 27 28  1  0
 28 29  1  0
  4  5  1  0
  5  6  2  0
  6  7  1  0
M  END
>  <minimizedAffinity>  (37) 
-8.64982

$$$$
data/200k_reference_output/data/smiles/3220.pdb
     RDKit          3D

 25 27  0  0  0  0  0  0  0  0999 V2000
   69.4272   47.5108   56.2100 N   0  0  0  0  0  0  0  0  0  0  0  0
   69.9900   48.4588   55.5111 N   0  0  0  0  0  0  0  0  0  0  0  0
   69.8605   48.5137   54.1384 C   0  0  0  0  0  0  0  0  0  0  0  0
   69.1370   47.5771   53.4444 C   0  0  0  0  0  0  0  0  0  0  0  0
   68.9914   47.6046   52.0780 C   0  0  0  0  0  0  0  0  0  0  0  0
   68.2371   46.6167   51.4270 C   0  0  0  0  0  0  0  0  0  0  0  0
   67.6563   45.6315   52.1908 C   0  0  0  0  0  0  0  0  0  0  0  0
   67.8000   45.5986   53.5614 C   0  0  0  0  0  0  0  0  0  0  0  0
   68.5376   46.5631   54.2070 C   0  0  0  0  0  0  0  0  0  0  0  0
   68.7118   46.5779   55.5664 C   0  0  0  0  0  0  0  0  0  0  0  0
   68.1672   45.6632   56.2301 O   0  0  0  0  0  0  0  0  0  0  0  0
   70.5255   49.6088   53.4469 C   0  0  0  0  0  0  0  0  0  0  0  0
   71.8134   49.6123   53.4304 O   0  0  0  0  0  0  0  0  0  0  0  0
   69.9757   50.6706   52.7910 O   0  0  0  0  0  0  0  0  0  0  0  0
   69.5395   47.4184   57.6601 C   0  0  0  0  0  0  0  0  0  0  0  0
   70.7787   45.1921   57.4844 N   0  0  0  0  0  0  0  0  0  0  0  0
   70.6433   46.4795   58.0452 C   0  0  0  0  0  0  0  0  0  0  0  0
   71.4515   46.8802   58.8919 O   0  0  0  0  0  0  0  0  0  0  0  0
   69.9712   42.5680   57.5842 C   0  0  0  0  0  0  0  0  0  0  0  0
   71.3894   42.9048   57.8391 C   0  0  0  0  0  0  0  0  0  0  0  0
   72.2638   41.8894   58.1188 C   0  0  0  0  0  0  0  0  0  0  0  0
   73.5906   42.1571   58.3619 C   0  0  0  0  0  0  0  0  0  0  0  0
   74.0088   43.4642   58.3157 C   0  0  0  0  0  0  0  0  0  0  0  0
   73.1030   44.4991   58.0270 C   0  0  0  0  0  0  0  0  0  0  0  0
   71.7786   44.2449   57.7831 C   0  0  0  0  0  0  0  0  0  0  0  0
 19 20  1  0
 20 21  2  0
 20 25  1  0
 21 22  1  0
 22 23  2  0
 23 24  1  0
 24 25  2  0
 25 16  1  0
 16 17  1  0
 17 18  2  0
 17 15  1  0
 15  1  1  0
  1  2  1  0
  1 10  1  0
  2  3  2  0
  3 12  1  0
  3  4  1  0
 12 13  2  0
 12 14  1  0
  4  5  2  0
  4  9  1  0
  5  6  1  0
  6  7  2  0
  7  8  1  0
  8  9  2  0
  9 10  1  0
 10 11  2  0
M  END
>  <minimizedAffinity>  (38) 
-8.68538

$$$$
data/200k_reference_output/data/smiles/3306.pdb
     RDKit          3D

 29 32  0  0  0  0  0  0  0  0999 V2000
   68.4391   40.5997   57.3436 C   0  0  0  0  0  0  0  0  0  0  0  0
   67.9135   39.6924   56.6194 O   0  0  0  0  0  0  0  0  0  0  0  0
   68.9196   40.1973   58.5935 N   0  0  0  0  0  0  0  0  0  0  0  0
   68.6185   44.6628   55.9177 C   0  0  0  0  0  0  0  0  0  0  0  0
   69.5474   44.1584   56.7841 C   0  0  0  0  0  0  0  0  0  0  0  0
   69.5188   42.8387   57.2687 C   0  0  0  0  0  0  0  0  0  0  0  0
   68.5261   41.9794   56.8785 C   0  0  0  0  0  0  0  0  0  0  0  0
   67.5925   42.5064   55.9995 C   0  0  0  0  0  0  0  0  0  0  0  0
   67.6470   43.7654   55.5572 N   0  0  0  0  0  0  0  0  0  0  0  0
   67.8479   45.6784   53.0458 C   0  0  0  0  0  0  0  0  0  0  0  0
   68.2544   46.4609   54.1746 N   0  0  0  0  0  0  0  0  0  0  0  0
   68.3680   47.8100   54.1585 N   0  0  0  0  0  0  0  0  0  0  0  0
   68.7653   48.2620   55.3528 C   0  0  0  0  0  0  0  0  0  0  0  0
   68.8987   47.1352   56.1286 C   0  0  0  0  0  0  0  0  0  0  0  0
   68.5718   45.9891   55.3749 C   0  0  0  0  0  0  0  0  0  0  0  0
   68.8282   38.7972   59.0575 C   0  0  2  0  0  0  0  0  0  0  0  0
   67.4483   38.6646   59.6654 C   0  0  0  0  0  0  0  0  0  0  0  0
   67.4810   39.5051   60.8737 N   0  0  0  0  0  0  0  0  0  0  0  0
   68.2469   38.7577   61.8373 C   0  0  0  0  0  0  0  0  0  0  0  0
   69.6274   38.4211   61.4283 C   0  0  0  0  0  0  0  0  0  0  0  0
   69.9429   38.4476   59.9785 C   0  0  1  0  0  0  0  0  0  0  0  0
   70.6126   37.1758   59.5258 C   0  0  0  0  0  0  0  0  0  0  0  0
   70.4707   35.9784   60.1927 C   0  0  0  0  0  0  0  0  0  0  0  0
   71.0952   34.8266   59.7596 C   0  0  0  0  0  0  0  0  0  0  0  0
   71.8886   34.8354   58.6339 C   0  0  0  0  0  0  0  0  0  0  0  0
   72.5206   33.7368   58.1686 F   0  0  0  0  0  0  0  0  0  0  0  0
   72.0457   36.0220   57.9507 C   0  0  0  0  0  0  0  0  0  0  0  0
   72.8073   36.1170   56.8394 F   0  0  0  0  0  0  0  0  0  0  0  0
   71.4091   37.1773   58.4008 C   0  0  0  0  0  0  0  0  0  0  0  0
 10 11  1  0
 11 12  1  0
 11 15  1  0
 12 13  2  0
 13 14  1  0
 14 15  2  0
 15  4  1  0
  4  5  2  0
  4  9  1  0
  5  6  1  0
  6  7  2  0
  7  1  1  0
  7  8  1  0
  1  2  2  0
  1  3  1  0
 16  3  1  1
 16 17  1  0
 16 21  1  0
 17 18  1  0
 18 19  1  0
 19 20  1  0
 20 21  1  0
 21 22  1  6
 22 23  2  0
 22 29  1  0
 23 24  1  0
 24 25  2  0
 25 26  1  0
 25 27  1  0
 27 28  1  0
 27 29  2  0
  8  9  2  0
M  CHG  1  18   1
M  END
>  <minimizedAffinity>  (39) 
-8.52834

$$$$
data/200k_reference_output/data/smiles/3369.pdb
     RDKit          3D

 29 32  0  0  0  0  0  0  0  0999 V2000
   69.0934   44.6661   56.7014 C   0  0  0  0  0  0  0  0  0  0  0  0
   68.1019   44.3779   55.8400 N   0  0  0  0  0  0  0  0  0  0  0  0
   67.7716   43.0846   55.9323 N   0  0  0  0  0  0  0  0  0  0  0  0
   68.5342   42.4864   56.8544 C   0  0  0  0  0  0  0  0  0  0  0  0
   69.3670   43.4684   57.3432 C   0  0  0  0  0  0  0  0  0  0  0  0
   70.3653   43.1904   58.3899 C   0  0  0  0  0  0  0  0  0  0  0  0
   70.0653   41.9656   59.1850 C   0  0  0  0  0  0  0  0  0  0  0  0
   69.5975   40.8537   58.3928 N   0  0  0  0  0  0  0  0  0  0  0  0
   68.6383   41.1341   57.3824 C   0  0  0  0  0  0  0  0  0  0  0  0
   67.8933   40.2002   56.9615 O   0  0  0  0  0  0  0  0  0  0  0  0
   70.0867   39.5247   58.6227 C   0  0  0  0  0  0  0  0  0  0  0  0
   69.3771   38.6251   59.3899 C   0  0  0  0  0  0  0  0  0  0  0  0
   69.8056   37.3381   59.6388 C   0  0  0  0  0  0  0  0  0  0  0  0
   70.9990   36.9057   59.1061 C   0  0  0  0  0  0  0  0  0  0  0  0
   71.4448   35.5236   59.3827 C   0  0  0  0  0  0  0  0  0  0  0  0
   71.7320   37.7882   58.3316 C   0  0  0  0  0  0  0  0  0  0  0  0
   71.2821   39.0858   58.0906 C   0  0  0  0  0  0  0  0  0  0  0  0
   69.6991   45.9289   56.8836 N   0  0  0  0  0  0  0  0  0  0  0  0
   68.9140   47.3914   56.4679 S   0  0  0  0  0  0  0  0  0  0  0  0
   69.4118   48.5301   57.3438 O   0  0  0  0  0  0  0  0  0  0  0  0
   67.4334   47.3154   56.6975 O   0  0  0  0  0  0  0  0  0  0  0  0
   68.8025   47.2660   52.4603 C   0  0  0  0  0  0  0  0  0  0  0  0
   69.5705   48.3245   52.0850 C   0  0  0  0  0  0  0  0  0  0  0  0
   70.1450   49.1088   53.0726 C   0  0  0  0  0  0  0  0  0  0  0  0
   69.9591   48.8452   54.4093 C   0  0  0  0  0  0  0  0  0  0  0  0
   69.1843   47.7770   54.7877 C   0  0  0  0  0  0  0  0  0  0  0  0
   68.6036   46.9837   53.8154 C   0  0  0  0  0  0  0  0  0  0  0  0
   67.4010   45.4026   51.8583 C   0  0  0  0  0  0  0  0  0  0  0  0
   68.2291   46.4833   51.4606 O   0  0  0  0  0  0  0  0  0  0  0  0
 28 29  1  0
 29 22  1  0
 22 23  2  0
 22 27  1  0
 23 24  1  0
 24 25  2  0
 25 26  1  0
 26 19  1  0
 26 27  2  0
 19 20  2  0
 19 21  2  0
 19 18  1  0
 18  1  1  0
  1  2  2  0
  1  5  1  0
  2  3  1  0
  3  4  1  0
  4  5  2  0
  4  9  1  0
  5  6  1  0
  6  7  1  0
  7  8  1  0
  8 11  1  0
  8  9  1  0
 11 12  2  0
 11 17  1  0
 12 13  1  0
 13 14  2  0
 14 15  1  0
 14 16  1  0
 16 17  2  0
  9 10  2  0
M  END
>  <minimizedAffinity>  (40) 
-9.07627

$$$$
data/200k_reference_output/data/smiles/3385.pdb
     RDKit          3D

 28 30  0  0  0  0  0  0  0  0999 V2000
   68.8124   43.8008   56.4804 N   0  0  0  0  0  0  0  0  0  0  0  0
   68.1159   42.6868   56.3547 N   0  0  0  0  0  0  0  0  0  0  0  0
   68.5683   41.7295   57.1760 C   0  0  0  0  0  0  0  0  0  0  0  0
   68.0733   40.3318   57.3541 C   0  0  0  0  0  0  0  0  0  0  0  0
   69.6415   42.3264   57.8639 C   0  0  0  0  0  0  0  0  0  0  0  0
   69.7722   43.6192   57.4125 C   0  0  0  0  0  0  0  0  0  0  0  0
   70.7316   44.6480   57.8543 C   0  0  0  0  0  0  0  0  0  0  0  0
   67.7447   45.9940   52.2072 C   0  0  0  0  0  0  0  0  0  0  0  0
   68.0243   46.0225   53.6582 C   0  0  0  0  0  0  0  0  0  0  0  0
   68.0245   47.2262   54.3236 C   0  0  0  0  0  0  0  0  0  0  0  0
   68.2815   47.2676   55.6687 C   0  0  0  0  0  0  0  0  0  0  0  0
   68.2835   48.3692   56.2845 O   0  0  0  0  0  0  0  0  0  0  0  0
   68.5410   46.1597   56.3886 N   0  0  0  0  0  0  0  0  0  0  0  0
   68.5360   44.9836   55.7143 C   0  0  0  0  0  0  0  0  0  0  0  0
   68.2858   44.9137   54.3907 N   0  0  0  0  0  0  0  0  0  0  0  0
   70.3925   41.6094   58.9048 C   0  0  0  0  0  0  0  0  0  0  0  0
   71.7751   41.2638   58.4815 C   0  0  0  0  0  0  0  0  0  0  0  0
   72.0670   39.8435   58.6230 C   0  0  0  0  0  0  0  0  0  0  0  0
   73.0902   39.4178   59.1627 O   0  0  0  0  0  0  0  0  0  0  0  0
   71.1687   38.8221   58.1366 N   0  0  0  0  0  0  0  0  0  0  0  0
   71.4664   37.4500   58.2831 C   0  0  0  0  0  0  0  0  0  0  0  0
   72.3543   36.8113   57.4226 C   0  0  0  0  0  0  0  0  0  0  0  0
   72.6473   35.4713   57.5630 C   0  0  0  0  0  0  0  0  0  0  0  0
   72.0527   34.7385   58.5726 C   0  0  0  0  0  0  0  0  0  0  0  0
   72.3315   33.4098   58.7256 F   0  0  0  0  0  0  0  0  0  0  0  0
   71.1758   35.3825   59.4160 C   0  0  0  0  0  0  0  0  0  0  0  0
   70.5641   34.7081   60.4238 F   0  0  0  0  0  0  0  0  0  0  0  0
   70.8686   36.7196   59.2950 C   0  0  0  0  0  0  0  0  0  0  0  0
  8  9  1  0
  9 10  2  0
  9 15  1  0
 10 11  1  0
 11 12  2  0
 11 13  1  0
 13 14  1  0
 14  1  1  0
 14 15  2  0
  1  2  1  0
  1  6  1  0
  2  3  2  0
  3  4  1  0
  3  5  1  0
  5 16  1  0
  5  6  2  0
 16 17  1  0
 17 18  1  0
 18 19  2  0
 18 20  1  0
 20 21  1  0
 21 22  2  0
 21 28  1  0
 22 23  1  0
 23 24  2  0
 24 25  1  0
 24 26  1  0
 26 27  1  0
 26 28  2  0
  6  7  1  0
M  END
>  <minimizedAffinity>  (41) 
-9.26823

$$$$
data/200k_reference_output/data/smiles/3567.pdb
     RDKit          3D

 26 29  0  0  0  0  0  0  0  0999 V2000
   71.7365   48.9996   58.0824 C   0  0  0  0  0  0  0  0  0  0  0  0
   71.5822   47.5343   58.2146 C   0  0  1  0  0  0  0  0  0  0  0  0
   71.6326   47.1138   59.6650 C   0  0  0  0  0  0  0  0  0  0  0  0
   71.7685   47.9699   60.5658 O   0  0  0  0  0  0  0  0  0  0  0  0
   71.5205   45.7288   59.9675 N   0  0  0  0  0  0  0  0  0  0  0  0
   70.7992   44.9386   59.0165 C   0  0  0  0  0  0  0  0  0  0  0  0
   70.6992   43.5883   59.2497 C   0  0  0  0  0  0  0  0  0  0  0  0
   70.0456   42.7933   58.3417 C   0  0  0  0  0  0  0  0  0  0  0  0
   69.5106   43.4029   57.2151 C   0  0  0  0  0  0  0  0  0  0  0  0
   68.8680   42.5864   56.3331 F   0  0  0  0  0  0  0  0  0  0  0  0
   69.6186   44.7540   56.9989 C   0  0  0  0  0  0  0  0  0  0  0  0
   70.2676   45.5368   57.9067 C   0  0  0  0  0  0  0  0  0  0  0  0
   70.3749   46.9468   57.6107 N   0  0  0  0  0  0  0  0  0  0  0  0
   69.2266   47.8496   56.8086 S   0  0  0  0  0  0  0  0  0  0  0  0
   67.8566   47.2767   57.0482 O   0  0  0  0  0  0  0  0  0  0  0  0
   69.0077   49.2370   57.4754 O   0  0  0  0  0  0  0  0  0  0  0  0
   69.3796   48.0899   55.0924 C   0  0  0  0  0  0  0  0  0  0  0  0
   70.0860   49.2349   54.6297 C   0  0  0  0  0  0  0  0  0  0  0  0
   70.2241   49.5325   53.3023 C   0  0  0  0  0  0  0  0  0  0  0  0
   69.6829   48.7341   52.3307 C   0  0  0  0  0  0  0  0  0  0  0  0
   68.9887   47.6112   52.7249 C   0  0  0  0  0  0  0  0  0  0  0  0
   68.4478   46.7742   51.7724 C   0  0  0  0  0  0  0  0  0  0  0  0
   67.7772   45.6532   52.1700 C   0  0  0  0  0  0  0  0  0  0  0  0
   67.6752   45.4089   53.5289 C   0  0  0  0  0  0  0  0  0  0  0  0
   68.2026   46.2263   54.4354 N   0  0  0  0  0  0  0  0  0  0  0  0
   68.8551   47.3173   54.1017 C   0  0  0  0  0  0  0  0  0  0  0  0
  2  1  1  1
  2  3  1  0
  2 13  1  0
  3  4  2  0
  3  5  1  0
  5  6  1  0
  6  7  1  0
  6 12  2  0
  7  8  2  0
  8  9  1  0
  9 10  1  0
  9 11  2  0
 11 12  1  0
 12 13  1  0
 13 14  1  0
 14 15  2  0
 14 16  2  0
 14 17  1  0
 17 18  2  0
 17 26  1  0
 18 19  1  0
 19 20  2  0
 20 21  1  0
 21 22  1  0
 21 26  2  0
 22 23  2  0
 23 24  1  0
 24 25  2  0
 25 26  1  0
M  END
>  <minimizedAffinity>  (42) 
-8.72356

$$$$
data/200k_reference_output/data/smiles/3667.pdb
     RDKit          3D

 29 32  0  0  0  0  0  0  0  0999 V2000
   68.5286   47.9513   56.4824 C   0  0  0  0  0  0  0  0  0  0  0  0
   67.3417   47.5750   57.1370 O   0  0  0  0  0  0  0  0  0  0  0  0
   68.4722   47.4557   55.0896 C   0  0  0  0  0  0  0  0  0  0  0  0
   67.9265   46.3282   54.6077 C   0  0  0  0  0  0  0  0  0  0  0  0
   67.9519   45.9099   53.2656 C   0  0  0  0  0  0  0  0  0  0  0  0
   68.6006   46.7467   52.3447 C   0  0  0  0  0  0  0  0  0  0  0  0
   68.7044   46.4594   51.0244 F   0  0  0  0  0  0  0  0  0  0  0  0
   69.1624   47.9020   52.8115 C   0  0  0  0  0  0  0  0  0  0  0  0
   69.1278   48.2908   54.1324 C   0  0  0  0  0  0  0  0  0  0  0  0
   68.6343   49.3983   56.6448 C   0  0  0  0  0  0  0  0  0  0  0  0
   67.6530   50.1547   57.3118 C   0  0  0  0  0  0  0  0  0  0  0  0
   67.8077   51.5053   57.4053 C   0  0  0  0  0  0  0  0  0  0  0  0
   68.8736   52.2086   56.8810 C   0  0  0  0  0  0  0  0  0  0  0  0
   69.0130   53.5434   56.9894 F   0  0  0  0  0  0  0  0  0  0  0  0
   69.8724   51.4706   56.2074 C   0  0  0  0  0  0  0  0  0  0  0  0
   69.6873   50.1030   56.1364 C   0  0  0  0  0  0  0  0  0  0  0  0
   70.6281   47.9840   57.5954 O   0  0  0  0  0  0  0  0  0  0  0  0
   69.6841   47.2903   57.2145 C   0  0  0  0  0  0  0  0  0  0  0  0
   69.7047   45.9201   57.4633 N   0  0  0  0  0  0  0  0  0  0  0  0
   70.7144   45.0808   58.1248 C   0  0  0  0  0  0  0  0  0  0  0  0
   70.1793   43.6590   57.9318 C   0  0  0  0  0  0  0  0  0  0  0  0
   69.7496   42.5588   57.7865 C   0  0  0  0  0  0  0  0  0  0  0  0
   69.2126   41.1668   57.6178 C   0  0  0  0  0  0  0  0  0  0  0  0
   69.8821   40.3910   58.6165 N   0  0  2  0  0  0  0  0  0  0  0  0
   71.3023   40.4020   58.5078 C   0  0  0  0  0  0  0  0  0  0  0  0
   71.8035   39.0443   58.9391 C   0  0  2  0  0  0  0  0  0  0  0  0
   71.5655   37.8496   58.1028 C   0  0  0  0  0  0  0  0  0  0  0  0
   70.6150   38.2290   59.2110 C   0  0  2  0  0  0  0  0  0  0  0  0
   69.4257   39.0425   58.7374 C   0  0  0  0  0  0  0  0  0  0  0  0
 17 18  2  0
 18 19  1  0
 18  1  1  0
 19 20  1  0
 20 21  1  0
 21 22  3  0
 22 23  1  0
 24 23  1  6
 24 25  1  0
 24 29  1  0
 26 25  1  6
 26 27  1  0
 26 28  1  0
 28 27  1  6
 28 29  1  0
  1  2  1  0
  1  3  1  0
  1 10  1  0
  3  4  2  0
  3  9  1  0
  4  5  1  0
  5  6  2  0
  6  7  1  0
  6  8  1  0
  8  9  2  0
 10 11  2  0
 10 16  1  0
 11 12  1  0
 12 13  2  0
 13 14  1  0
 13 15  1  0
 15 16  2  0
M  CHG  1  24   1
M  END
>  <minimizedAffinity>  (43) 
-9.02960

$$$$
data/200k_reference_output/data/smiles/3712.pdb
     RDKit          3D

 19 20  0  0  0  0  0  0  0  0999 V2000
   69.3236   47.6001   52.8273 C   0  0  0  0  0  0  0  0  0  0  0  0
   69.2508   47.4862   54.2172 C   0  0  0  0  0  0  0  0  0  0  0  0
   68.4669   46.5623   54.8429 C   0  0  0  0  0  0  0  0  0  0  0  0
   67.7195   45.7101   54.0673 C   0  0  0  0  0  0  0  0  0  0  0  0
   67.7768   45.8042   52.6732 C   0  0  0  0  0  0  0  0  0  0  0  0
   68.5765   46.7470   52.0504 C   0  0  0  0  0  0  0  0  0  0  0  0
   68.6068   46.8049   50.6819 F   0  0  0  0  0  0  0  0  0  0  0  0
   71.2739   48.9942   52.7262 O   0  0  0  0  0  0  0  0  0  0  0  0
   70.1409   48.6458   52.2613 C   0  0  0  0  0  0  0  0  0  0  0  0
   69.7686   49.4026   51.1241 O   0  0  0  0  0  0  0  0  0  0  0  0
   68.3863   46.4478   56.2654 N   0  0  0  0  0  0  0  0  0  0  0  0
   68.9372   47.4561   57.0920 C   0  0  0  0  0  0  0  0  0  0  0  0
   70.2923   47.1505   57.9313 S   0  0  0  0  0  0  0  0  0  0  0  0
   68.3079   48.7664   57.2259 C   0  0  0  0  0  0  0  0  0  0  0  0
   67.0703   48.9816   57.7826 C   0  0  0  0  0  0  0  0  0  0  0  0
   66.5380   50.2739   57.8693 C   0  0  0  0  0  0  0  0  0  0  0  0
   67.2641   51.3228   57.3925 C   0  0  0  0  0  0  0  0  0  0  0  0
   68.5079   51.1080   56.8331 C   0  0  0  0  0  0  0  0  0  0  0  0
   68.9623   49.8665   56.7762 N   0  0  0  0  0  0  0  0  0  0  0  0
  8  9  2  0
  9 10  1  0
  9  1  1  0
  1  2  2  0
  1  6  1  0
  2  3  1  0
  3 11  1  0
  3  4  2  0
 11 12  1  0
 12 13  2  0
 12 14  1  0
 14 15  2  0
 14 19  1  0
 15 16  1  0
 16 17  2  0
 17 18  1  0
 18 19  2  0
  4  5  1  0
  5  6  2  0
  6  7  1  0
M  END
>  <minimizedAffinity>  (44) 
-8.51281

$$$$
data/200k_reference_output/data/smiles/3893.pdb
     RDKit          3D

 23 25  0  0  0  0  0  0  0  0999 V2000
   66.9905   43.0584   55.2609 O   0  0  0  0  0  0  0  0  0  0  0  0
   67.7885   42.8988   56.2673 C   0  0  0  0  0  0  0  0  0  0  0  0
   68.5593   44.0741   56.4921 N   0  0  0  0  0  0  0  0  0  0  0  0
   67.8127   41.6650   56.9926 C   0  0  0  0  0  0  0  0  0  0  0  0
   67.8991   41.7300   58.4007 C   0  0  0  0  0  0  0  0  0  0  0  0
   67.9499   40.5741   59.1443 C   0  0  0  0  0  0  0  0  0  0  0  0
   68.0399   40.6123   60.5357 C   0  0  0  0  0  0  0  0  0  0  0  0
   68.0934   39.4499   61.2785 C   0  0  0  0  0  0  0  0  0  0  0  0
   68.0615   38.2020   60.7016 C   0  0  0  0  0  0  0  0  0  0  0  0
   67.9725   38.1495   59.3181 C   0  0  0  0  0  0  0  0  0  0  0  0
   67.9193   39.3231   58.5779 C   0  0  0  0  0  0  0  0  0  0  0  0
   67.8380   39.2917   57.2630 O   0  0  0  0  0  0  0  0  0  0  0  0
   67.7873   40.3885   56.5118 C   0  0  0  0  0  0  0  0  0  0  0  0
   67.7121   40.2052   55.2979 O   0  0  0  0  0  0  0  0  0  0  0  0
   68.5243   45.1952   55.8327 N   0  0  0  0  0  0  0  0  0  0  0  0
   68.3386   46.3005   55.4432 C   0  0  0  0  0  0  0  0  0  0  0  0
   68.7796   46.9975   54.2391 C   0  0  0  0  0  0  0  0  0  0  0  0
   69.4180   48.2248   54.2866 C   0  0  0  0  0  0  0  0  0  0  0  0
   69.8206   48.8873   53.1362 C   0  0  0  0  0  0  0  0  0  0  0  0
   69.5959   48.3402   51.8852 C   0  0  0  0  0  0  0  0  0  0  0  0
   68.9644   47.1236   51.8215 C   0  0  0  0  0  0  0  0  0  0  0  0
   68.5730   46.4827   52.9805 C   0  0  0  0  0  0  0  0  0  0  0  0
   67.9475   45.2758   52.8871 F   0  0  0  0  0  0  0  0  0  0  0  0
  1  2  2  0
  2  3  1  0
  2  4  1  0
  3 15  1  0
 15 16  2  0
 16 17  1  0
 17 18  2  0
 17 22  1  0
 18 19  1  0
 19 20  2  0
 20 21  1  0
 21 22  2  0
 22 23  1  0
  4  5  2  0
  4 13  1  0
  5  6  1  0
  6  7  2  0
  6 11  1  0
  7  8  1  0
  8  9  2  0
  9 10  1  0
 10 11  2  0
 11 12  1  0
 12 13  1  0
 13 14  2  0
M  END
>  <minimizedAffinity>  (45) 
-8.77727

$$$$
data/200k_reference_output/data/smiles/3965.pdb
     RDKit          3D

 31 35  0  0  0  0  0  0  0  0999 V2000
   68.0919   44.6615   55.1416 C   0  0  0  0  0  0  0  0  0  0  0  0
   68.4934   45.9566   55.3907 C   0  0  0  0  0  0  0  0  0  0  0  0
   68.4422   46.9638   54.4512 C   0  0  0  0  0  0  0  0  0  0  0  0
   67.9631   46.6555   53.1954 C   0  0  0  0  0  0  0  0  0  0  0  0
   67.5628   45.3480   52.9576 C   0  0  0  0  0  0  0  0  0  0  0  0
   67.6294   44.3907   53.9067 N   0  0  0  0  0  0  0  0  0  0  0  0
   68.8771   48.3321   54.7492 C   0  0  0  0  0  0  0  0  0  0  0  0
   69.3670   49.2232   53.8084 C   0  0  0  0  0  0  0  0  0  0  0  0
   69.6816   50.4165   54.4177 C   0  0  0  0  0  0  0  0  0  0  0  0
   69.3835   50.2596   55.7502 C   0  0  0  0  0  0  0  0  0  0  0  0
   68.8978   48.9797   55.9043 N   0  0  0  0  0  0  0  0  0  0  0  0
   69.6319   51.3513   56.6961 C   0  0  2  0  0  0  0  0  0  0  0  0
   71.0687   51.2869   57.2491 C   0  0  0  0  0  0  0  0  0  0  0  0
   70.8937   50.1909   58.2786 C   0  0  0  0  0  0  0  0  0  0  0  0
   69.5780   50.3482   58.8167 N   0  0  0  0  0  0  0  0  0  0  0  0
   68.8283   51.2118   57.9694 C   0  0  0  0  0  0  0  0  0  0  0  0
   69.5029   52.7016   56.0801 C   0  0  0  0  0  0  0  0  0  0  0  0
   70.3642   52.7655   54.9180 N   0  0  0  0  0  0  0  0  0  0  0  0
   70.1949   51.7119   53.9625 C   0  0  0  0  0  0  0  0  0  0  0  0
   70.4769   51.8831   52.7652 O   0  0  0  0  0  0  0  0  0  0  0  0
   67.3829   42.4918   56.1570 C   0  0  0  0  0  0  0  0  0  0  0  0
   66.5765   42.3546   55.1916 O   0  0  0  0  0  0  0  0  0  0  0  0
   68.1675   43.6587   56.1545 N   0  0  0  0  0  0  0  0  0  0  0  0
   67.6250   38.3017   60.1424 C   0  0  0  0  0  0  0  0  0  0  0  0
   67.5576   39.3885   59.1179 C   0  0  0  0  0  0  0  0  0  0  0  0
   68.1889   39.2730   57.8960 C   0  0  0  0  0  0  0  0  0  0  0  0
   68.1277   40.2756   56.9508 C   0  0  0  0  0  0  0  0  0  0  0  0
   67.4317   41.4471   57.1742 C   0  0  0  0  0  0  0  0  0  0  0  0
   66.8043   41.5550   58.3959 C   0  0  0  0  0  0  0  0  0  0  0  0
   66.8606   40.5552   59.3490 C   0  0  0  0  0  0  0  0  0  0  0  0
   66.1584   40.7147   60.6714 C   0  0  0  0  0  0  0  0  0  0  0  0
 24 25  1  0
 25 26  2  0
 25 30  1  0
 26 27  1  0
 27 28  2  0
 28 21  1  0
 28 29  1  0
 21 22  2  0
 21 23  1  0
 23  1  1  0
  1  2  2  0
  1  6  1  0
  2  3  1  0
  3  7  1  0
  3  4  2  0
  7  8  2  0
  7 11  1  0
  8  9  1  0
  9 10  2  0
  9 19  1  0
 10 11  1  0
 12 10  1  0
 12 13  1  1
 12 16  1  0
 12 17  1  0
 13 14  1  0
 14 15  1  0
 15 16  1  0
 17 18  1  0
 18 19  1  0
 19 20  2  0
  4  5  1  0
  5  6  2  0
 29 30  2  0
 30 31  1  0
M  CHG  1  15   1
M  END
>  <minimizedAffinity>  (46) 
-8.95747

$$$$
data/200k_reference_output/data/smiles/4004.pdb
     RDKit          3D

 29 32  0  0  0  0  0  0  0  0999 V2000
   70.4393   43.3817   57.8494 C   0  0  0  0  0  0  0  0  0  0  0  0
   69.2760   42.6368   57.6449 C   0  0  0  0  0  0  0  0  0  0  0  0
   69.2610   41.2680   57.8243 C   0  0  0  0  0  0  0  0  0  0  0  0
   70.3857   40.5684   58.2135 C   0  0  0  0  0  0  0  0  0  0  0  0
   70.4129   39.2100   58.4017 C   0  0  0  0  0  0  0  0  0  0  0  0
   69.3542   38.5558   58.2125 O   0  0  0  0  0  0  0  0  0  0  0  0
   71.5250   38.5368   58.7833 N   0  0  0  0  0  0  0  0  0  0  0  0
   72.6329   39.2761   58.9745 C   0  0  0  0  0  0  0  0  0  0  0  0
   73.6773   38.6439   59.3323 O   0  0  0  0  0  0  0  0  0  0  0  0
   72.6298   40.6108   58.7956 N   0  0  0  0  0  0  0  0  0  0  0  0
   71.5348   41.2922   58.4172 C   0  0  0  0  0  0  0  0  0  0  0  0
   71.5544   42.6767   58.2367 C   0  0  0  0  0  0  0  0  0  0  0  0
   71.5390   37.1225   58.9748 C   0  0  0  0  0  0  0  0  0  0  0  0
   71.0452   36.5744   60.1334 C   0  0  0  0  0  0  0  0  0  0  0  0
   71.0554   35.2104   60.3272 C   0  0  0  0  0  0  0  0  0  0  0  0
   71.5531   34.3399   59.3852 C   0  0  0  0  0  0  0  0  0  0  0  0
   72.0496   34.8747   58.2235 C   0  0  0  0  0  0  0  0  0  0  0  0
   72.0394   36.2476   58.0296 C   0  0  0  0  0  0  0  0  0  0  0  0
   72.5387   36.7677   56.8621 F   0  0  0  0  0  0  0  0  0  0  0  0
   71.3718   45.5402   58.0692 O   0  0  0  0  0  0  0  0  0  0  0  0
   70.4125   44.8255   57.6487 C   0  0  0  0  0  0  0  0  0  0  0  0
   69.3622   45.4930   57.0001 N   0  0  0  0  0  0  0  0  0  0  0  0
   69.3111   46.9189   56.7886 C   0  0  0  0  0  0  0  0  0  0  0  0
   68.4849   47.3520   55.6220 C   0  0  0  0  0  0  0  0  0  0  0  0
   68.9317   46.9120   54.3466 N   0  0  0  0  0  0  0  0  0  0  0  0
   69.2529   47.9399   53.4045 C   0  0  0  0  0  0  0  0  0  0  0  0
   69.1858   47.2789   52.0306 C   0  0  0  0  0  0  0  0  0  0  0  0
   68.1447   46.1956   52.2339 C   0  0  0  0  0  0  0  0  0  0  0  0
   67.9592   46.0535   53.7355 C   0  0  0  0  0  0  0  0  0  0  0  0
 20 21  2  0
 21 22  1  0
 21  1  1  0
 22 23  1  0
 23 24  1  0
 24 25  1  0
 25 26  1  0
 25 29  1  0
 26 27  1  0
 27 28  1  0
 28 29  1  0
  1  2  2  0
  1 12  1  0
  2  3  1  0
  3  4  2  0
  4  5  1  0
  4 11  1  0
  5  6  2  0
  5  7  1  0
  7 13  1  0
  7  8  1  0
 13 14  2  0
 13 18  1  0
 14 15  1  0
 15 16  2  0
 16 17  1  0
 17 18  2  0
 18 19  1  0
  8  9  2  0
  8 10  1  0
 10 11  1  0
 11 12  2  0
M  CHG  1  25   1
M  END
>  <minimizedAffinity>  (47) 
-8.74126

$$$$
data/200k_reference_output/data/smiles/4074.pdb
     RDKit          3D

 26 27  0  0  0  0  0  0  0  0999 V2000
   67.7334   44.2986   55.2070 N   0  0  0  0  0  0  0  0  0  0  0  0
   68.4360   43.5292   56.1725 C   0  0  0  0  0  0  0  0  0  0  0  0
   69.5549   43.9644   56.5480 O   0  0  0  0  0  0  0  0  0  0  0  0
   69.2067   47.9164   53.5642 C   0  0  0  0  0  0  0  0  0  0  0  0
   68.7343   46.9028   52.7414 C   0  0  0  0  0  0  0  0  0  0  0  0
   68.2589   45.7339   53.2965 C   0  0  0  0  0  0  0  0  0  0  0  0
   68.2264   45.5099   54.6572 C   0  0  0  0  0  0  0  0  0  0  0  0
   68.6979   46.5187   55.4836 C   0  0  0  0  0  0  0  0  0  0  0  0
   69.1709   47.6860   54.9201 C   0  0  0  0  0  0  0  0  0  0  0  0
   69.8407   49.3355   51.1595 N   0  0  0  0  0  0  0  0  0  0  0  0
   69.8159   49.4109   52.8942 S   0  0  0  0  0  0  0  0  0  0  0  0
   71.2572   49.5711   53.3297 O   0  0  0  0  0  0  0  0  0  0  0  0
   69.0632   50.6039   53.3613 O   0  0  0  0  0  0  0  0  0  0  0  0
   67.8777   42.2772   56.7093 C   0  0  0  0  0  0  0  0  0  0  0  0
   68.1007   41.8795   57.9392 C   0  0  0  0  0  0  0  0  0  0  0  0
   67.5757   40.6492   58.5313 C   0  0  0  0  0  0  0  0  0  0  0  0
   67.9971   39.3947   58.1676 C   0  0  0  0  0  0  0  0  0  0  0  0
   67.4658   38.2413   58.7630 C   0  0  0  0  0  0  0  0  0  0  0  0
   66.4957   38.3173   59.7390 C   0  0  0  0  0  0  0  0  0  0  0  0
   66.0723   39.5790   60.1051 C   0  0  0  0  0  0  0  0  0  0  0  0
   66.5936   40.7145   59.5204 C   0  0  0  0  0  0  0  0  0  0  0  0
   65.9827   37.1639   60.3156 O   0  0  0  0  0  0  0  0  0  0  0  0
   64.8116   36.5880   59.7375 C   0  0  0  0  0  0  0  0  0  0  0  0
   64.4681   35.5243   60.5688 F   0  0  0  0  0  0  0  0  0  0  0  0
   63.8194   37.5205   59.6604 F   0  0  0  0  0  0  0  0  0  0  0  0
   65.1140   36.0243   58.5009 F   0  0  0  0  0  0  0  0  0  0  0  0
 10 11  1  0
 11 12  2  0
 11 13  2  0
 11  4  1  0
  4  5  2  0
  4  9  1  0
  5  6  1  0
  6  7  2  0
  7  1  1  0
  7  8  1  0
  1  2  1  0
  2  3  2  0
  2 14  1  0
 14 15  2  0
 15 16  1  0
 16 17  2  0
 16 21  1  0
 17 18  1  0
 18 19  2  0
 19 22  1  0
 19 20  1  0
 22 23  1  0
 23 24  1  0
 23 25  1  0
 23 26  1  0
 20 21  2  0
  8  9  2  0
M  END
>  <minimizedAffinity>  (48) 
-8.75658

$$$$
data/200k_reference_output/data/smiles/4284.pdb
     RDKit          3D

 23 25  0  0  0  0  0  0  0  0999 V2000
   69.1891   45.3196   56.3311 C   0  0  0  0  0  0  0  0  0  0  0  0
   69.2069   43.9357   56.7925 N   0  0  0  0  0  0  0  0  0  0  0  0
   68.2148   42.9610   56.3565 C   0  0  0  0  0  0  0  0  0  0  0  0
   67.2777   43.2139   55.5485 O   0  0  0  0  0  0  0  0  0  0  0  0
   68.5091   41.6985   57.0106 C   0  0  0  0  0  0  0  0  0  0  0  0
   67.8748   40.4534   56.9418 C   0  0  0  0  0  0  0  0  0  0  0  0
   68.3563   39.4045   57.6671 C   0  0  0  0  0  0  0  0  0  0  0  0
   69.4611   39.5460   58.4724 C   0  0  0  0  0  0  0  0  0  0  0  0
   70.1024   40.7707   58.5532 C   0  0  0  0  0  0  0  0  0  0  0  0
   69.6138   41.8294   57.8193 C   0  0  0  0  0  0  0  0  0  0  0  0
   70.0411   43.2398   57.6726 C   0  0  0  0  0  0  0  0  0  0  0  0
   71.0400   43.6905   58.2927 O   0  0  0  0  0  0  0  0  0  0  0  0
   68.0674   45.5717   55.4838 N   0  0  0  0  0  0  0  0  0  0  0  0
   69.1962   47.5093   52.5177 C   0  0  0  0  0  0  0  0  0  0  0  0
   68.4737   46.9323   51.4969 C   0  0  0  0  0  0  0  0  0  0  0  0
   67.6256   45.9047   51.7678 C   0  0  0  0  0  0  0  0  0  0  0  0
   67.4945   45.4454   53.0750 C   0  0  0  0  0  0  0  0  0  0  0  0
   68.1852   45.9773   54.1349 C   0  0  0  0  0  0  0  0  0  0  0  0
   69.0466   47.0359   53.7952 C   0  0  0  0  0  0  0  0  0  0  0  0
   70.1255   48.6300   52.2408 C   0  0  0  0  0  0  0  0  0  0  0  0
   70.0622   49.2495   51.1600 O   0  0  0  0  0  0  0  0  0  0  0  0
   70.8314   50.1058   54.0661 C   0  0  0  0  0  0  0  0  0  0  0  0
   71.0785   49.0097   53.1735 O   0  0  0  0  0  0  0  0  0  0  0  0
 22 23  1  0
 23 20  1  0
 20 21  2  0
 20 14  1  0
 14 15  2  0
 14 19  1  0
 15 16  1  0
 16 17  2  0
 17 18  1  0
 18 13  1  0
 18 19  2  0
 13  1  1  0
  1  2  1  0
  2  3  1  0
  2 11  1  0
  3  4  2  0
  3  5  1  0
  5  6  1  0
  5 10  2  0
  6  7  2  0
  7  8  1  0
  8  9  2  0
  9 10  1  0
 10 11  1  0
 11 12  2  0
M  END
>  <minimizedAffinity>  (49) 
-8.65089

$$$$
data/200k_reference_output/data/smiles/4308.pdb
     RDKit          3D

 33 37  0  0  0  0  0  0  0  0999 V2000
   71.0342   48.7535   58.9666 C   0  0  0  0  0  0  0  0  0  0  0  0
   70.7982   50.1066   59.0125 C   0  0  0  0  0  0  0  0  0  0  0  0
   69.9308   50.7191   58.1442 C   0  0  0  0  0  0  0  0  0  0  0  0
   69.2724   49.9415   57.1888 C   0  0  0  0  0  0  0  0  0  0  0  0
   69.4708   48.5970   57.1006 C   0  0  0  0  0  0  0  0  0  0  0  0
   70.3698   48.0210   58.0158 C   0  0  0  0  0  0  0  0  0  0  0  0
   71.5479   47.2789   60.7174 O   0  0  0  0  0  0  0  0  0  0  0  0
   71.9531   48.1375   59.9000 C   0  0  0  0  0  0  0  0  0  0  0  0
   73.3460   48.5073   59.8964 N   0  0  0  0  0  0  0  0  0  0  0  0
   74.2357   47.8695   60.8375 C   0  0  0  0  0  0  0  0  0  0  0  0
   75.5464   48.5708   61.0441 C   0  0  0  0  0  0  0  0  0  0  0  0
   75.8778   49.4568   59.9298 N   0  0  0  0  0  0  0  0  0  0  0  0
   77.1394   49.3755   59.3036 C   0  0  0  0  0  0  0  0  0  0  0  0
   77.9654   48.5083   59.7085 O   0  0  0  0  0  0  0  0  0  0  0  0
   74.8266   50.3659   59.5387 C   0  0  0  0  0  0  0  0  0  0  0  0
   73.7401   49.5029   58.9227 C   0  0  0  0  0  0  0  0  0  0  0  0
   77.5507   50.2459   58.1966 C   0  0  0  0  0  0  0  0  0  0  0  0
   77.3573   49.5340   56.8422 C   0  0  0  0  0  0  0  0  0  0  0  0
   78.0648   50.5142   55.9292 C   0  0  0  0  0  0  0  0  0  0  0  0
   79.1869   51.1282   56.7760 C   0  0  0  0  0  0  0  0  0  0  0  0
   79.0768   50.4099   58.1226 C   0  0  0  0  0  0  0  0  0  0  0  0
   68.8151   47.7007   56.1008 C   0  0  0  0  0  0  0  0  0  0  0  0
   69.2196   47.9419   54.7170 C   0  0  0  0  0  0  0  0  0  0  0  0
   70.1128   48.9496   54.4571 N   0  0  0  0  0  0  0  0  0  0  0  0
   70.5023   49.2748   53.2517 N   0  0  0  0  0  0  0  0  0  0  0  0
   70.0508   48.6379   52.1621 C   0  0  0  0  0  0  0  0  0  0  0  0
   70.4370   48.9657   51.0034 O   0  0  0  0  0  0  0  0  0  0  0  0
   69.1401   47.6029   52.3622 C   0  0  0  0  0  0  0  0  0  0  0  0
   68.6808   46.9349   51.2603 C   0  0  0  0  0  0  0  0  0  0  0  0
   67.8037   45.9120   51.4412 C   0  0  0  0  0  0  0  0  0  0  0  0
   67.3719   45.5373   52.6942 C   0  0  0  0  0  0  0  0  0  0  0  0
   67.8484   46.2273   53.7968 C   0  0  0  0  0  0  0  0  0  0  0  0
   68.7303   47.2605   53.6310 C   0  0  0  0  0  0  0  0  0  0  0  0
  7  8  2  0
  8  1  1  0
  8  9  1  0
  1  2  2  0
  1  6  1  0
  2  3  1  0
  3  4  2  0
  4  5  1  0
  5 22  1  0
  5  6  2  0
 22 23  1  0
 23 24  2  0
 23 33  1  0
 24 25  1  0
 25 26  1  0
 26 27  2  0
 26 28  1  0
 28 29  1  0
 28 33  2  0
 29 30  2  0
 30 31  1  0
 31 32  2  0
 32 33  1  0
  9 10  1  0
  9 16  1  0
 10 11  1  0
 11 12  1  0
 12 13  1  0
 12 15  1  0
 13 14  2  0
 13 17  1  0
 17 18  1  0
 17 21  1  0
 18 19  1  0
 19 20  1  0
 20 21  1  0
 15 16  1  0
M  END
>  <minimizedAffinity>  (50) 
-9.86695

$$$$
data/200k_reference_output/data/smiles/4402.pdb
     RDKit          3D

 25 28  0  0  0  0  0  0  0  0999 V2000
   70.2965   46.2176   58.0227 O   0  0  0  0  0  0  0  0  0  0  0  0
   69.5073   46.1650   57.0306 C   0  0  0  0  0  0  0  0  0  0  0  0
   69.0534   44.9003   56.5628 N   0  0  0  0  0  0  0  0  0  0  0  0
   69.5139   43.7633   57.2410 N   0  0  0  0  0  0  0  0  0  0  0  0
   68.9323   42.6142   57.1391 C   0  0  0  0  0  0  0  0  0  0  0  0
   67.7671   42.3513   56.3396 C   0  0  0  0  0  0  0  0  0  0  0  0
   67.1677   43.2093   55.6380 O   0  0  0  0  0  0  0  0  0  0  0  0
   67.4660   40.9729   56.5155 N   0  0  0  0  0  0  0  0  0  0  0  0
   68.3957   40.3533   57.3956 C   0  0  0  0  0  0  0  0  0  0  0  0
   68.5335   39.0620   57.8773 C   0  0  0  0  0  0  0  0  0  0  0  0
   69.5510   38.7123   58.7440 C   0  0  0  0  0  0  0  0  0  0  0  0
   70.4325   39.7106   59.1161 C   0  0  0  0  0  0  0  0  0  0  0  0
   71.8435   39.2482   60.3127 Br  0  0  0  0  0  0  0  0  0  0  0  0
   70.2985   40.9990   58.6387 C   0  0  0  0  0  0  0  0  0  0  0  0
   69.2810   41.3433   57.7722 C   0  0  0  0  0  0  0  0  0  0  0  0
   69.0912   47.4479   56.3948 C   0  0  0  0  0  0  0  0  0  0  0  0
   68.9155   47.2876   54.9480 C   0  0  0  0  0  0  0  0  0  0  0  0
   69.5951   48.0810   54.0748 C   0  0  0  0  0  0  0  0  0  0  0  0
   69.4462   47.9488   52.7171 C   0  0  0  0  0  0  0  0  0  0  0  0
   68.5811   46.9822   52.1972 C   0  0  0  0  0  0  0  0  0  0  0  0
   67.8826   46.1676   53.0690 C   0  0  0  0  0  0  0  0  0  0  0  0
   68.0573   46.3297   54.4252 C   0  0  0  0  0  0  0  0  0  0  0  0
   67.1065   45.3091   52.3005 O   0  0  0  0  0  0  0  0  0  0  0  0
   67.0922   45.7668   50.9404 C   0  0  0  0  0  0  0  0  0  0  0  0
   68.2333   46.6235   50.8942 O   0  0  0  0  0  0  0  0  0  0  0  0
  1  2  2  0
  2 16  1  0
  2  3  1  0
 16 17  1  0
 17 18  2  0
 17 22  1  0
 18 19  1  0
 19 20  2  0
 20 21  1  0
 20 25  1  0
 21 22  2  0
 21 23  1  0
 23 24  1  0
 24 25  1  0
  3  4  1  0
  4  5  2  0
  5  6  1  0
  5 15  1  0
  6  7  2  0
  6  8  1  0
  8  9  1  0
  9 10  1  0
  9 15  2  0
 10 11  2  0
 11 12  1  0
 12 13  1  0
 12 14  2  0
 14 15  1  0
M  END
>  <minimizedAffinity>  (51) 
-8.72922

$$$$
data/200k_reference_output/data/smiles/4523.pdb
     RDKit          3D

 23 25  0  0  0  0  0  0  0  0999 V2000
   70.1431   49.8930   53.4829 C   0  0  0  0  0  0  0  0  0  0  0  0
   70.9102   50.3152   54.4994 N   0  0  0  0  0  0  0  0  0  0  0  0
   71.2844   51.5965   54.3189 C   0  0  0  0  0  0  0  0  0  0  0  0
   70.7295   51.9741   53.1530 N   0  0  0  0  0  0  0  0  0  0  0  0
   70.0403   50.9410   52.6513 N   0  0  0  0  0  0  0  0  0  0  0  0
   68.6534   46.5079   54.2035 C   0  0  0  0  0  0  0  0  0  0  0  0
   68.3619   46.0377   52.9391 C   0  0  0  0  0  0  0  0  0  0  0  0
   68.6660   46.8523   51.8715 C   0  0  0  0  0  0  0  0  0  0  0  0
   69.2418   48.1005   52.0349 C   0  0  0  0  0  0  0  0  0  0  0  0
   69.5366   48.5800   53.2950 C   0  0  0  0  0  0  0  0  0  0  0  0
   69.2288   47.7551   54.3575 C   0  0  0  0  0  0  0  0  0  0  0  0
   68.4427   46.1099   56.5092 O   0  0  0  0  0  0  0  0  0  0  0  0
   68.3333   45.6522   55.3361 C   0  0  0  0  0  0  0  0  0  0  0  0
   67.8986   44.3062   55.1776 N   0  0  0  0  0  0  0  0  0  0  0  0
   67.6049   43.5222   56.2579 O   0  0  0  0  0  0  0  0  0  0  0  0
   72.1459   52.4190   55.2404 C   0  0  0  0  0  0  0  0  0  0  0  0
   71.0201   53.2658   56.4034 S   0  0  0  0  0  0  0  0  0  0  0  0
   69.7327   52.1295   56.9282 C   0  0  0  0  0  0  0  0  0  0  0  0
   70.0777   51.1604   57.8512 C   0  0  0  0  0  0  0  0  0  0  0  0
   69.1332   50.2397   58.3092 C   0  0  0  0  0  0  0  0  0  0  0  0
   67.8347   50.3002   57.8299 C   0  0  0  0  0  0  0  0  0  0  0  0
   67.4922   51.2806   56.8980 C   0  0  0  0  0  0  0  0  0  0  0  0
   68.4489   52.1868   56.4577 C   0  0  0  0  0  0  0  0  0  0  0  0
 12 13  2  0
 13 14  1  0
 13  6  1  0
 14 15  1  0
  6  7  2  0
  6 11  1  0
  7  8  1  0
  8  9  2  0
  9 10  1  0
 10  1  1  0
 10 11  2  0
  1  2  2  0
  1  5  1  0
  2  3  1  0
  3 16  1  0
  3  4  2  0
 16 17  1  0
 17 18  1  0
 18 19  2  0
 18 23  1  0
 19 20  1  0
 20 21  2  0
 21 22  1  0
 22 23  2  0
  4  5  1  0
M  END
>  <minimizedAffinity>  (52) 
-8.70500

$$$$
data/200k_reference_output/data/smiles/4731.pdb
     RDKit          3D

 20 22  0  0  0  0  0  0  0  0999 V2000
   69.4437   48.3082   53.9800 C   0  0  0  0  0  0  0  0  0  0  0  0
   69.2595   48.1152   55.3517 C   0  0  0  0  0  0  0  0  0  0  0  0
   68.4130   47.1183   55.7867 C   0  0  0  0  0  0  0  0  0  0  0  0
   68.2187   46.9105   57.0319 O   0  0  0  0  0  0  0  0  0  0  0  0
   67.7666   46.3364   54.9663 O   0  0  0  0  0  0  0  0  0  0  0  0
   67.8923   46.4655   53.6761 C   0  0  0  0  0  0  0  0  0  0  0  0
   67.2057   45.6414   52.8562 N   0  0  0  0  0  0  0  0  0  0  0  0
   67.3130   45.7582   51.5236 C   0  0  0  0  0  0  0  0  0  0  0  0
   66.6662   44.9821   50.7626 O   0  0  0  0  0  0  0  0  0  0  0  0
   68.1214   46.7148   51.0184 N   0  0  0  0  0  0  0  0  0  0  0  0
   68.8116   47.5391   51.8150 C   0  0  0  0  0  0  0  0  0  0  0  0
   69.5577   48.4317   51.3407 O   0  0  0  0  0  0  0  0  0  0  0  0
   68.7311   47.4512   53.1740 C   0  0  0  0  0  0  0  0  0  0  0  0
   70.3794   49.2910   53.5530 C   0  0  0  0  0  0  0  0  0  0  0  0
   70.5644   50.4016   54.5733 C   0  0  0  0  0  0  0  0  0  0  0  0
   69.4187   51.2956   54.7610 C   0  0  0  0  0  0  0  0  0  0  0  0
   69.3643   53.2928   56.2199 C   0  0  0  0  0  0  0  0  0  0  0  0
   68.9442   51.7831   56.0510 C   0  0  0  0  0  0  0  0  0  0  0  0
   67.8302   51.4306   56.8953 C   0  0  0  0  0  0  0  0  0  0  0  0
   69.2525   51.0629   57.3305 C   0  0  0  0  0  0  0  0  0  0  0  0
 17 18  1  0
 18 16  1  0
 18 19  1  0
 18 20  1  0
 16 15  1  0
 15 14  1  0
 14  1  1  0
  1  2  2  0
  1 13  1  0
  2  3  1  0
  3  4  2  0
  3  5  1  0
  5  6  1  0
  6  7  1  0
  6 13  2  0
  7  8  1  0
  8  9  2  0
  8 10  1  0
 10 11  1  0
 11 12  2  0
 11 13  1  0
 19 20  1  0
M  END
>  <minimizedAffinity>  (53) 
-8.85963

$$$$
data/200k_reference_output/data/smiles/4946.pdb
     RDKit          3D

 27 29  0  0  0  0  0  0  0  0999 V2000
   71.7396   41.6050   58.2902 C   0  0  0  0  0  0  0  0  0  0  0  0
   73.1227   41.7435   58.2223 C   0  0  0  0  0  0  0  0  0  0  0  0
   73.7103   42.9818   58.1268 C   0  0  0  0  0  0  0  0  0  0  0  0
   75.1848   43.0911   58.0571 C   0  0  0  0  0  0  0  0  0  0  0  0
   72.8873   44.0945   58.0997 C   0  0  0  0  0  0  0  0  0  0  0  0
   73.4906   45.3126   58.0135 F   0  0  0  0  0  0  0  0  0  0  0  0
   71.5137   44.0442   58.1622 C   0  0  0  0  0  0  0  0  0  0  0  0
   70.9854   42.7444   58.2578 C   0  0  0  0  0  0  0  0  0  0  0  0
   71.4541   36.6307   58.7566 C   0  0  0  0  0  0  0  0  0  0  0  0
   71.0825   38.0670   58.5992 C   0  0  0  0  0  0  0  0  0  0  0  0
   69.7990   38.5857   58.4836 C   0  0  0  0  0  0  0  0  0  0  0  0
   69.9227   39.9194   58.3604 N   0  0  0  0  0  0  0  0  0  0  0  0
   71.1681   40.2997   58.3878 N   0  0  0  0  0  0  0  0  0  0  0  0
   71.9116   39.1700   58.5346 C   0  0  0  0  0  0  0  0  0  0  0  0
   70.6067   45.1562   58.1293 C   0  0  0  0  0  0  0  0  0  0  0  0
   69.8101   45.3051   59.1207 O   0  0  0  0  0  0  0  0  0  0  0  0
   70.5255   46.0892   57.0957 N   0  0  0  0  0  0  0  0  0  0  0  0
   69.5959   47.1750   57.1324 N   0  0  0  0  0  0  0  0  0  0  0  0
   68.4151   46.8301   55.9262 S   0  0  0  0  0  0  0  0  0  0  0  0
   68.2455   45.3257   55.8935 O   0  0  0  0  0  0  0  0  0  0  0  0
   67.1270   47.5102   56.2346 O   0  0  0  0  0  0  0  0  0  0  0  0
   68.9298   47.3415   54.3364 C   0  0  0  0  0  0  0  0  0  0  0  0
   69.6274   48.5235   54.1706 C   0  0  0  0  0  0  0  0  0  0  0  0
   70.0408   48.9419   52.9211 C   0  0  0  0  0  0  0  0  0  0  0  0
   69.7406   48.1518   51.8415 C   0  0  0  0  0  0  0  0  0  0  0  0
   69.0470   46.9645   51.9500 C   0  0  0  0  0  0  0  0  0  0  0  0
   68.6542   46.5877   53.2256 C   0  0  0  0  0  0  0  0  0  0  0  0
  9 10  1  0
 10 11  1  0
 10 14  2  0
 11 12  2  0
 12 13  1  0
 13  1  1  0
 13 14  1  0
  1  2  2  0
  1  8  1  0
  2  3  1  0
  3  4  1  0
  3  5  2  0
  5  6  1  0
  5  7  1  0
  7 15  1  0
  7  8  2  0
 15 16  2  0
 15 17  1  0
 17 18  1  0
 18 19  1  0
 19 20  2  0
 19 21  2  0
 19 22  1  0
 22 23  2  0
 22 27  1  0
 23 24  1  0
 24 25  2  0
 25 26  1  0
 26 27  2  0
M  END
>  <minimizedAffinity>  (54) 
-8.85410

$$$$
data/200k_reference_output/data/smiles/5033.pdb
     RDKit          3D

 23 26  0  0  0  0  0  0  0  0999 V2000
   66.3687   41.5363   55.1452 O   0  0  0  0  0  0  0  0  0  0  0  0
   67.3297   41.6370   55.9468 C   0  0  0  0  0  0  0  0  0  0  0  0
   67.7483   40.5364   56.6695 C   0  0  0  0  0  0  0  0  0  0  0  0
   68.8103   40.6404   57.5567 C   0  0  0  0  0  0  0  0  0  0  0  0
   69.3609   41.8640   57.6344 N   0  0  0  0  0  0  0  0  0  0  0  0
   68.9368   42.9368   56.9156 C   0  0  0  0  0  0  0  0  0  0  0  0
   69.3490   44.2238   56.8516 N   0  0  0  0  0  0  0  0  0  0  0  0
   68.5974   44.9090   55.9753 C   0  0  0  0  0  0  0  0  0  0  0  0
   67.7042   44.0315   55.4881 N   0  0  0  0  0  0  0  0  0  0  0  0
   67.9140   42.8359   56.0612 N   0  0  0  0  0  0  0  0  0  0  0  0
   69.2855   39.5117   58.3388 C   0  0  0  0  0  0  0  0  0  0  0  0
   70.5885   39.0836   58.2521 C   0  0  0  0  0  0  0  0  0  0  0  0
   71.0451   37.9912   59.0093 C   0  0  0  0  0  0  0  0  0  0  0  0
   70.2045   37.3284   59.8504 C   0  0  0  0  0  0  0  0  0  0  0  0
   68.9115   37.7371   59.9497 C   0  0  0  0  0  0  0  0  0  0  0  0
   68.4698   38.8205   59.1950 C   0  0  0  0  0  0  0  0  0  0  0  0
   68.7221   46.3617   55.6091 C   0  0  0  0  0  0  0  0  0  0  0  0
   68.6205   46.5442   54.1613 C   0  0  0  0  0  0  0  0  0  0  0  0
   69.3268   47.5385   53.5375 C   0  0  0  0  0  0  0  0  0  0  0  0
   69.2352   47.7188   52.1465 C   0  0  0  0  0  0  0  0  0  0  0  0
   68.4350   46.8999   51.4029 C   0  0  0  0  0  0  0  0  0  0  0  0
   67.7236   45.9011   52.0189 C   0  0  0  0  0  0  0  0  0  0  0  0
   67.8203   45.7256   53.4087 C   0  0  0  0  0  0  0  0  0  0  0  0
  1  2  2  0
  2  3  1  0
  2 10  1  0
  3  4  2  0
  4 11  1  0
  4  5  1  0
 11 12  2  0
 11 16  1  0
 12 13  1  0
 13 14  2  0
 14 15  1  0
 15 16  2  0
  5  6  1  0
  6  7  2  0
  6 10  1  0
  7  8  1  0
  8 17  1  0
  8  9  2  0
 17 18  1  0
 18 19  2  0
 18 23  1  0
 19 20  1  0
 20 21  2  0
 21 22  1  0
 22 23  2  0
  9 10  1  0
M  END
>  <minimizedAffinity>  (55) 
-9.13431

$$$$
data/200k_reference_output/data/smiles/5057.pdb
     RDKit          3D

 23 25  0  0  0  0  0  0  0  0999 V2000
   70.3952   49.6256   53.6494 C   0  0  0  0  0  0  0  0  0  0  0  0
   70.2932   50.8271   53.0729 N   0  0  0  0  0  0  0  0  0  0  0  0
   71.1656   51.6504   53.6243 N   0  0  0  0  0  0  0  0  0  0  0  0
   71.8643   51.0172   54.5760 C   0  0  0  0  0  0  0  0  0  0  0  0
   71.3709   49.7433   54.5828 N   0  0  0  0  0  0  0  0  0  0  0  0
   70.4701   48.6297   51.0904 N   0  0  0  0  0  0  0  0  0  0  0  0
   69.6653   47.9399   52.0277 C   0  0  0  0  0  0  0  0  0  0  0  0
   68.9694   46.8265   51.6342 C   0  0  0  0  0  0  0  0  0  0  0  0
   68.1886   46.1602   52.5577 C   0  0  0  0  0  0  0  0  0  0  0  0
   68.1323   46.6366   53.8440 C   0  0  0  0  0  0  0  0  0  0  0  0
   68.8368   47.7620   54.2389 C   0  0  0  0  0  0  0  0  0  0  0  0
   69.6099   48.4258   53.3348 C   0  0  0  0  0  0  0  0  0  0  0  0
   73.1601   51.6574   55.6258 S   0  0  0  0  0  0  0  0  0  0  0  0
   72.3723   52.5018   57.0230 C   0  0  0  0  0  0  0  0  0  0  0  0
   71.1621   51.6664   57.3587 C   0  0  0  0  0  0  0  0  0  0  0  0
   71.3746   50.8507   58.3244 O   0  0  0  0  0  0  0  0  0  0  0  0
   69.9375   51.7715   56.6909 N   0  0  0  0  0  0  0  0  0  0  0  0
   68.8554   50.9472   57.0786 C   0  0  0  0  0  0  0  0  0  0  0  0
   68.9993   49.5817   57.2130 C   0  0  0  0  0  0  0  0  0  0  0  0
   67.9523   48.7648   57.5926 C   0  0  0  0  0  0  0  0  0  0  0  0
   66.6833   49.2784   57.8631 C   0  0  0  0  0  0  0  0  0  0  0  0
   66.5442   50.6463   57.7274 C   0  0  0  0  0  0  0  0  0  0  0  0
   67.5951   51.4493   57.3494 C   0  0  0  0  0  0  0  0  0  0  0  0
  6  7  1  0
  7  8  2  0
  7 12  1  0
  8  9  1  0
  9 10  2  0
 10 11  1  0
 11 12  2  0
 12  1  1  0
  1  2  2  0
  1  5  1  0
  2  3  1  0
  3  4  2  0
  4 13  1  0
  4  5  1  0
 13 14  1  0
 14 15  1  0
 15 16  2  0
 15 17  1  0
 17 18  1  0
 18 19  2  0
 18 23  1  0
 19 20  1  0
 20 21  2  0
 21 22  1  0
 22 23  2  0
M  END
>  <minimizedAffinity>  (56) 
-8.51309

$$$$
data/200k_reference_output/data/smiles/5249.pdb
     RDKit          3D

 30 33  0  0  0  0  0  0  0  0999 V2000
   70.6666   50.0715   57.7317 N   0  0  0  0  0  0  0  0  0  0  0  0
   71.8511   50.8980   57.7895 C   0  0  0  0  0  0  0  0  0  0  0  0
   71.5250   52.2055   57.0857 C   0  0  0  0  0  0  0  0  0  0  0  0
   70.2490   51.8513   56.3492 C   0  0  2  0  0  0  0  0  0  0  0  0
   69.5793   50.9515   57.3413 C   0  0  0  0  0  0  0  0  0  0  0  0
   70.5157   45.8977   58.3736 C   0  0  0  0  0  0  0  0  0  0  0  0
   69.8314   46.5332   57.3520 C   0  0  0  0  0  0  0  0  0  0  0  0
   69.8796   47.8934   57.1619 C   0  0  0  0  0  0  0  0  0  0  0  0
   70.6353   48.6903   58.0090 C   0  0  0  0  0  0  0  0  0  0  0  0
   71.3163   48.0713   59.0268 C   0  0  0  0  0  0  0  0  0  0  0  0
   72.0630   48.8178   59.8945 C   0  0  0  0  0  0  0  0  0  0  0  0
   72.7061   48.1446   60.8850 N   0  0  0  0  0  0  0  0  0  0  0  0
   72.6486   46.8250   61.0525 C   0  0  0  0  0  0  0  0  0  0  0  0
   71.9248   46.0844   60.2175 N   0  0  0  0  0  0  0  0  0  0  0  0
   71.2659   46.6954   59.2157 C   0  0  0  0  0  0  0  0  0  0  0  0
   69.5380   43.8775   59.4640 N   0  0  0  0  0  0  0  0  0  0  0  0
   70.4374   44.4538   58.5401 C   0  0  0  0  0  0  0  0  0  0  0  0
   71.1734   43.7139   57.8568 O   0  0  0  0  0  0  0  0  0  0  0  0
   70.6542   51.1689   55.0726 C   0  0  0  0  0  0  0  0  0  0  0  0
   69.7821   50.1005   54.6858 N   0  0  0  0  0  0  0  0  0  0  0  0
   70.2541   49.1930   53.7046 C   0  0  0  0  0  0  0  0  0  0  0  0
   71.4179   49.3358   53.1910 O   0  0  0  0  0  0  0  0  0  0  0  0
   69.4537   48.0718   53.2367 C   0  0  0  0  0  0  0  0  0  0  0  0
   69.1738   47.8365   51.9165 C   0  0  0  0  0  0  0  0  0  0  0  0
   68.4020   46.7521   51.4944 C   0  0  0  0  0  0  0  0  0  0  0  0
   67.9006   45.8854   52.4320 C   0  0  0  0  0  0  0  0  0  0  0  0
   67.1529   44.8357   52.0145 F   0  0  0  0  0  0  0  0  0  0  0  0
   68.1560   46.0796   53.7829 C   0  0  0  0  0  0  0  0  0  0  0  0
   67.6412   45.1996   54.6664 F   0  0  0  0  0  0  0  0  0  0  0  0
   68.9172   47.1557   54.1487 C   0  0  0  0  0  0  0  0  0  0  0  0
 16 17  1  0
 17 18  2  0
 17  6  1  0
  6  7  2  0
  6 15  1  0
  7  8  1  0
  8  9  2  0
  9  1  1  0
  9 10  1  0
  1  2  1  0
  1  5  1  0
  2  3  1  0
  3  4  1  0
  4 19  1  6
  4  5  1  0
 19 20  1  0
 20 21  1  0
 21 22  2  0
 21 23  1  0
 23 24  2  0
 23 30  1  0
 24 25  1  0
 25 26  2  0
 26 27  1  0
 26 28  1  0
 28 29  1  0
 28 30  2  0
 10 11  1  0
 10 15  2  0
 11 12  2  0
 12 13  1  0
 13 14  2  0
 14 15  1  0
M  END
>  <minimizedAffinity>  (57) 
-9.02114

$$$$
data/200k_reference_output/data/smiles/5271.pdb
     RDKit          3D

 24 25  0  0  0  0  0  0  0  0999 V2000
   68.1946   42.7500   56.6051 C   0  0  0  0  0  0  0  0  0  0  0  0
   67.0981   42.7721   55.9664 O   0  0  0  0  0  0  0  0  0  0  0  0
   68.9055   43.9598   56.6552 N   0  0  0  0  0  0  0  0  0  0  0  0
   69.5661   39.1400   58.4739 C   0  0  0  0  0  0  0  0  0  0  0  0
   68.3731   39.1792   57.8193 C   0  0  0  0  0  0  0  0  0  0  0  0
   67.9077   40.3546   57.2015 C   0  0  0  0  0  0  0  0  0  0  0  0
   68.6345   41.5153   57.2281 C   0  0  0  0  0  0  0  0  0  0  0  0
   69.8347   41.4443   57.8972 C   0  0  0  0  0  0  0  0  0  0  0  0
   70.3046   40.3265   58.4998 C   0  0  0  0  0  0  0  0  0  0  0  0
   71.2117   37.2344   58.7137 C   0  0  0  0  0  0  0  0  0  0  0  0
   71.8559   37.5162   57.6890 O   0  0  0  0  0  0  0  0  0  0  0  0
   70.1023   37.9961   59.1207 N   0  0  0  0  0  0  0  0  0  0  0  0
   72.0830   34.9237   58.5709 C   0  0  0  0  0  0  0  0  0  0  0  0
   71.6693   36.0359   59.5057 C   0  0  0  0  0  0  0  0  0  0  0  0
   68.4568   45.1466   56.0419 N   0  0  0  0  0  0  0  0  0  0  0  0
   69.0382   46.4047   56.2979 C   0  0  0  0  0  0  0  0  0  0  0  0
   69.9994   46.4293   57.1174 O   0  0  0  0  0  0  0  0  0  0  0  0
   68.5981   47.6736   55.6770 C   0  0  0  0  0  0  0  0  0  0  0  0
   68.9768   47.7958   54.2689 C   0  0  0  0  0  0  0  0  0  0  0  0
   68.5374   46.9152   53.2909 C   0  0  0  0  0  0  0  0  0  0  0  0
   68.9146   47.0593   51.9702 C   0  0  0  0  0  0  0  0  0  0  0  0
   69.7438   48.0853   51.5737 C   0  0  0  0  0  0  0  0  0  0  0  0
   70.1905   48.9677   52.5234 C   0  0  0  0  0  0  0  0  0  0  0  0
   69.8062   48.8134   53.8441 C   0  0  0  0  0  0  0  0  0  0  0  0
 13 14  1  0
 14 10  1  0
 10 11  2  0
 10 12  1  0
 12  4  1  0
  4  5  2  0
  4  9  1  0
  5  6  1  0
  6  7  2  0
  7  1  1  0
  7  8  1  0
  1  2  2  0
  1  3  1  0
  3 15  1  0
 15 16  1  0
 16 17  2  0
 16 18  1  0
 18 19  1  0
 19 20  2  0
 19 24  1  0
 20 21  1  0
 21 22  2  0
 22 23  1  0
 23 24  2  0
  8  9  2  0
M  END
>  <minimizedAffinity>  (58) 
-8.76676

$$$$
data/200k_reference_output/data/smiles/5276.pdb
     RDKit          3D

 30 33  0  0  0  0  0  0  0  0999 V2000
   70.9304   44.9832   57.1602 N   0  0  0  0  0  0  0  0  0  0  0  0
   70.2201   45.8927   57.9790 C   0  0  0  0  0  0  0  0  0  0  0  0
   69.7772   45.3915   59.0697 O   0  0  0  0  0  0  0  0  0  0  0  0
   73.4885   44.1818   57.8900 C   0  0  0  0  0  0  0  0  0  0  0  0
   72.3676   43.1993   57.9283 C   0  0  0  0  0  0  0  0  0  0  0  0
   72.5826   41.8770   58.3277 C   0  0  0  0  0  0  0  0  0  0  0  0
   71.5246   40.9880   58.3541 C   0  0  0  0  0  0  0  0  0  0  0  0
   71.4045   39.6444   58.6920 C   0  0  0  0  0  0  0  0  0  0  0  0
   70.1286   39.2963   58.5287 N   0  0  0  0  0  0  0  0  0  0  0  0
   69.4025   40.3236   58.1063 N   0  0  0  0  0  0  0  0  0  0  0  0
   70.2531   41.3833   57.9919 C   0  0  0  0  0  0  0  0  0  0  0  0
   70.0857   42.6959   57.6057 C   0  0  0  0  0  0  0  0  0  0  0  0
   71.1156   43.6064   57.5675 C   0  0  0  0  0  0  0  0  0  0  0  0
   68.0008   40.4076   57.8018 C   0  0  0  0  0  0  0  0  0  0  0  0
   67.7130   41.1055   56.4967 C   0  0  0  0  0  0  0  0  0  0  0  0
   67.7461   40.1141   55.4980 O   0  0  0  0  0  0  0  0  0  0  0  0
   69.9798   47.3086   57.6532 C   0  0  0  0  0  0  0  0  0  0  0  0
   70.8276   48.2544   57.9362 C   0  0  0  0  0  0  0  0  0  0  0  0
   70.6432   49.6476   57.6422 N   0  0  0  0  0  0  0  0  0  0  0  0
   69.3905   49.9355   56.9810 C   0  0  0  0  0  0  0  0  0  0  0  0
   69.2719   50.9091   56.2061 O   0  0  0  0  0  0  0  0  0  0  0  0
   68.2784   49.0092   57.2831 C   0  0  0  0  0  0  0  0  0  0  0  0
   68.7124   47.6065   56.9747 C   0  0  1  0  0  0  0  0  0  0  0  0
   68.7686   47.4515   55.4932 C   0  0  0  0  0  0  0  0  0  0  0  0
   69.4780   48.2878   54.6783 C   0  0  0  0  0  0  0  0  0  0  0  0
   69.5135   48.1269   53.2913 C   0  0  0  0  0  0  0  0  0  0  0  0
   68.8193   47.0969   52.6939 C   0  0  0  0  0  0  0  0  0  0  0  0
   68.8540   46.9385   51.3309 F   0  0  0  0  0  0  0  0  0  0  0  0
   68.1009   46.2461   53.4957 C   0  0  0  0  0  0  0  0  0  0  0  0
   68.0756   46.4177   54.8521 C   0  0  0  0  0  0  0  0  0  0  0  0
  4  5  1  0
  5  6  2  0
  5 13  1  0
  6  7  1  0
  7  8  1  0
  7 11  2  0
  8  9  2  0
  9 10  1  0
 10 14  1  0
 10 11  1  0
 14 15  1  0
 15 16  1  0
 11 12  1  0
 12 13  2  0
 13  1  1  0
  1  2  1  0
  2  3  2  0
  2 17  1  0
 17 18  2  0
 17 23  1  0
 18 19  1  0
 19 20  1  0
 20 21  2  0
 20 22  1  0
 22 23  1  0
 23 24  1  6
 24 25  2  0
 24 30  1  0
 25 26  1  0
 26 27  2  0
 27 28  1  0
 27 29  1  0
 29 30  2  0
M  END
>  <minimizedAffinity>  (59) 
-9.06374

$$$$
data/200k_reference_output/data/smiles/5390.pdb
     RDKit          3D

 25 28  0  0  0  0  0  0  0  0999 V2000
   68.7942   40.6481   57.5236 C   0  0  0  0  0  0  0  0  0  0  0  0
   67.7412   40.5599   56.6421 C   0  0  0  0  0  0  0  0  0  0  0  0
   67.3297   41.6839   55.9306 C   0  0  0  0  0  0  0  0  0  0  0  0
   66.3690   41.5709   55.1369 O   0  0  0  0  0  0  0  0  0  0  0  0
   67.9194   42.8796   56.0608 N   0  0  0  0  0  0  0  0  0  0  0  0
   67.7183   44.0811   55.5055 N   0  0  0  0  0  0  0  0  0  0  0  0
   68.6150   44.9423   56.0075 C   0  0  0  0  0  0  0  0  0  0  0  0
   69.3564   44.2329   56.8729 N   0  0  0  0  0  0  0  0  0  0  0  0
   68.9427   42.9524   56.9214 C   0  0  0  0  0  0  0  0  0  0  0  0
   69.3642   41.8631   57.6301 N   0  0  0  0  0  0  0  0  0  0  0  0
   70.2238   37.2975   59.8054 C   0  0  0  0  0  0  0  0  0  0  0  0
   68.9277   37.7350   59.9348 C   0  0  0  0  0  0  0  0  0  0  0  0
   68.4701   38.8267   59.1886 C   0  0  0  0  0  0  0  0  0  0  0  0
   69.2786   39.5051   58.3037 C   0  0  0  0  0  0  0  0  0  0  0  0
   70.5697   39.0589   58.1831 C   0  0  0  0  0  0  0  0  0  0  0  0
   71.0400   37.9657   58.9262 C   0  0  0  0  0  0  0  0  0  0  0  0
   71.3226   35.1304   59.8430 C   0  0  0  0  0  0  0  0  0  0  0  0
   70.6984   36.2027   60.5492 O   0  0  0  0  0  0  0  0  0  0  0  0
   68.7584   46.4051   55.6675 C   0  0  0  0  0  0  0  0  0  0  0  0
   68.6413   46.5716   54.2069 C   0  0  0  0  0  0  0  0  0  0  0  0
   69.3308   47.5504   53.5339 C   0  0  0  0  0  0  0  0  0  0  0  0
   69.2121   47.6998   52.1492 C   0  0  0  0  0  0  0  0  0  0  0  0
   68.3878   46.8491   51.4317 C   0  0  0  0  0  0  0  0  0  0  0  0
   67.6962   45.8679   52.1023 C   0  0  0  0  0  0  0  0  0  0  0  0
   67.8308   45.7452   53.4639 C   0  0  0  0  0  0  0  0  0  0  0  0
 17 18  1  0
 18 11  1  0
 11 12  2  0
 11 16  1  0
 12 13  1  0
 13 14  2  0
 14  1  1  0
 14 15  1  0
  1  2  2  0
  1 10  1  0
  2  3  1  0
  3  4  2  0
  3  5  1  0
  5  6  1  0
  5  9  1  0
  6  7  2  0
  7 19  1  0
  7  8  1  0
 19 20  1  0
 20 21  2  0
 20 25  1  0
 21 22  1  0
 22 23  2  0
 23 24  1  0
 24 25  2  0
  8  9  2  0
  9 10  1  0
 15 16  2  0
M  END
>  <minimizedAffinity>  (60) 
-9.24267

$$$$
data/200k_reference_output/data/smiles/5395.pdb
     RDKit          3D

 25 27  0  0  0  0  0  0  0  0999 V2000
   69.1406   41.9692   57.4501 C   0  0  0  0  0  0  0  0  0  0  0  0
   68.2908   42.3161   56.4294 C   0  0  0  0  0  0  0  0  0  0  0  0
   68.3925   43.6635   56.1591 C   0  0  0  0  0  0  0  0  0  0  0  0
   69.3142   44.1132   57.0368 N   0  0  0  0  0  0  0  0  0  0  0  0
   69.7563   43.1128   57.8000 N   0  0  0  0  0  0  0  0  0  0  0  0
   69.8272   38.1302   59.2754 C   0  0  0  0  0  0  0  0  0  0  0  0
   68.5645   38.5779   58.9457 C   0  0  0  0  0  0  0  0  0  0  0  0
   68.3437   39.8079   58.3639 C   0  0  0  0  0  0  0  0  0  0  0  0
   69.3772   40.6700   58.0722 C   0  0  0  0  0  0  0  0  0  0  0  0
   70.6542   40.2437   58.3937 C   0  0  0  0  0  0  0  0  0  0  0  0
   70.8713   39.0154   58.9745 C   0  0  0  0  0  0  0  0  0  0  0  0
   69.2325   36.4077   60.9409 C   0  0  0  0  0  0  0  0  0  0  0  0
   70.0949   36.8776   59.8785 N   0  0  0  0  0  0  0  0  0  0  0  0
   71.1956   36.0404   59.4891 C   0  0  0  0  0  0  0  0  0  0  0  0
   67.6725   44.4221   55.1727 N   0  0  0  0  0  0  0  0  0  0  0  0
   68.1814   45.6140   54.6457 C   0  0  0  0  0  0  0  0  0  0  0  0
   68.6135   46.6371   55.4801 C   0  0  0  0  0  0  0  0  0  0  0  0
   69.1074   47.7796   54.8968 C   0  0  0  0  0  0  0  0  0  0  0  0
   69.1952   47.9608   53.5227 C   0  0  0  0  0  0  0  0  0  0  0  0
   68.7617   46.9385   52.7197 C   0  0  0  0  0  0  0  0  0  0  0  0
   68.2577   45.7708   53.2802 C   0  0  0  0  0  0  0  0  0  0  0  0
   69.8551   49.4444   52.8730 S   0  0  0  0  0  0  0  0  0  0  0  0
   69.8591   49.3926   51.1261 N   0  0  0  0  0  0  0  0  0  0  0  0
   69.1830   50.6633   53.3981 O   0  0  0  0  0  0  0  0  0  0  0  0
   71.3262   49.5080   53.2595 O   0  0  0  0  0  0  0  0  0  0  0  0
 12 13  1  0
 13 14  1  0
 13  6  1  0
  6  7  2  0
  6 11  1  0
  7  8  1  0
  8  9  2  0
  9  1  1  0
  9 10  1  0
  1  2  1  0
  1  5  2  0
  2  3  2  0
  3 15  1  0
  3  4  1  0
 15 16  1  0
 16 17  2  0
 16 21  1  0
 17 18  1  0
 18 19  2  0
 19 22  1  0
 19 20  1  0
 22 23  1  0
 22 24  2  0
 22 25  2  0
 20 21  2  0
  4  5  1  0
 10 11  2  0
M  END
>  <minimizedAffinity>  (61) 
-8.90968

$$$$
data/200k_reference_output/data/smiles/5570.pdb
     RDKit          3D

 28 31  0  0  0  0  0  0  0  0999 V2000
   67.4051   42.5514   55.8073 O   0  0  0  0  0  0  0  0  0  0  0  0
   68.4037   42.7400   56.6148 C   0  0  0  0  0  0  0  0  0  0  0  0
   68.7095   41.6656   57.4815 N   0  0  0  0  0  0  0  0  0  0  0  0
   67.9313   40.4126   57.3520 C   0  0  0  0  0  0  0  0  0  0  0  0
   68.4571   39.2815   58.1338 C   0  0  0  0  0  0  0  0  0  0  0  0
   69.8832   39.3095   58.3531 N   0  0  0  0  0  0  0  0  0  0  0  0
   70.6450   40.5491   58.3175 C   0  0  0  0  0  0  0  0  0  0  0  0
   69.6653   41.6452   58.5423 C   0  0  0  0  0  0  0  0  0  0  0  0
   70.5727   38.1217   58.6084 C   0  0  0  0  0  0  0  0  0  0  0  0
   71.6532   37.7429   57.8492 C   0  0  0  0  0  0  0  0  0  0  0  0
   72.3491   36.5693   58.0857 C   0  0  0  0  0  0  0  0  0  0  0  0
   71.9553   35.7438   59.1144 C   0  0  0  0  0  0  0  0  0  0  0  0
   70.8770   36.1021   59.8871 C   0  0  0  0  0  0  0  0  0  0  0  0
   70.1972   37.2799   59.6315 C   0  0  0  0  0  0  0  0  0  0  0  0
   69.1209   37.6177   60.4177 F   0  0  0  0  0  0  0  0  0  0  0  0
   69.0455   44.0284   56.5047 C   0  0  0  0  0  0  0  0  0  0  0  0
   68.2735   45.1463   56.1980 O   0  0  0  0  0  0  0  0  0  0  0  0
   68.2498   45.7589   54.9570 C   0  0  0  0  0  0  0  0  0  0  0  0
   67.6648   45.1458   53.8716 C   0  0  0  0  0  0  0  0  0  0  0  0
   67.6487   45.7847   52.6213 C   0  0  0  0  0  0  0  0  0  0  0  0
   67.1220   45.2449   51.6234 O   0  0  0  0  0  0  0  0  0  0  0  0
   68.1885   46.9528   52.5075 O   0  0  0  0  0  0  0  0  0  0  0  0
   68.7728   47.6156   53.4979 C   0  0  0  0  0  0  0  0  0  0  0  0
   69.3233   48.8569   53.2815 C   0  0  0  0  0  0  0  0  0  0  0  0
   69.9288   49.5460   54.3055 C   0  0  0  0  0  0  0  0  0  0  0  0
   69.9668   48.9555   55.5465 C   0  0  0  0  0  0  0  0  0  0  0  0
   69.4191   47.7163   55.7653 C   0  0  0  0  0  0  0  0  0  0  0  0
   68.8014   46.9966   54.7539 C   0  0  0  0  0  0  0  0  0  0  0  0
  1  2  2  0
  2 16  1  0
  2  3  1  0
 16 17  1  0
 17 18  1  0
 18 19  2  0
 18 28  1  0
 19 20  1  0
 20 21  2  0
 20 22  1  0
 22 23  1  0
 23 24  1  0
 23 28  2  0
 24 25  2  0
 25 26  1  0
 26 27  2  0
 27 28  1  0
  3  4  1  0
  3  8  1  0
  4  5  1  0
  5  6  1  0
  6  9  1  0
  6  7  1  0
  9 10  2  0
  9 14  1  0
 10 11  1  0
 11 12  2  0
 12 13  1  0
 13 14  2  0
 14 15  1  0
  7  8  1  0
M  END
>  <minimizedAffinity>  (62) 
-9.02463

$$$$
data/200k_reference_output/data/smiles/5698.pdb
     RDKit          3D

 31 35  0  0  0  0  0  0  0  0999 V2000
   68.7525   41.6891   59.6908 C   0  0  0  0  0  0  0  0  0  0  0  0
   68.0003   42.7221   59.4336 O   0  0  0  0  0  0  0  0  0  0  0  0
   68.8705   41.3851   61.0398 N   0  0  0  0  0  0  0  0  0  0  0  0
   69.6448   40.3259   61.6353 C   0  0  0  0  0  0  0  0  0  0  0  0
   70.9225   40.9696   62.1427 C   0  0  0  0  0  0  0  0  0  0  0  0
   70.4747   42.1604   62.9860 C   0  0  0  0  0  0  0  0  0  0  0  0
   68.9894   42.0849   63.3222 C   0  0  0  0  0  0  0  0  0  0  0  0
   68.1510   42.1934   62.0711 C   0  0  0  0  0  0  0  0  0  0  0  0
   70.6946   43.4015   62.3180 N   0  0  0  0  0  0  0  0  0  0  0  0
   72.0242   43.8708   62.2528 C   0  0  0  0  0  0  0  0  0  0  0  0
   73.0319   43.1356   63.0662 C   0  0  0  0  0  0  0  0  0  0  0  0
   72.4999   42.5388   64.3014 C   0  0  0  0  0  0  0  0  0  0  0  0
   73.0378   42.3631   65.5272 N   0  0  0  0  0  0  0  0  0  0  0  0
   72.0833   41.7613   66.2579 C   0  0  0  0  0  0  0  0  0  0  0  0
   70.9817   41.5694   65.4997 N   0  0  0  0  0  0  0  0  0  0  0  0
   71.2134   42.0427   64.2818 C   0  0  0  0  0  0  0  0  0  0  0  0
   68.4215   41.3068   57.2780 C   0  0  0  0  0  0  0  0  0  0  0  0
   69.3089   41.0763   58.4946 C   0  0  2  0  0  0  0  0  0  0  0  0
   69.6534   39.7003   58.5219 N   0  0  0  0  0  0  0  0  0  0  0  0
   70.9657   39.1866   58.4651 C   0  0  0  0  0  0  0  0  0  0  0  0
   71.9046   40.0169   58.3836 O   0  0  0  0  0  0  0  0  0  0  0  0
   71.2941   37.7700   58.4959 C   0  0  0  0  0  0  0  0  0  0  0  0
   70.8038   36.9647   59.5288 C   0  0  0  0  0  0  0  0  0  0  0  0
   71.0867   35.6196   59.6017 C   0  0  0  0  0  0  0  0  0  0  0  0
   71.8766   35.0389   58.6332 C   0  0  0  0  0  0  0  0  0  0  0  0
   72.1791   33.6796   58.6824 C   0  0  0  0  0  0  0  0  0  0  0  0
   72.9651   33.0636   57.7320 C   0  0  0  0  0  0  0  0  0  0  0  0
   73.4621   33.8562   56.6945 C   0  0  0  0  0  0  0  0  0  0  0  0
   73.1760   35.1968   56.6288 C   0  0  0  0  0  0  0  0  0  0  0  0
   72.3846   35.7840   57.5968 C   0  0  0  0  0  0  0  0  0  0  0  0
   72.0781   37.1438   57.5536 C   0  0  0  0  0  0  0  0  0  0  0  0
 18 17  1  6
 18 19  1  0
 18  1  1  0
 19 20  1  0
 20 21  2  0
 20 22  1  0
 22 23  2  0
 22 31  1  0
 23 24  1  0
 24 25  2  0
 25 26  1  0
 25 30  1  0
 26 27  2  0
 27 28  1  0
 28 29  2  0
 29 30  1  0
 30 31  2  0
  1  2  2  0
  1  3  1  0
  3  4  1  0
  3  8  1  0
  4  5  1  0
  5  6  1  0
  6  7  1  0
  6  9  1  0
  6 16  1  0
  7  8  1  0
  9 10  1  0
 10 11  1  0
 11 12  1  0
 12 13  1  0
 12 16  2  0
 13 14  1  0
 14 15  2  0
 15 16  1  0
M  CHG  2   9   1  15   1
M  END
>  <minimizedAffinity>  (63) 
-8.60718

$$$$
data/200k_reference_output/data/smiles/5749.pdb
     RDKit          3D

 26 28  0  0  0  0  0  0  0  0999 V2000
   69.3570   43.3783   57.5129 N   0  0  0  0  0  0  0  0  0  0  0  0
   68.5666   42.2676   57.1905 C   0  0  0  0  0  0  0  0  0  0  0  0
   67.7692   42.3873   56.2239 O   0  0  0  0  0  0  0  0  0  0  0  0
   68.6152   40.9936   57.9042 C   0  0  0  0  0  0  0  0  0  0  0  0
   69.8257   40.3488   58.1093 C   0  0  0  0  0  0  0  0  0  0  0  0
   69.9103   39.1462   58.7774 C   0  0  0  0  0  0  0  0  0  0  0  0
   68.7647   38.5540   59.2628 C   0  0  0  0  0  0  0  0  0  0  0  0
   67.5340   39.1561   59.0845 C   0  0  0  0  0  0  0  0  0  0  0  0
   67.4990   40.3616   58.4078 C   0  0  0  0  0  0  0  0  0  0  0  0
   66.3639   38.5261   59.5944 N   0  0  0  0  0  0  0  0  0  0  0  0
   66.1074   37.2139   59.4230 C   0  0  0  0  0  0  0  0  0  0  0  0
   64.8998   36.9410   60.0416 C   0  0  0  0  0  0  0  0  0  0  0  0
   64.4595   38.1185   60.5737 C   0  0  0  0  0  0  0  0  0  0  0  0
   65.3684   39.0946   60.2945 C   0  0  0  0  0  0  0  0  0  0  0  0
   69.8762   45.7804   58.6896 O   0  0  0  0  0  0  0  0  0  0  0  0
   69.5930   45.8459   57.4412 C   0  0  0  0  0  0  0  0  0  0  0  0
   69.3227   44.6046   56.8409 N   0  0  0  0  0  0  0  0  0  0  0  0
   69.5900   47.1690   56.8411 C   0  0  0  0  0  0  0  0  0  0  0  0
   68.6110   47.4672   55.9173 O   0  0  0  0  0  0  0  0  0  0  0  0
   68.7723   47.3779   54.5240 C   0  0  0  0  0  0  0  0  0  0  0  0
   69.4159   48.3453   53.7977 C   0  0  0  0  0  0  0  0  0  0  0  0
   69.5453   48.2145   52.4406 C   0  0  0  0  0  0  0  0  0  0  0  0
   69.0315   47.1158   51.7974 C   0  0  0  0  0  0  0  0  0  0  0  0
   68.3863   46.1341   52.4852 C   0  0  0  0  0  0  0  0  0  0  0  0
   68.2590   46.2716   53.8487 C   0  0  0  0  0  0  0  0  0  0  0  0
   67.6210   45.3051   54.5456 F   0  0  0  0  0  0  0  0  0  0  0  0
 15 16  2  0
 16 18  1  0
 16 17  1  0
 18 19  1  0
 19 20  1  0
 20 21  2  0
 20 25  1  0
 21 22  1  0
 22 23  2  0
 23 24  1  0
 24 25  2  0
 25 26  1  0
 17  1  1  0
  1  2  1  0
  2  3  2  0
  2  4  1  0
  4  5  2  0
  4  9  1  0
  5  6  1  0
  6  7  2  0
  7  8  1  0
  8 10  1  0
  8  9  2  0
 10 11  1  0
 10 14  1  0
 11 12  2  0
 12 13  1  0
 13 14  2  0
M  END
>  <minimizedAffinity>  (64) 
-8.60391

$$$$
data/200k_reference_output/data/smiles/5847.pdb
     RDKit          3D

 22 24  0  0  0  0  0  0  0  0999 V2000
   68.0904   43.5008   55.9996 N   0  0  0  0  0  0  0  0  0  0  0  0
   67.2024   42.5153   55.7908 C   0  0  0  0  0  0  0  0  0  0  0  0
   67.4680   41.4451   56.6140 C   0  0  0  0  0  0  0  0  0  0  0  0
   68.5907   41.8288   57.3603 C   0  0  0  0  0  0  0  0  0  0  0  0
   68.8903   43.0370   56.9431 N   0  0  0  0  0  0  0  0  0  0  0  0
   68.0279   46.1623   53.3548 C   0  0  0  0  0  0  0  0  0  0  0  0
   68.3212   47.2608   54.1342 C   0  0  0  0  0  0  0  0  0  0  0  0
   68.5268   47.0939   55.4855 C   0  0  0  0  0  0  0  0  0  0  0  0
   68.4498   45.8867   56.0691 N   0  0  0  0  0  0  0  0  0  0  0  0
   68.1664   44.7716   55.3567 C   0  0  0  0  0  0  0  0  0  0  0  0
   67.9598   44.9348   54.0043 C   0  0  0  0  0  0  0  0  0  0  0  0
   66.8784   45.6067   51.4034 O   0  0  0  0  0  0  0  0  0  0  0  0
   67.8006   46.2804   51.9175 C   0  0  0  0  0  0  0  0  0  0  0  0
   68.5462   47.0951   51.0894 O   0  0  0  0  0  0  0  0  0  0  0  0
   69.2546   41.0087   58.3848 C   0  0  0  0  0  0  0  0  0  0  0  0
   68.7830   39.6151   58.5488 C   0  0  0  0  0  0  0  0  0  0  0  0
   69.8036   38.5876   58.7723 C   0  0  0  0  0  0  0  0  0  0  0  0
   70.9840   38.5735   58.0598 C   0  0  0  0  0  0  0  0  0  0  0  0
   71.9208   37.5935   58.2546 C   0  0  0  0  0  0  0  0  0  0  0  0
   71.7157   36.5925   59.1669 C   0  0  0  0  0  0  0  0  0  0  0  0
   70.5581   36.5855   59.8815 C   0  0  0  0  0  0  0  0  0  0  0  0
   69.5962   37.5849   59.6859 C   0  0  0  0  0  0  0  0  0  0  0  0
 12 13  2  0
 13 14  1  0
 13  6  1  0
  6  7  2  0
  6 11  1  0
  7  8  1  0
  8  9  2  0
  9 10  1  0
 10  1  1  0
 10 11  2  0
  1  2  1  0
  1  5  1  0
  2  3  2  0
  3  4  1  0
  4 15  1  0
  4  5  2  0
 15 16  1  0
 16 17  1  0
 17 18  2  0
 17 22  1  0
 18 19  1  0
 19 20  2  0
 20 21  1  0
 21 22  2  0
M  END
>  <minimizedAffinity>  (65) 
-8.72189

$$$$
data/200k_reference_output/data/smiles/5859.pdb
     RDKit          3D

 21 22  0  0  0  0  0  0  0  0999 V2000
   69.5356   44.4522   56.9895 C   0  0  0  0  0  0  0  0  0  0  0  0
   68.5237   44.8556   56.3741 N   0  0  0  0  0  0  0  0  0  0  0  0
   70.0947   40.3287   58.2048 C   0  0  0  0  0  0  0  0  0  0  0  0
   68.8767   40.8398   57.8015 C   0  0  0  0  0  0  0  0  0  0  0  0
   68.7136   42.1549   57.4200 C   0  0  0  0  0  0  0  0  0  0  0  0
   69.7496   43.0625   57.4082 C   0  0  0  0  0  0  0  0  0  0  0  0
   70.9765   42.5738   57.8068 C   0  0  0  0  0  0  0  0  0  0  0  0
   71.1387   41.2728   58.1862 C   0  0  0  0  0  0  0  0  0  0  0  0
   71.5363   38.2732   58.2096 C   0  0  0  0  0  0  0  0  0  0  0  0
   70.3386   39.0062   58.6221 N   0  0  0  0  0  0  0  0  0  0  0  0
   69.4384   38.2926   59.4703 C   0  0  0  0  0  0  0  0  0  0  0  0
   68.1957   46.1195   55.9170 N   0  0  0  0  0  0  0  0  0  0  0  0
   68.3557   46.3471   54.5385 C   0  0  0  0  0  0  0  0  0  0  0  0
   67.7010   45.5954   53.6045 C   0  0  0  0  0  0  0  0  0  0  0  0
   67.8241   45.8074   52.2499 C   0  0  0  0  0  0  0  0  0  0  0  0
   68.6367   46.8124   51.7829 C   0  0  0  0  0  0  0  0  0  0  0  0
   69.3285   47.6072   52.7092 C   0  0  0  0  0  0  0  0  0  0  0  0
   69.1757   47.3599   54.0716 C   0  0  0  0  0  0  0  0  0  0  0  0
   70.1867   48.6726   52.2037 C   0  0  0  0  0  0  0  0  0  0  0  0
   71.2194   49.0333   52.8579 O   0  0  0  0  0  0  0  0  0  0  0  0
   69.9347   49.3313   51.0196 O   0  0  0  0  0  0  0  0  0  0  0  0
  9 10  1  0
 10 11  1  0
 10  3  1  0
  3  4  2  0
  3  8  1  0
  4  5  1  0
  5  6  2  0
  6  1  1  0
  6  7  1  0
  1  2  2  0
  2 12  1  0
 12 13  1  0
 13 14  2  0
 13 18  1  0
 14 15  1  0
 15 16  2  0
 16 17  1  0
 17 19  1  0
 17 18  2  0
 19 20  2  0
 19 21  1  0
  7  8  2  0
M  END
>  <minimizedAffinity>  (66) 
-8.50369

$$$$
data/200k_reference_output/data/smiles/5907.pdb
     RDKit          3D

 26 27  0  0  0  0  0  0  0  0999 V2000
   71.6141   53.2889   55.8126 C   0  0  0  0  0  0  0  0  0  0  0  0
   70.6340   52.1878   55.4553 C   0  0  0  0  0  0  0  0  0  0  0  0
   69.2346   52.5588   55.7305 C   0  0  0  0  0  0  0  0  0  0  0  0
   71.0449   51.0749   54.9701 C   0  0  0  0  0  0  0  0  0  0  0  0
   70.3650   49.9205   54.5653 N   0  0  0  0  0  0  0  0  0  0  0  0
   69.9908   49.3821   53.3452 C   0  0  0  0  0  0  0  0  0  0  0  0
   70.2693   49.9726   52.3110 O   0  0  0  0  0  0  0  0  0  0  0  0
   69.2517   48.0983   53.1980 C   0  0  0  0  0  0  0  0  0  0  0  0
   68.7373   47.3999   54.2555 C   0  0  0  0  0  0  0  0  0  0  0  0
   68.0505   46.1941   54.0366 C   0  0  0  0  0  0  0  0  0  0  0  0
   67.8685   45.6705   52.7795 C   0  0  0  0  0  0  0  0  0  0  0  0
   68.3871   46.3739   51.7165 C   0  0  0  0  0  0  0  0  0  0  0  0
   69.0653   47.5655   51.9397 C   0  0  0  0  0  0  0  0  0  0  0  0
   72.5436   50.9839   54.8035 C   0  0  0  0  0  0  0  0  0  0  0  0
   73.1367   51.6104   53.9026 O   0  0  0  0  0  0  0  0  0  0  0  0
   73.3747   50.2045   55.6266 N   0  0  0  0  0  0  0  0  0  0  0  0
   74.7901   50.1649   55.4106 N   0  0  0  0  0  0  0  0  0  0  0  0
   75.5921   49.8318   56.3797 C   0  0  0  0  0  0  0  0  0  0  0  0
   74.9400   49.5101   57.6764 C   0  0  0  0  0  0  0  0  0  0  0  0
   77.0359   49.7774   56.2070 C   0  0  0  0  0  0  0  0  0  0  0  0
   77.5756   49.0592   55.1618 C   0  0  0  0  0  0  0  0  0  0  0  0
   78.9632   48.9946   54.9778 C   0  0  0  0  0  0  0  0  0  0  0  0
   79.8164   49.6476   55.8400 C   0  0  0  0  0  0  0  0  0  0  0  0
   79.2786   50.3667   56.8891 C   0  0  0  0  0  0  0  0  0  0  0  0
   77.9186   50.4160   57.0476 C   0  0  0  0  0  0  0  0  0  0  0  0
   77.4017   51.1425   58.1048 O   0  0  0  0  0  0  0  0  0  0  0  0
  1  2  1  0
  2  3  1  0
  2  4  2  0
  4  5  1  0
  4 14  1  0
  5  6  1  0
  6  7  2  0
  6  8  1  0
  8  9  2  0
  8 13  1  0
  9 10  1  0
 10 11  2  0
 11 12  1  0
 12 13  2  0
 14 15  2  0
 14 16  1  0
 16 17  1  0
 17 18  2  0
 18 19  1  0
 18 20  1  0
 20 21  2  0
 20 25  1  0
 21 22  1  0
 22 23  2  0
 23 24  1  0
 24 25  2  0
 25 26  1  0
M  END
>  <minimizedAffinity>  (67) 
-8.60942

$$$$
data/200k_reference_output/data/smiles/6121.pdb
     RDKit          3D

 28 31  0  0  0  0  0  0  0  0999 V2000
   70.3573   50.4345   54.4741 N   0  0  0  0  0  0  0  0  0  0  0  0
   69.1751   50.4900   55.2480 C   0  0  0  0  0  0  0  0  0  0  0  0
   69.2168   49.8793   56.6018 C   0  0  0  0  0  0  0  0  0  0  0  0
   70.5375   49.4735   56.9617 N   0  0  0  0  0  0  0  0  0  0  0  0
   71.5744   50.4063   56.6187 C   0  0  0  0  0  0  0  0  0  0  0  0
   71.5958   50.5900   55.1272 C   0  0  0  0  0  0  0  0  0  0  0  0
   71.7321   49.0822   52.7380 O   0  0  0  0  0  0  0  0  0  0  0  0
   70.3251   49.4846   53.0861 S   0  0  0  0  0  0  0  0  0  0  0  0
   69.8038   50.2850   51.9127 O   0  0  0  0  0  0  0  0  0  0  0  0
   69.3851   48.0203   53.2304 C   0  0  0  0  0  0  0  0  0  0  0  0
   69.1235   47.4454   54.4443 C   0  0  0  0  0  0  0  0  0  0  0  0
   68.3794   46.2936   54.5336 C   0  0  0  0  0  0  0  0  0  0  0  0
   67.8859   45.7041   53.3931 C   0  0  0  0  0  0  0  0  0  0  0  0
   67.1448   44.5591   53.4676 F   0  0  0  0  0  0  0  0  0  0  0  0
   68.1467   46.2807   52.1603 C   0  0  0  0  0  0  0  0  0  0  0  0
   68.8951   47.4362   52.0895 C   0  0  0  0  0  0  0  0  0  0  0  0
   70.6495   48.9517   58.2946 C   0  0  0  0  0  0  0  0  0  0  0  0
   71.0350   47.4974   58.2167 C   0  0  0  0  0  0  0  0  0  0  0  0
   72.3457   47.1259   58.4668 C   0  0  0  0  0  0  0  0  0  0  0  0
   72.7508   45.8168   58.4113 C   0  0  0  0  0  0  0  0  0  0  0  0
   71.7989   44.8583   58.0915 C   0  0  0  0  0  0  0  0  0  0  0  0
   72.1533   43.5382   58.0223 C   0  0  0  0  0  0  0  0  0  0  0  0
   71.1974   42.6074   57.7051 C   0  0  0  0  0  0  0  0  0  0  0  0
   69.9014   43.0087   57.4609 C   0  0  0  0  0  0  0  0  0  0  0  0
   69.5368   44.2958   57.5241 N   0  0  0  0  0  0  0  0  0  0  0  0
   70.4733   45.2112   57.8355 C   0  0  0  0  0  0  0  0  0  0  0  0
   70.1036   46.5383   57.9017 C   0  0  0  0  0  0  0  0  0  0  0  0
   68.7946   46.9554   57.6569 O   0  0  0  0  0  0  0  0  0  0  0  0
  7  8  2  0
  8  9  2  0
  8 10  1  0
  8  1  1  0
 10 11  2  0
 10 16  1  0
 11 12  1  0
 12 13  2  0
 13 14  1  0
 13 15  1  0
 15 16  2  0
  1  2  1  0
  1  6  1  0
  2  3  1  0
  3  4  1  0
  4 17  1  0
  4  5  1  0
 17 18  1  0
 18 19  2  0
 18 27  1  0
 19 20  1  0
 20 21  2  0
 21 22  1  0
 21 26  1  0
 22 23  2  0
 23 24  1  0
 24 25  2  0
 25 26  1  0
 26 27  2  0
 27 28  1  0
  5  6  1  0
M  CHG  1   4   1
M  END
>  <minimizedAffinity>  (68) 
-8.59387

$$$$
data/200k_reference_output/data/smiles/6135.pdb
     RDKit          3D

 28 32  0  0  0  0  0  0  0  0999 V2000
   75.3712   35.1226   56.7753 O   0  0  0  0  0  0  0  0  0  0  0  0
   74.7999   35.2133   55.6395 C   0  0  0  0  0  0  0  0  0  0  0  0
   75.5243   35.0998   54.4868 C   0  0  0  0  0  0  0  0  0  0  0  0
   74.9016   35.1989   53.2207 C   0  0  0  0  0  0  0  0  0  0  0  0
   73.5464   35.4129   53.2778 C   0  0  0  0  0  0  0  0  0  0  0  0
   72.8581   35.5206   54.4718 C   0  0  0  0  0  0  0  0  0  0  0  0
   73.4743   35.4234   55.6563 N   0  0  0  0  0  0  0  0  0  0  0  0
   72.7549   35.5324   56.8910 C   0  0  0  0  0  0  0  0  0  0  0  0
   72.5170   34.4370   57.6914 C   0  0  0  0  0  0  0  0  0  0  0  0
   71.8304   34.5137   58.8800 C   0  0  0  0  0  0  0  0  0  0  0  0
   71.3389   35.7394   59.3204 C   0  0  0  0  0  0  0  0  0  0  0  0
   71.5729   36.8318   58.5261 C   0  0  0  0  0  0  0  0  0  0  0  0
   72.2677   36.7439   57.3298 C   0  0  0  0  0  0  0  0  0  0  0  0
   70.9475   37.9977   59.2279 C   0  0  0  0  0  0  0  0  0  0  0  0
   70.6893   37.5035   60.6323 C   0  0  0  0  0  0  0  0  0  0  0  0
   70.6097   36.0637   60.4954 N   0  0  0  0  0  0  0  0  0  0  0  0
   69.9233   35.1068   61.3762 C   0  0  0  0  0  0  0  0  0  0  0  0
   70.2131   35.2519   62.8305 C   0  0  0  0  0  0  0  0  0  0  0  0
   68.7946   34.9480   63.0784 N   0  0  0  0  0  0  0  0  0  0  0  0
   68.5435   35.5155   61.7428 C   0  0  0  0  0  0  0  0  0  0  0  0
   75.6435   35.0796   52.0993 O   0  0  0  0  0  0  0  0  0  0  0  0
   75.8429   34.1817   51.1107 C   0  0  0  0  0  0  0  0  0  0  0  0
   76.5480   34.5871   49.8881 C   0  0  0  0  0  0  0  0  0  0  0  0
   77.5725   35.4824   49.9097 C   0  0  0  0  0  0  0  0  0  0  0  0
   78.2636   35.8758   48.7721 C   0  0  0  0  0  0  0  0  0  0  0  0
   77.8767   35.3198   47.5703 C   0  0  0  0  0  0  0  0  0  0  0  0
   76.8462   34.4150   47.5210 C   0  0  0  0  0  0  0  0  0  0  0  0
   76.1835   34.0474   48.6669 C   0  0  0  0  0  0  0  0  0  0  0  0
  1  2  2  0
  2  3  1  0
  2  7  1  0
  3  4  2  0
  4 21  1  0
  4  5  1  0
 21 22  1  0
 22 23  1  0
 23 24  2  0
 23 28  1  0
 24 25  1  0
 25 26  2  0
 26 27  1  0
 27 28  2  0
  5  6  2  0
  6  7  1  0
  7  8  1  0
  8  9  2  0
  8 13  1  0
  9 10  1  0
 10 11  2  0
 11 12  1  0
 11 16  1  0
 12 13  2  0
 12 14  1  0
 14 15  1  0
 15 16  1  0
 16 17  1  0
 17 18  1  0
 17 20  1  0
 18 19  1  0
 19 20  1  0
M  CHG  1  19   1
M  END
>  <minimizedAffinity>  (69) 
-8.54878

$$$$
data/200k_reference_output/data/smiles/6218.pdb
     RDKit          3D

 25 29  0  0  0  0  0  0  0  0999 V2000
   70.9107   51.2563   58.9319 O   0  0  0  0  0  0  0  0  0  0  0  0
   71.1330   51.3156   57.7147 C   0  0  0  0  0  0  0  0  0  0  0  0
   71.9472   52.3126   57.2206 C   0  0  0  0  0  0  0  0  0  0  0  0
   72.5276   53.2605   58.0639 C   0  0  0  0  0  0  0  0  0  0  0  0
   73.3376   54.2481   57.5476 C   0  0  0  0  0  0  0  0  0  0  0  0
   73.5950   54.3259   56.1932 C   0  0  0  0  0  0  0  0  0  0  0  0
   73.0121   53.3798   55.3826 C   0  0  0  0  0  0  0  0  0  0  0  0
   72.1967   52.3786   55.8651 C   0  0  0  0  0  0  0  0  0  0  0  0
   71.6123   51.4258   55.0225 C   0  0  0  0  0  0  0  0  0  0  0  0
   71.8545   51.5117   53.8136 O   0  0  0  0  0  0  0  0  0  0  0  0
   70.8008   50.4314   55.5183 C   0  0  0  0  0  0  0  0  0  0  0  0
   70.5533   50.3681   56.8725 C   0  0  0  0  0  0  0  0  0  0  0  0
   69.7483   49.3241   57.0765 N   0  0  0  0  0  0  0  0  0  0  0  0
   69.4487   48.6911   55.9124 C   0  0  0  0  0  0  0  0  0  0  0  0
   68.6788   47.5935   55.6033 C   0  0  0  0  0  0  0  0  0  0  0  0
   68.0956   46.9903   56.5137 O   0  0  0  0  0  0  0  0  0  0  0  0
   68.5568   47.1677   54.2833 C   0  0  0  0  0  0  0  0  0  0  0  0
   67.7978   46.0809   53.9480 C   0  0  0  0  0  0  0  0  0  0  0  0
   67.6675   45.6475   52.6539 C   0  0  0  0  0  0  0  0  0  0  0  0
   68.3167   46.3225   51.6480 C   0  0  0  0  0  0  0  0  0  0  0  0
   69.0810   47.4158   51.9767 C   0  0  0  0  0  0  0  0  0  0  0  0
   69.2147   47.8530   53.2760 C   0  0  0  0  0  0  0  0  0  0  0  0
   69.9835   48.9539   53.6131 C   0  0  0  0  0  0  0  0  0  0  0  0
   70.5588   49.5460   52.6935 O   0  0  0  0  0  0  0  0  0  0  0  0
   70.1144   49.3896   54.9172 C   0  0  0  0  0  0  0  0  0  0  0  0
  1  2  2  0
  2  3  1  0
  2 12  1  0
  3  4  2  0
  3  8  1  0
  4  5  1  0
  5  6  2  0
  6  7  1  0
  7  8  2  0
  8  9  1  0
  9 10  2  0
  9 11  1  0
 11 12  2  0
 11 25  1  0
 12 13  1  0
 13 14  1  0
 14 15  1  0
 14 25  2  0
 15 16  2  0
 15 17  1  0
 17 18  1  0
 17 22  2  0
 18 19  2  0
 19 20  1  0
 20 21  2  0
 21 22  1  0
 22 23  1  0
 23 24  2  0
 23 25  1  0
M  END
>  <minimizedAffinity>  (70) 
-8.67154

$$$$
data/200k_reference_output/data/smiles/6430.pdb
     RDKit          3D

 28 30  0  0  0  0  0  0  0  0999 V2000
   68.2993   43.4720   56.2355 C   0  0  0  0  0  0  0  0  0  0  0  0
   69.1940   43.7661   57.0297 O   0  0  0  0  0  0  0  0  0  0  0  0
   67.8611   44.4060   55.2826 N   0  0  0  0  0  0  0  0  0  0  0  0
   68.3805   45.7126   55.1509 C   0  0  0  0  0  0  0  0  0  0  0  0
   68.7270   46.5697   56.1331 C   0  0  0  0  0  0  0  0  0  0  0  0
   69.2324   47.8436   55.8916 C   0  0  0  0  0  0  0  0  0  0  0  0
   69.4153   48.3185   54.5986 C   0  0  0  0  0  0  0  0  0  0  0  0
   69.0700   47.4658   53.5816 C   0  0  0  0  0  0  0  0  0  0  0  0
   68.5712   46.2087   53.8505 C   0  0  0  0  0  0  0  0  0  0  0  0
   69.2600   47.9605   52.2234 C   0  0  0  0  0  0  0  0  0  0  0  0
   68.9575   47.2144   51.2662 O   0  0  0  0  0  0  0  0  0  0  0  0
   69.7857   49.2859   51.9374 C   0  0  0  0  0  0  0  0  0  0  0  0
   69.9579   49.7337   50.7763 O   0  0  0  0  0  0  0  0  0  0  0  0
   70.1300   50.1371   53.0247 N   0  0  0  0  0  0  0  0  0  0  0  0
   69.9450   49.6555   54.3447 C   0  0  0  0  0  0  0  0  0  0  0  0
   70.2344   50.3672   55.3357 O   0  0  0  0  0  0  0  0  0  0  0  0
   67.6358   42.1286   56.2326 C   0  0  0  0  0  0  0  0  0  0  0  0
   67.5371   41.5471   57.6120 C   0  0  0  0  0  0  0  0  0  0  0  0
   67.9954   39.2786   56.9145 O   0  0  0  0  0  0  0  0  0  0  0  0
   68.2563   40.2251   57.7027 C   0  0  0  0  0  0  0  0  0  0  0  0
   69.2525   40.0065   58.6825 N   0  0  0  0  0  0  0  0  0  0  0  0
   69.9653   38.7872   58.8206 C   0  0  0  0  0  0  0  0  0  0  0  0
   71.0872   38.5587   58.0506 C   0  0  0  0  0  0  0  0  0  0  0  0
   71.8144   37.3883   58.1492 C   0  0  0  0  0  0  0  0  0  0  0  0
   71.4455   36.3964   59.0267 C   0  0  0  0  0  0  0  0  0  0  0  0
   72.1389   35.2304   59.1503 F   0  0  0  0  0  0  0  0  0  0  0  0
   70.3271   36.6100   59.8047 C   0  0  0  0  0  0  0  0  0  0  0  0
   69.6019   37.7880   59.6985 C   0  0  0  0  0  0  0  0  0  0  0  0
 19 20  2  0
 20 18  1  0
 20 21  1  0
 18 17  1  0
 17  1  1  0
  1  2  2  0
  1  3  1  0
  3  4  1  0
  4  5  2  0
  4  9  1  0
  5  6  1  0
  6  7  2  0
  7  8  1  0
  7 15  1  0
  8  9  2  0
  8 10  1  0
 10 11  2  0
 10 12  1  0
 12 13  2  0
 12 14  1  0
 14 15  1  0
 15 16  2  0
 21 22  1  0
 22 23  2  0
 22 28  1  0
 23 24  1  0
 24 25  2  0
 25 26  1  0
 25 27  1  0
 27 28  2  0
M  END
>  <minimizedAffinity>  (71) 
-9.76403

$$$$
data/200k_reference_output/data/smiles/6477.pdb
     RDKit          3D

 26 29  0  0  0  0  0  0  0  0999 V2000
   69.6594   50.4395   57.4748 C   0  0  0  0  0  0  0  0  0  0  0  0
   68.6804   51.2159   57.9740 N   0  0  0  0  0  0  0  0  0  0  0  0
   68.3810   52.1802   57.0801 C   0  0  0  0  0  0  0  0  0  0  0  0
   69.2255   51.9636   55.9944 C   0  0  0  0  0  0  0  0  0  0  0  0
   70.0057   50.8950   56.2438 N   0  0  0  0  0  0  0  0  0  0  0  0
   71.5378   47.0429   59.1997 C   0  0  0  0  0  0  0  0  0  0  0  0
   71.9643   48.3247   59.4700 C   0  0  0  0  0  0  0  0  0  0  0  0
   71.3681   49.4383   58.9201 C   0  0  0  0  0  0  0  0  0  0  0  0
   70.3130   49.2747   58.0739 C   0  0  0  0  0  0  0  0  0  0  0  0
   69.8613   47.9995   57.7827 C   0  0  0  0  0  0  0  0  0  0  0  0
   70.4742   46.8889   58.3456 C   0  0  0  0  0  0  0  0  0  0  0  0
   71.4953   45.1259   60.5346 O   0  0  0  0  0  0  0  0  0  0  0  0
   72.1652   45.8680   59.7776 C   0  0  0  0  0  0  0  0  0  0  0  0
   73.4772   45.5194   59.5356 O   0  0  0  0  0  0  0  0  0  0  0  0
   71.0167   50.3501   55.3583 C   0  0  0  0  0  0  0  0  0  0  0  0
   70.4120   49.4193   54.3592 C   0  0  0  0  0  0  0  0  0  0  0  0
   69.5339   48.4664   54.7187 N   0  0  0  0  0  0  0  0  0  0  0  0
   68.9775   47.6167   53.8283 C   0  0  0  0  0  0  0  0  0  0  0  0
   68.0766   46.6396   54.1983 C   0  0  0  0  0  0  0  0  0  0  0  0
   67.5134   45.7752   53.2824 C   0  0  0  0  0  0  0  0  0  0  0  0
   67.8348   45.8586   51.9430 C   0  0  0  0  0  0  0  0  0  0  0  0
   68.7359   46.8375   51.5782 C   0  0  0  0  0  0  0  0  0  0  0  0
   69.3024   47.7043   52.4909 C   0  0  0  0  0  0  0  0  0  0  0  0
   70.2050   48.6862   52.1288 C   0  0  0  0  0  0  0  0  0  0  0  0
   70.5125   48.7787   50.9056 O   0  0  0  0  0  0  0  0  0  0  0  0
   70.7351   49.5119   53.0555 N   0  0  0  0  0  0  0  0  0  0  0  0
 12 13  2  0
 13 14  1  0
 13  6  1  0
  6  7  2  0
  6 11  1  0
  7  8  1  0
  8  9  2  0
  9  1  1  0
  9 10  1  0
  1  2  2  0
  1  5  1  0
  2  3  1  0
  3  4  2  0
  4  5  1  0
  5 15  1  0
 15 16  1  0
 16 17  2  0
 16 26  1  0
 17 18  1  0
 18 19  2  0
 18 23  1  0
 19 20  1  0
 20 21  2  0
 21 22  1  0
 22 23  2  0
 23 24  1  0
 24 25  2  0
 24 26  1  0
 10 11  2  0
M  END
>  <minimizedAffinity>  (72) 
-8.67144

$$$$
data/200k_reference_output/data/smiles/6676.pdb
     RDKit          3D

 31 35  0  0  0  0  0  0  0  0999 V2000
   68.7735   39.5565   63.4827 N   0  0  0  0  0  0  0  0  0  0  0  0
   69.5384   38.9012   62.4477 C   0  0  0  0  0  0  0  0  0  0  0  0
   68.6445   37.7457   61.9607 C   0  0  1  0  0  0  0  0  0  0  0  0
   67.2976   38.5029   61.9849 C   0  0  2  0  0  0  0  0  0  0  0  0
   67.3933   39.2135   63.2937 C   0  0  0  0  0  0  0  0  0  0  0  0
   66.1598   37.5677   61.8845 C   0  0  0  0  0  0  0  0  0  0  0  0
   65.4581   37.1596   62.9997 C   0  0  0  0  0  0  0  0  0  0  0  0
   64.3957   36.2830   62.8874 C   0  0  0  0  0  0  0  0  0  0  0  0
   63.9889   35.7784   61.6693 C   0  0  0  0  0  0  0  0  0  0  0  0
   62.9405   34.9164   61.5773 F   0  0  0  0  0  0  0  0  0  0  0  0
   64.6902   36.1856   60.5539 C   0  0  0  0  0  0  0  0  0  0  0  0
   65.7661   37.0733   60.6603 C   0  0  0  0  0  0  0  0  0  0  0  0
   68.9650   41.2783   63.4461 S   0  0  0  0  0  0  0  0  0  0  0  0
   68.9409   41.7054   62.0065 O   0  0  0  0  0  0  0  0  0  0  0  0
   67.8389   41.9697   64.1355 O   0  0  0  0  0  0  0  0  0  0  0  0
   73.7429   43.3929   64.1096 C   0  0  0  0  0  0  0  0  0  0  0  0
   72.5260   42.6681   64.3506 N   0  0  0  0  0  0  0  0  0  0  0  0
   72.2143   42.0034   65.4699 C   0  0  0  0  0  0  0  0  0  0  0  0
   70.9964   41.4427   65.3474 N   0  0  0  0  0  0  0  0  0  0  0  0
   70.5151   41.7603   64.1107 C   0  0  0  0  0  0  0  0  0  0  0  0
   71.4919   42.5243   63.5149 C   0  0  0  0  0  0  0  0  0  0  0  0
   68.9409   37.3728   60.6289 N   0  0  0  0  0  0  0  0  0  0  0  0
   70.1822   37.7391   60.0715 C   0  0  2  0  0  0  0  0  0  0  0  0
   69.8446   38.6324   58.8431 C   0  0  0  0  0  0  0  0  0  0  0  0
   71.2612   38.7224   58.2576 C   0  0  0  0  0  0  0  0  0  0  0  0
   71.6163   37.2569   58.3079 C   0  0  0  0  0  0  0  0  0  0  0  0
   72.4296   36.5644   57.4573 C   0  0  0  0  0  0  0  0  0  0  0  0
   72.6180   35.2225   57.6831 C   0  0  0  0  0  0  0  0  0  0  0  0
   71.9956   34.6128   58.7383 C   0  0  0  0  0  0  0  0  0  0  0  0
   71.1700   35.3319   59.5936 C   0  0  0  0  0  0  0  0  0  0  0  0
   70.9615   36.6707   59.3978 C   0  0  0  0  0  0  0  0  0  0  0  0
 16 17  1  0
 17 18  1  0
 17 21  1  0
 18 19  2  0
 19 20  1  0
 20 13  1  0
 20 21  2  0
 13 14  2  0
 13 15  2  0
 13  1  1  0
  1  2  1  0
  1  5  1  0
  2  3  1  0
  3 22  1  6
  3  4  1  0
 23 22  1  6
 23 24  1  0
 23 31  1  0
 24 25  1  0
 25 26  1  0
 26 27  1  0
 26 31  2  0
 27 28  2  0
 28 29  1  0
 29 30  2  0
 30 31  1  0
  4  6  1  1
  4  5  1  0
  6  7  2  0
  6 12  1  0
  7  8  1  0
  8  9  2  0
  9 10  1  0
  9 11  1  0
 11 12  2  0
M  CHG  1  22   1
M  END
>  <minimizedAffinity>  (73) 
-8.52641

$$$$
data/200k_reference_output/data/smiles/6677.pdb
     RDKit          3D

 22 25  0  0  0  0  0  0  0  0999 V2000
   68.4345   46.1807   54.6774 C   0  0  0  0  0  0  0  0  0  0  0  0
   67.9874   45.4982   53.5389 C   0  0  0  0  0  0  0  0  0  0  0  0
   68.2426   45.9873   52.2942 C   0  0  0  0  0  0  0  0  0  0  0  0
   68.9476   47.1662   52.1924 C   0  0  0  0  0  0  0  0  0  0  0  0
   69.3512   47.8936   51.1281 N   0  0  0  0  0  0  0  0  0  0  0  0
   70.0019   48.9560   51.5361 N   0  0  0  0  0  0  0  0  0  0  0  0
   70.0690   48.9985   52.9025 C   0  0  0  0  0  0  0  0  0  0  0  0
   69.4118   47.8831   53.3061 C   0  0  0  0  0  0  0  0  0  0  0  0
   69.1358   47.3561   54.5579 C   0  0  0  0  0  0  0  0  0  0  0  0
   70.7594   50.0766   53.6000 C   0  0  0  0  0  0  0  0  0  0  0  0
   70.3026   51.2914   54.0460 C   0  0  0  0  0  0  0  0  0  0  0  0
   71.3420   51.9860   54.6834 C   0  0  0  0  0  0  0  0  0  0  0  0
   72.4376   51.1653   54.6143 C   0  0  0  0  0  0  0  0  0  0  0  0
   72.0537   50.0580   53.9711 N   0  0  0  0  0  0  0  0  0  0  0  0
   68.1616   45.6506   55.9625 N   0  0  0  0  0  0  0  0  0  0  0  0
   67.3185   40.8545   55.7514 N   0  0  0  0  0  0  0  0  0  0  0  0
   68.0573   41.9924   56.1562 C   0  0  0  0  0  0  0  0  0  0  0  0
   69.1727   41.7678   56.9109 N   0  0  0  0  0  0  0  0  0  0  0  0
   69.9435   42.7765   57.3437 C   0  0  0  0  0  0  0  0  0  0  0  0
   69.5952   44.0483   57.0179 C   0  0  0  0  0  0  0  0  0  0  0  0
   68.4587   44.2709   56.2499 C   0  0  0  0  0  0  0  0  0  0  0  0
   67.7120   43.2533   55.8316 N   0  0  0  0  0  0  0  0  0  0  0  0
 16 17  1  0
 17 18  2  0
 17 22  1  0
 18 19  1  0
 19 20  2  0
 20 21  1  0
 21 15  1  0
 21 22  2  0
 15  1  1  0
  1  2  2  0
  1  9  1  0
  2  3  1  0
  3  4  2  0
  4  5  1  0
  4  8  1  0
  5  6  1  0
  6  7  2  0
  7 10  1  0
  7  8  1  0
 10 11  2  0
 10 14  1  0
 11 12  1  0
 12 13  2  0
 13 14  1  0
  8  9  2  0
M  END
>  <minimizedAffinity>  (74) 
-8.69565

$$$$
data/200k_reference_output/data/smiles/6709.pdb
     RDKit          3D

 24 26  0  0  0  0  0  0  0  0999 V2000
   69.1778   49.0813   57.5394 C   0  0  2  0  0  0  0  0  0  0  0  0
   70.4230   48.5827   58.1556 C   0  0  0  0  0  0  0  0  0  0  0  0
   71.4083   48.9302   58.8304 O   0  0  0  0  0  0  0  0  0  0  0  0
   70.0529   47.2947   57.6080 N   0  0  0  0  0  0  0  0  0  0  0  0
   70.2623   46.0000   58.1215 C   0  0  0  0  0  0  0  0  0  0  0  0
   70.8711   45.8101   59.2335 O   0  0  0  0  0  0  0  0  0  0  0  0
   69.8263   44.8267   57.4656 N   0  0  0  0  0  0  0  0  0  0  0  0
   69.4860   48.0411   56.5052 C   0  0  1  0  0  0  0  0  0  0  0  0
   67.7780   51.1479   57.2106 C   0  0  0  0  0  0  0  0  0  0  0  0
   69.1154   50.4997   57.1829 C   0  0  0  0  0  0  0  0  0  0  0  0
   70.0203   43.4741   57.9550 C   0  0  0  0  0  0  0  0  0  0  0  0
   69.1055   42.4936   57.3555 C   0  0  0  0  0  0  0  0  0  0  0  0
   68.1496   42.7633   56.4053 C   0  0  0  0  0  0  0  0  0  0  0  0
   67.3364   41.7725   55.9109 C   0  0  0  0  0  0  0  0  0  0  0  0
   67.4315   40.5047   56.3246 N   0  0  0  0  0  0  0  0  0  0  0  0
   68.3606   40.1825   57.2634 C   0  0  0  0  0  0  0  0  0  0  0  0
   69.1834   41.1633   57.7692 C   0  0  0  0  0  0  0  0  0  0  0  0
   68.3354   47.3161   55.9141 C   0  0  0  0  0  0  0  0  0  0  0  0
   68.4478   47.0861   54.4550 C   0  0  0  0  0  0  0  0  0  0  0  0
   67.8435   46.0652   53.7890 C   0  0  0  0  0  0  0  0  0  0  0  0
   68.0173   45.9481   52.4290 C   0  0  0  0  0  0  0  0  0  0  0  0
   68.7932   46.8418   51.7138 C   0  0  0  0  0  0  0  0  0  0  0  0
   69.4099   47.8782   52.3720 C   0  0  0  0  0  0  0  0  0  0  0  0
   69.2201   47.9779   53.7452 C   0  0  0  0  0  0  0  0  0  0  0  0
  9 10  1  0
  1 10  1  6
  1  2  1  0
  1  8  1  0
  2  3  2  0
  2  4  1  0
  4  5  1  0
  4  8  1  0
  5  6  2  0
  5  7  1  0
  7 11  1  0
 11 12  1  0
 12 13  2  0
 12 17  1  0
 13 14  1  0
 14 15  2  0
 15 16  1  0
 16 17  2  0
  8 18  1  1
 18 19  1  0
 19 20  2  0
 19 24  1  0
 20 21  1  0
 21 22  2  0
 22 23  1  0
 23 24  2  0
M  END
>  <minimizedAffinity>  (75) 
-8.69773

$$$$
data/200k_reference_output/data/smiles/6925.pdb
     RDKit          3D

 26 28  0  0  0  0  0  0  0  0999 V2000
   69.2993   44.4767   57.0096 C   0  0  0  0  0  0  0  0  0  0  0  0
   69.0034   43.0182   56.9721 C   0  0  0  0  0  0  0  0  0  0  0  0
   69.4710   42.1008   57.8767 N   0  0  0  0  0  0  0  0  0  0  0  0
   69.0226   40.8934   57.5952 N   0  0  0  0  0  0  0  0  0  0  0  0
   68.2514   40.9893   56.5024 C   0  0  0  0  0  0  0  0  0  0  0  0
   67.6655   40.0230   55.9623 O   0  0  0  0  0  0  0  0  0  0  0  0
   68.2485   42.3034   56.1294 N   0  0  0  0  0  0  0  0  0  0  0  0
   69.3120   39.6983   58.3313 C   0  0  0  0  0  0  0  0  0  0  0  0
   68.3309   39.1346   59.1480 C   0  0  0  0  0  0  0  0  0  0  0  0
   68.5230   38.0026   59.8808 C   0  0  0  0  0  0  0  0  0  0  0  0
   69.7634   37.3862   59.8030 C   0  0  0  0  0  0  0  0  0  0  0  0
   70.0531   35.7996   60.8205 Br  0  0  0  0  0  0  0  0  0  0  0  0
   70.7618   37.9142   59.0040 C   0  0  0  0  0  0  0  0  0  0  0  0
   70.5265   39.0779   58.2676 C   0  0  0  0  0  0  0  0  0  0  0  0
   68.4858   45.2943   56.2923 O   0  0  0  0  0  0  0  0  0  0  0  0
   69.0011   47.5039   53.4512 C   0  0  0  0  0  0  0  0  0  0  0  0
   68.3808   46.8452   52.4139 C   0  0  0  0  0  0  0  0  0  0  0  0
   68.3232   47.3079   51.1498 F   0  0  0  0  0  0  0  0  0  0  0  0
   67.7854   45.6368   52.6961 C   0  0  0  0  0  0  0  0  0  0  0  0
   67.8182   45.1197   53.9792 C   0  0  0  0  0  0  0  0  0  0  0  0
   68.4332   45.7637   55.0293 C   0  0  0  0  0  0  0  0  0  0  0  0
   69.0369   46.9993   54.7215 C   0  0  0  0  0  0  0  0  0  0  0  0
   69.6559   47.6813   55.7055 F   0  0  0  0  0  0  0  0  0  0  0  0
   70.9770   48.8501   52.6884 N   0  0  0  0  0  0  0  0  0  0  0  0
   69.6438   48.8003   53.1631 C   0  0  0  0  0  0  0  0  0  0  0  0
   69.0374   49.8796   53.3291 O   0  0  0  0  0  0  0  0  0  0  0  0
 24 25  1  0
 25 26  2  0
 25 16  1  0
 16 17  2  0
 16 22  1  0
 17 18  1  0
 17 19  1  0
 19 20  2  0
 20 21  1  0
 21 15  1  0
 21 22  2  0
 15  1  1  0
  1  2  1  0
  2  3  2  0
  2  7  1  0
  3  4  1  0
  4  8  1  0
  4  5  1  0
  8  9  2  0
  8 14  1  0
  9 10  1  0
 10 11  2  0
 11 12  1  0
 11 13  1  0
 13 14  2  0
  5  6  2  0
  5  7  1  0
 22 23  1  0
M  END
>  <minimizedAffinity>  (76) 
-8.74415

$$$$
data/200k_reference_output/data/smiles/6944.pdb
     RDKit          3D

 29 32  0  0  0  0  0  0  0  0999 V2000
   68.7348   39.0504   57.7067 O   0  0  0  0  0  0  0  0  0  0  0  0
   68.0376   39.8860   58.3364 C   0  0  0  0  0  0  0  0  0  0  0  0
   67.1253   39.4035   59.1966 N   0  0  0  0  0  0  0  0  0  0  0  0
   66.3650   40.2734   59.8837 C   0  0  0  0  0  0  0  0  0  0  0  0
   65.4575   39.8225   60.7382 C   0  0  0  0  0  0  0  0  0  0  0  0
   66.5457   41.6380   59.6845 C   0  0  0  0  0  0  0  0  0  0  0  0
   65.8233   42.4320   60.3398 O   0  0  0  0  0  0  0  0  0  0  0  0
   67.4611   42.1091   58.8228 N   0  0  0  0  0  0  0  0  0  0  0  0
   68.2140   41.2369   58.1424 C   0  0  0  0  0  0  0  0  0  0  0  0
   69.1244   41.7190   57.2837 C   0  0  0  0  0  0  0  0  0  0  0  0
   69.2844   43.1601   57.1035 C   0  0  0  0  0  0  0  0  0  0  0  0
   70.2130   43.8587   57.8506 C   0  0  0  0  0  0  0  0  0  0  0  0
   70.3748   45.2259   57.6894 C   0  0  0  0  0  0  0  0  0  0  0  0
   69.5973   45.9130   56.7666 C   0  0  0  0  0  0  0  0  0  0  0  0
   68.6623   45.2372   56.0074 C   0  0  0  0  0  0  0  0  0  0  0  0
   68.5399   43.8929   56.2018 C   0  0  0  0  0  0  0  0  0  0  0  0
   67.8822   45.9414   55.0775 O   0  0  0  0  0  0  0  0  0  0  0  0
   68.5057   46.7240   54.1245 C   0  0  0  0  0  0  0  0  0  0  0  0
   69.0487   47.9651   54.3769 C   0  0  0  0  0  0  0  0  0  0  0  0
   69.6587   48.6968   53.3740 C   0  0  0  0  0  0  0  0  0  0  0  0
   69.7387   48.1996   52.0932 C   0  0  0  0  0  0  0  0  0  0  0  0
   70.3474   48.9491   51.1309 F   0  0  0  0  0  0  0  0  0  0  0  0
   69.2022   46.9647   51.8280 C   0  0  0  0  0  0  0  0  0  0  0  0
   68.5993   46.2506   52.8360 C   0  0  0  0  0  0  0  0  0  0  0  0
   65.3063   38.3734   60.9115 C   0  0  0  0  0  0  0  0  0  0  0  0
   64.5754   37.4854   60.2092 C   0  0  0  0  0  0  0  0  0  0  0  0
   64.5944   36.1981   60.5579 C   0  0  0  0  0  0  0  0  0  0  0  0
   65.3441   35.8104   61.6056 C   0  0  0  0  0  0  0  0  0  0  0  0
   66.0878   37.3869   62.1502 S   0  0  0  0  0  0  0  0  0  0  0  0
  1  2  2  0
  2  3  1  0
  2  9  1  0
  3  4  1  0
  4  5  2  0
  4  6  1  0
  5 25  1  0
 25 26  2  0
 25 29  1  0
 26 27  1  0
 27 28  2  0
 28 29  1  0
  6  7  2  0
  6  8  1  0
  8  9  1  0
  9 10  2  0
 10 11  1  0
 11 12  2  0
 11 16  1  0
 12 13  1  0
 13 14  2  0
 14 15  1  0
 15 17  1  0
 15 16  2  0
 17 18  1  0
 18 19  2  0
 18 24  1  0
 19 20  1  0
 20 21  2  0
 21 22  1  0
 21 23  1  0
 23 24  2  0
M  END
>  <minimizedAffinity>  (77) 
-9.36061

$$$$
data/200k_reference_output/data/smiles/6973.pdb
     RDKit          3D

 24 26  0  0  0  0  0  0  0  0999 V2000
   67.7312   44.0860   55.9048 O   0  0  0  0  0  0  0  0  0  0  0  0
   68.8081   44.0515   56.5426 C   0  0  0  0  0  0  0  0  0  0  0  0
   69.4852   45.2859   56.7050 N   0  0  0  0  0  0  0  0  0  0  0  0
   69.2805   42.7749   57.0636 C   0  0  0  0  0  0  0  0  0  0  0  0
   70.5393   42.5757   57.5874 C   0  0  0  0  0  0  0  0  0  0  0  0
   70.9310   41.3201   58.0720 C   0  0  0  0  0  0  0  0  0  0  0  0
   70.0643   40.2593   58.0330 C   0  0  0  0  0  0  0  0  0  0  0  0
   68.8391   40.4726   57.5172 N   0  0  0  0  0  0  0  0  0  0  0  0
   68.4495   41.6735   57.0486 C   0  0  0  0  0  0  0  0  0  0  0  0
   70.4105   38.9030   58.5265 C   0  0  0  0  0  0  0  0  0  0  0  0
   69.6987   38.2985   59.5269 C   0  0  0  0  0  0  0  0  0  0  0  0
   70.0339   37.0250   59.9807 C   0  0  0  0  0  0  0  0  0  0  0  0
   71.1035   36.4057   59.3824 C   0  0  0  0  0  0  0  0  0  0  0  0
   71.8143   37.0231   58.3750 C   0  0  0  0  0  0  0  0  0  0  0  0
   71.4460   38.2413   57.9842 N   0  0  0  0  0  0  0  0  0  0  0  0
   68.9053   46.7788   56.0808 S   0  0  0  0  0  0  0  0  0  0  0  0
   67.6147   47.1530   56.7588 O   0  0  0  0  0  0  0  0  0  0  0  0
   69.9075   47.8441   56.4310 O   0  0  0  0  0  0  0  0  0  0  0  0
   68.7165   46.7606   54.3563 C   0  0  0  0  0  0  0  0  0  0  0  0
   69.3960   47.6721   53.5754 C   0  0  0  0  0  0  0  0  0  0  0  0
   69.2578   47.6727   52.1950 C   0  0  0  0  0  0  0  0  0  0  0  0
   68.4402   46.7669   51.5548 C   0  0  0  0  0  0  0  0  0  0  0  0
   67.7535   45.8473   52.3180 C   0  0  0  0  0  0  0  0  0  0  0  0
   67.9103   45.8712   53.6869 C   0  0  0  0  0  0  0  0  0  0  0  0
  1  2  2  0
  2  3  1  0
  2  4  1  0
  3 16  1  0
 16 17  2  0
 16 18  2  0
 16 19  1  0
 19 20  2  0
 19 24  1  0
 20 21  1  0
 21 22  2  0
 22 23  1  0
 23 24  2  0
  4  5  2  0
  4  9  1  0
  5  6  1  0
  6  7  2  0
  7 10  1  0
  7  8  1  0
 10 11  2  0
 10 15  1  0
 11 12  1  0
 12 13  2  0
 13 14  1  0
 14 15  2  0
  8  9  2  0
M  END
>  <minimizedAffinity>  (78) 
-8.64053

$$$$
data/200k_reference_output/data/smiles/7092.pdb
     RDKit          3D

 33 38  0  0  0  0  0  0  0  0999 V2000
   71.7000   47.1529   58.9781 C   0  0  0  0  0  0  0  0  0  0  0  0
   70.7626   47.8265   58.1872 C   0  0  0  0  0  0  0  0  0  0  0  0
   69.9254   47.2132   57.2951 C   0  0  0  0  0  0  0  0  0  0  0  0
   70.0229   45.8213   57.1734 C   0  0  0  0  0  0  0  0  0  0  0  0
   70.9289   45.1206   57.9309 C   0  0  0  0  0  0  0  0  0  0  0  0
   71.7541   45.7851   58.8205 C   0  0  0  0  0  0  0  0  0  0  0  0
   72.6537   45.0649   59.5676 F   0  0  0  0  0  0  0  0  0  0  0  0
   72.2031   47.9088   61.1170 O   0  0  0  0  0  0  0  0  0  0  0  0
   72.5569   47.8836   59.9066 C   0  0  0  0  0  0  0  0  0  0  0  0
   73.7395   48.5427   59.4863 N   0  0  0  0  0  0  0  0  0  0  0  0
   74.4124   48.7062   58.2147 C   0  0  0  0  0  0  0  0  0  0  0  0
   75.6767   48.8757   58.9821 C   0  0  0  0  0  0  0  0  0  0  0  0
   74.8001   49.3308   60.0814 C   0  0  0  0  0  0  0  0  0  0  0  0
   76.7449   49.7379   58.4791 C   0  0  0  0  0  0  0  0  0  0  0  0
   77.5899   48.5476   58.3660 N   0  0  0  0  0  0  0  0  0  0  0  0
   78.8262   48.3222   57.7531 C   0  0  0  0  0  0  0  0  0  0  0  0
   79.3412   47.1846   57.8037 O   0  0  0  0  0  0  0  0  0  0  0  0
   76.6012   47.7716   59.1403 C   0  0  0  0  0  0  0  0  0  0  0  0
   79.5460   49.3975   57.0445 C   0  0  0  0  0  0  0  0  0  0  0  0
   80.7467   49.0068   56.1991 C   0  0  0  0  0  0  0  0  0  0  0  0
   79.4605   49.4361   55.5467 C   0  0  0  0  0  0  0  0  0  0  0  0
   68.9322   47.9574   56.4803 C   0  0  0  0  0  0  0  0  0  0  0  0
   69.2653   48.1387   55.0791 C   0  0  0  0  0  0  0  0  0  0  0  0
   70.1484   49.1280   54.7624 N   0  0  0  0  0  0  0  0  0  0  0  0
   70.5764   49.3853   53.5519 N   0  0  0  0  0  0  0  0  0  0  0  0
   70.1535   48.6584   52.5079 C   0  0  0  0  0  0  0  0  0  0  0  0
   70.5522   48.8872   51.3402 O   0  0  0  0  0  0  0  0  0  0  0  0
   69.2571   47.6414   52.7604 C   0  0  0  0  0  0  0  0  0  0  0  0
   68.7663   46.8545   51.7329 C   0  0  0  0  0  0  0  0  0  0  0  0
   67.8616   45.8465   51.9877 C   0  0  0  0  0  0  0  0  0  0  0  0
   67.4217   45.5939   53.2695 C   0  0  0  0  0  0  0  0  0  0  0  0
   67.8835   46.3482   54.3087 C   0  0  0  0  0  0  0  0  0  0  0  0
   68.7960   47.3632   54.0520 C   0  0  0  0  0  0  0  0  0  0  0  0
  8  9  2  0
  9  1  1  0
  9 10  1  0
  1  2  2  0
  1  6  1  0
  2  3  1  0
  3 22  1  0
  3  4  2  0
 22 23  1  0
 23 24  2  0
 23 33  1  0
 24 25  1  0
 25 26  1  0
 26 27  2  0
 26 28  1  0
 28 29  1  0
 28 33  2  0
 29 30  2  0
 30 31  1  0
 31 32  2  0
 32 33  1  0
  4  5  1  0
  5  6  2  0
  6  7  1  0
 10 11  1  0
 10 13  1  0
 11 12  1  0
 12 13  1  0
 12 14  1  0
 12 18  1  0
 14 15  1  0
 15 16  1  0
 15 18  1  0
 16 17  2  0
 16 19  1  0
 19 20  1  0
 19 21  1  0
 20 21  1  0
M  END
>  <minimizedAffinity>  (79) 
-9.36580

$$$$
data/200k_reference_output/data/smiles/7136.pdb
     RDKit          3D

 20 21  0  0  0  0  0  0  0  0999 V2000
   68.2486   44.4654   56.1506 N   0  0  0  0  0  0  0  0  0  0  0  0
   67.9728   43.3931   56.3715 N   0  0  0  0  0  0  0  0  0  0  0  0
   68.5207   42.2571   57.0069 C   0  0  0  0  0  0  0  0  0  0  0  0
   69.6847   42.2065   57.7100 C   0  0  0  0  0  0  0  0  0  0  0  0
   70.1689   41.0471   58.2688 C   0  0  0  0  0  0  0  0  0  0  0  0
   69.5019   39.8513   58.1544 C   0  0  0  0  0  0  0  0  0  0  0  0
   68.3089   39.8772   57.4374 C   0  0  0  0  0  0  0  0  0  0  0  0
   67.8165   41.0426   56.8722 C   0  0  0  0  0  0  0  0  0  0  0  0
   69.9562   38.5952   58.7058 C   0  0  0  0  0  0  0  0  0  0  0  0
   69.3186   38.0126   59.6322 N   0  0  0  0  0  0  0  0  0  0  0  0
   71.1430   38.0006   58.2214 N   0  0  0  0  0  0  0  0  0  0  0  0
   68.2641   45.7394   55.7349 N   0  0  0  0  0  0  0  0  0  0  0  0
   68.9388   47.2878   52.4056 C   0  0  0  0  0  0  0  0  0  0  0  0
   68.1746   46.5061   51.5615 C   0  0  0  0  0  0  0  0  0  0  0  0
   67.4496   45.4707   52.0819 C   0  0  0  0  0  0  0  0  0  0  0  0
   67.4928   45.2150   53.4567 C   0  0  0  0  0  0  0  0  0  0  0  0
   68.2498   45.9845   54.3175 C   0  0  0  0  0  0  0  0  0  0  0  0
   68.9565   47.0135   53.7401 C   0  0  0  0  0  0  0  0  0  0  0  0
   70.3106   49.2846   51.4717 N   0  0  0  0  0  0  0  0  0  0  0  0
   69.7084   48.3882   51.8897 C   0  0  0  0  0  0  0  0  0  0  0  0
 19 20  3  0
 20 13  1  0
 13 14  2  0
 13 18  1  0
 14 15  1  0
 15 16  2  0
 16 17  1  0
 17 12  1  0
 17 18  2  0
 12  1  1  0
  1  2  2  0
  2  3  1  0
  3  4  2  0
  3  8  1  0
  4  5  1  0
  5  6  2  0
  6  9  1  0
  6  7  1  0
  9 10  2  0
  9 11  1  0
  7  8  2  0
M  CHG  1  10   1
M  END
>  <minimizedAffinity>  (80) 
-8.59287

$$$$
data/200k_reference_output/data/smiles/7144.pdb
     RDKit          3D

 25 27  0  0  0  0  0  0  0  0999 V2000
   68.5921   42.3587   57.2051 C   0  0  0  0  0  0  0  0  0  0  0  0
   69.8384   42.4598   57.0758 O   0  0  0  0  0  0  0  0  0  0  0  0
   67.7980   43.3631   56.5949 N   0  0  0  0  0  0  0  0  0  0  0  0
   67.0214   39.0153   59.3891 C   0  0  0  0  0  0  0  0  0  0  0  0
   68.0177   38.8677   58.4467 C   0  0  0  0  0  0  0  0  0  0  0  0
   68.5168   39.9558   57.7474 C   0  0  0  0  0  0  0  0  0  0  0  0
   68.0427   41.2380   57.9592 C   0  0  0  0  0  0  0  0  0  0  0  0
   67.0483   41.3768   58.9030 C   0  0  0  0  0  0  0  0  0  0  0  0
   66.5362   40.2857   59.6148 C   0  0  0  0  0  0  0  0  0  0  0  0
   65.5677   36.9944   59.3613 C   0  0  0  0  0  0  0  0  0  0  0  0
   66.4474   37.9029   60.1656 C   0  0  0  0  0  0  0  0  0  0  0  0
   67.6225   37.0614   60.6677 C   0  0  0  0  0  0  0  0  0  0  0  0
   65.6937   38.4764   61.3356 C   0  0  0  0  0  0  0  0  0  0  0  0
   68.3521   44.4374   55.8709 N   0  0  0  0  0  0  0  0  0  0  0  0
   67.8016   44.8813   54.8155 C   0  0  0  0  0  0  0  0  0  0  0  0
   68.3296   45.9948   54.0226 C   0  0  0  0  0  0  0  0  0  0  0  0
   68.2431   46.0285   52.6491 C   0  0  0  0  0  0  0  0  0  0  0  0
   68.7384   47.0749   51.8878 C   0  0  0  0  0  0  0  0  0  0  0  0
   69.3473   48.1335   52.5296 C   0  0  0  0  0  0  0  0  0  0  0  0
   69.4501   48.1276   53.9072 C   0  0  0  0  0  0  0  0  0  0  0  0
   68.9433   47.0645   54.6373 C   0  0  0  0  0  0  0  0  0  0  0  0
   70.0810   49.2725   54.2230 N   0  0  0  0  0  0  0  0  0  0  0  0
   70.3490   49.9402   53.1193 O   0  0  0  0  0  0  0  0  0  0  0  0
   69.9197   49.2780   52.0868 N   0  0  0  0  0  0  0  0  0  0  0  0
   70.0283   49.6740   50.7739 O   0  0  0  0  0  0  0  0  0  0  0  0
 10 11  1  0
 11 12  1  0
 11 13  1  0
 11  4  1  0
  4  5  2  0
  4  9  1  0
  5  6  1  0
  6  7  2  0
  7  1  1  0
  7  8  1  0
  1  2  2  0
  1  3  1  0
  3 14  1  0
 14 15  2  0
 15 16  1  0
 16 17  1  0
 16 21  2  0
 17 18  2  0
 18 19  1  0
 19 20  1  0
 19 24  2  0
 20 21  1  0
 20 22  2  0
 22 23  1  0
 23 24  1  0
 24 25  1  0
  8  9  2  0
M  CHG  2  24   1  25  -1
M  END
>  <minimizedAffinity>  (81) 
-8.80687

$$$$
data/200k_reference_output/data/smiles/7171.pdb
     RDKit          3D

 24 26  0  0  0  0  0  0  0  0999 V2000
   71.9550   41.6062   59.6518 C   0  0  0  0  0  0  0  0  0  0  0  0
   70.7475   41.2304   58.8557 C   0  0  0  0  0  0  0  0  0  0  0  0
   70.2323   39.9573   58.9489 C   0  0  0  0  0  0  0  0  0  0  0  0
   69.1130   39.5972   58.2211 C   0  0  0  0  0  0  0  0  0  0  0  0
   68.5129   40.5316   57.3961 C   0  0  0  0  0  0  0  0  0  0  0  0
   68.9989   41.8148   57.2762 C   0  0  0  0  0  0  0  0  0  0  0  0
   70.1136   42.1217   58.0218 C   0  0  0  0  0  0  0  0  0  0  0  0
   70.7726   43.7315   57.9064 Cl  0  0  0  0  0  0  0  0  0  0  0  0
   68.1679   42.5812   56.3438 C   0  0  0  0  0  0  0  0  0  0  0  0
   68.2950   43.7972   55.9698 N   0  0  0  0  0  0  0  0  0  0  0  0
   67.1247   41.6891   55.8833 C   0  0  0  0  0  0  0  0  0  0  0  0
   66.2056   41.9728   55.0684 O   0  0  0  0  0  0  0  0  0  0  0  0
   67.3718   40.4507   56.5486 N   0  0  0  0  0  0  0  0  0  0  0  0
   67.4771   44.4822   55.0785 N   0  0  0  0  0  0  0  0  0  0  0  0
   68.0691   45.6152   54.4458 C   0  0  0  0  0  0  0  0  0  0  0  0
   68.1063   45.7750   53.0906 C   0  0  0  0  0  0  0  0  0  0  0  0
   68.6975   46.8797   52.5094 C   0  0  0  0  0  0  0  0  0  0  0  0
   69.2731   47.8607   53.2908 C   0  0  0  0  0  0  0  0  0  0  0  0
   69.2464   47.7186   54.6533 C   0  0  0  0  0  0  0  0  0  0  0  0
   68.6593   46.6226   55.2198 C   0  0  0  0  0  0  0  0  0  0  0  0
   70.0374   49.2708   52.6215 S   0  0  0  0  0  0  0  0  0  0  0  0
   69.2739   50.6741   53.2518 N   0  0  0  0  0  0  0  0  0  0  0  0
   69.9993   49.2628   51.1060 O   0  0  0  0  0  0  0  0  0  0  0  0
   71.4881   49.2821   53.0308 O   0  0  0  0  0  0  0  0  0  0  0  0
  1  2  1  0
  2  3  2  0
  2  7  1  0
  3  4  1  0
  4  5  2  0
  5  6  1  0
  5 13  1  0
  6  7  2  0
  6  9  1  0
  7  8  1  0
  9 10  2  0
  9 11  1  0
 10 14  1  0
 14 15  1  0
 15 16  2  0
 15 20  1  0
 16 17  1  0
 17 18  2  0
 18 21  1  0
 18 19  1  0
 21 22  1  0
 21 23  2  0
 21 24  2  0
 19 20  2  0
 11 12  2  0
 11 13  1  0
M  END
>  <minimizedAffinity>  (82) 
-9.04985

$$$$
data/200k_reference_output/data/smiles/7202.pdb
     RDKit          3D

 25 26  0  0  0  0  0  0  0  0999 V2000
   70.2608   42.8910   57.7478 N   0  0  0  0  0  0  0  0  0  0  0  0
   70.3881   44.3636   57.9373 C   0  0  0  0  0  0  0  0  0  0  0  0
   71.1737   44.6335   58.7547 O   0  0  0  0  0  0  0  0  0  0  0  0
   69.4804   44.8570   57.0034 N   0  0  0  0  0  0  0  0  0  0  0  0
   69.8106   46.5919   57.2514 C   0  0  0  0  0  0  0  0  0  0  0  0
   70.7544   46.7783   57.9006 O   0  0  0  0  0  0  0  0  0  0  0  0
   71.0985   37.4057   58.7290 C   0  0  0  0  0  0  0  0  0  0  0  0
   71.0367   38.9115   58.5684 C   0  0  0  0  0  0  0  0  0  0  0  0
   71.9994   39.7580   58.6547 C   0  0  0  0  0  0  0  0  0  0  0  0
   71.8332   41.1400   58.4557 C   0  0  0  0  0  0  0  0  0  0  0  0
   70.6630   41.6751   58.1577 C   0  0  0  0  0  0  0  0  0  0  0  0
   69.4964   40.6925   58.0576 C   0  0  0  0  0  0  0  0  0  0  0  0
   68.2180   41.3215   57.7804 C   0  0  0  0  0  0  0  0  0  0  0  0
   69.7326   39.3921   58.2568 C   0  0  0  0  0  0  0  0  0  0  0  0
   68.8567   47.4377   56.5823 C   0  0  0  0  0  0  0  0  0  0  0  0
   69.1115   48.0311   55.3522 O   0  0  0  0  0  0  0  0  0  0  0  0
   68.8126   47.4093   54.1205 C   0  0  0  0  0  0  0  0  0  0  0  0
   67.9404   46.3265   54.1562 C   0  0  0  0  0  0  0  0  0  0  0  0
   67.6275   45.6875   52.8913 C   0  0  0  0  0  0  0  0  0  0  0  0
   68.2429   46.2546   51.8702 C   0  0  0  0  0  0  0  0  0  0  0  0
   69.1076   47.3059   51.6820 C   0  0  0  0  0  0  0  0  0  0  0  0
   69.3854   47.9062   52.9794 C   0  0  0  0  0  0  0  0  0  0  0  0
   70.1550   49.1245   53.0462 C   0  0  0  0  0  0  0  0  0  0  0  0
   69.3976   50.3604   53.1736 N   0  0  0  0  0  0  0  0  0  0  0  0
   71.3525   49.1126   52.9877 O   0  0  0  0  0  0  0  0  0  0  0  0
  7  8  1  0
  8  9  2  0
  8 14  1  0
  9 10  1  0
 10 11  2  0
 11  1  1  0
 11 12  1  0
  1  2  1  0
  2  3  2  0
  2  4  1  0
  4  5  1  0
  5  6  2  0
  5 15  1  0
 15 16  1  0
 16 17  1  0
 17 18  2  0
 17 22  1  0
 18 19  1  0
 19 20  2  0
 20 21  1  0
 21 22  2  0
 22 23  1  0
 23 24  1  0
 23 25  2  0
 12 13  1  0
 12 14  2  0
M  END
>  <minimizedAffinity>  (83) 
-8.50852

$$$$
data/200k_reference_output/data/smiles/7422.pdb
     RDKit          3D

 30 33  0  0  0  0  0  0  0  0999 V2000
   68.2522   43.5932   56.0098 C   0  0  0  0  0  0  0  0  0  0  0  0
   67.1977   42.7464   55.6522 C   0  0  0  0  0  0  0  0  0  0  0  0
   67.1106   41.4841   56.0989 N   0  0  0  0  0  0  0  0  0  0  0  0
   68.0210   40.9363   56.9186 C   0  0  0  0  0  0  0  0  0  0  0  0
   67.9306   39.6324   57.3802 C   0  0  0  0  0  0  0  0  0  0  0  0
   68.8985   39.1045   58.2306 C   0  0  0  0  0  0  0  0  0  0  0  0
   69.9730   39.8707   58.6331 C   0  0  0  0  0  0  0  0  0  0  0  0
   70.0469   41.1810   58.1595 C   0  0  0  0  0  0  0  0  0  0  0  0
   69.0880   41.7041   57.3171 C   0  0  0  0  0  0  0  0  0  0  0  0
   69.1770   43.0237   56.8488 C   0  0  0  0  0  0  0  0  0  0  0  0
   70.1561   43.6860   57.2308 O   0  0  0  0  0  0  0  0  0  0  0  0
   68.2362   45.3872   54.1808 N   0  0  0  0  0  0  0  0  0  0  0  0
   68.2949   44.9539   55.4959 C   0  0  0  0  0  0  0  0  0  0  0  0
   68.3999   45.8644   56.3759 O   0  0  0  0  0  0  0  0  0  0  0  0
   68.2526   46.7221   53.6367 C   0  0  2  0  0  0  0  0  0  0  0  0
   68.5758   46.7202   52.1785 C   0  0  0  0  0  0  0  0  0  0  0  0
   69.3051   49.0274   53.6482 C   0  0  0  0  0  0  0  0  0  0  0  0
   69.2270   47.6769   54.3042 C   0  0  0  0  0  0  0  0  0  0  0  0
   71.2185   39.2385   59.7078 S   0  0  0  0  0  0  0  0  0  0  0  0
   72.5420   39.7564   59.2722 O   0  0  0  0  0  0  0  0  0  0  0  0
   70.8688   39.7074   61.0907 O   0  0  0  0  0  0  0  0  0  0  0  0
   71.1454   37.5269   59.6410 N   0  0  0  0  0  0  0  0  0  0  0  0
   70.4262   36.6911   60.5825 C   0  0  0  0  0  0  0  0  0  0  0  0
   71.0294   35.3212   60.4603 C   0  0  0  0  0  0  0  0  0  0  0  0
   71.6965   35.3483   59.1501 C   0  0  0  0  0  0  0  0  0  0  0  0
   72.2161   34.3036   58.4132 C   0  0  0  0  0  0  0  0  0  0  0  0
   72.8088   34.5419   57.1922 C   0  0  0  0  0  0  0  0  0  0  0  0
   72.8620   35.8432   56.7403 C   0  0  0  0  0  0  0  0  0  0  0  0
   72.3432   36.8785   57.4749 C   0  0  0  0  0  0  0  0  0  0  0  0
   71.7480   36.6579   58.6956 C   0  0  0  0  0  0  0  0  0  0  0  0
 17 18  1  0
 18 15  1  0
 15 16  1  6
 15 12  1  0
 12 13  1  0
 13 14  2  0
 13  1  1  0
  1  2  2  0
  1 10  1  0
  2  3  1  0
  3  4  1  0
  4  5  1  0
  4  9  2  0
  5  6  2  0
  6  7  1  0
  7 19  1  0
  7  8  2  0
 19 20  2  0
 19 21  2  0
 19 22  1  0
 22 23  1  0
 22 30  1  0
 23 24  1  0
 24 25  1  0
 25 26  1  0
 25 30  2  0
 26 27  2  0
 27 28  1  0
 28 29  2  0
 29 30  1  0
  8  9  1  0
  9 10  1  0
 10 11  2  0
M  END
>  <minimizedAffinity>  (84) 
-8.89862

$$$$
data/200k_reference_output/data/smiles/7558.pdb
     RDKit          3D

 27 29  0  0  0  0  0  0  0  0999 V2000
   69.7092   46.7359   57.3592 C   0  0  0  0  0  0  0  0  0  0  0  0
   69.6888   45.3267   57.2084 N   0  0  0  0  0  0  0  0  0  0  0  0
   70.3111   44.3410   58.0017 C   0  0  0  0  0  0  0  0  0  0  0  0
   71.0076   44.6680   58.9697 O   0  0  0  0  0  0  0  0  0  0  0  0
   70.1313   42.9282   57.6760 C   0  0  0  0  0  0  0  0  0  0  0  0
   69.3182   42.1387   58.7074 C   0  0  0  0  0  0  0  0  0  0  0  0
   68.7577   41.4184   57.5924 N   0  0  0  0  0  0  0  0  0  0  0  0
   68.2734   40.1192   57.3688 C   0  0  0  0  0  0  0  0  0  0  0  0
   67.8415   39.8108   56.2356 O   0  0  0  0  0  0  0  0  0  0  0  0
   68.9139   42.6155   56.8115 C   0  0  0  0  0  0  0  0  0  0  0  0
   68.2513   39.0741   58.4427 C   0  0  0  0  0  0  0  0  0  0  0  0
   67.2786   38.1388   58.1843 F   0  0  0  0  0  0  0  0  0  0  0  0
   67.9878   39.6237   59.6784 F   0  0  0  0  0  0  0  0  0  0  0  0
   69.4783   38.4133   58.5011 F   0  0  0  0  0  0  0  0  0  0  0  0
   68.8182   47.4970   56.4801 C   0  0  0  0  0  0  0  0  0  0  0  0
   70.1716   49.7267   53.0889 C   0  0  0  0  0  0  0  0  0  0  0  0
   69.9761   49.2385   51.8154 C   0  0  0  0  0  0  0  0  0  0  0  0
   69.3378   48.0331   51.6194 C   0  0  0  0  0  0  0  0  0  0  0  0
   68.8810   47.2905   52.7169 C   0  0  0  0  0  0  0  0  0  0  0  0
   68.2530   46.0704   52.5034 C   0  0  0  0  0  0  0  0  0  0  0  0
   67.8146   45.3323   53.5765 C   0  0  0  0  0  0  0  0  0  0  0  0
   68.0058   45.8147   54.8438 C   0  0  0  0  0  0  0  0  0  0  0  0
   68.6317   47.0391   55.1184 C   0  0  0  0  0  0  0  0  0  0  0  0
   69.0624   47.7549   54.0001 C   0  0  0  0  0  0  0  0  0  0  0  0
   69.7064   48.9646   54.1459 C   0  0  0  0  0  0  0  0  0  0  0  0
   70.3300   51.7306   54.4079 C   0  0  0  0  0  0  0  0  0  0  0  0
   70.8166   50.9479   53.3341 O   0  0  0  0  0  0  0  0  0  0  0  0
 26 27  1  0
 27 16  1  0
 16 17  2  0
 16 25  1  0
 17 18  1  0
 18 19  2  0
 19 20  1  0
 19 24  1  0
 20 21  2  0
 21 22  1  0
 22 23  2  0
 23 15  1  0
 23 24  1  0
 15  1  1  0
  1  2  1  0
  2  3  1  0
  3  4  2  0
  3  5  1  0
  5  6  1  0
  5 10  1  0
  6  7  1  0
  7  8  1  0
  7 10  1  0
  8  9  2  0
  8 11  1  0
 11 12  1  0
 11 13  1  0
 11 14  1  0
 24 25  2  0
M  END
>  <minimizedAffinity>  (85) 
-8.72381

$$$$
data/200k_reference_output/data/smiles/7645.pdb
     RDKit          3D

 25 28  0  0  0  0  0  0  0  0999 V2000
   71.0475   45.9521   58.2495 C   0  0  0  0  0  0  0  0  0  0  0  0
   71.8607   46.8650   58.8699 C   0  0  0  0  0  0  0  0  0  0  0  0
   71.7194   48.2498   58.6863 C   0  0  0  0  0  0  0  0  0  0  0  0
   70.7194   48.6943   57.8464 C   0  0  0  0  0  0  0  0  0  0  0  0
   69.8789   47.8146   57.2011 C   0  0  0  0  0  0  0  0  0  0  0  0
   70.0690   46.4713   57.4232 C   0  0  0  0  0  0  0  0  0  0  0  0
   69.2827   43.9702   59.8228 O   0  0  0  0  0  0  0  0  0  0  0  0
   70.2798   43.6786   59.0979 C   0  0  0  0  0  0  0  0  0  0  0  0
   70.6774   42.2782   58.8040 C   0  0  0  0  0  0  0  0  0  0  0  0
   71.6568   42.4138   57.6725 C   0  0  0  0  0  0  0  0  0  0  0  0
   72.2969   43.7435   58.0027 C   0  0  0  0  0  0  0  0  0  0  0  0
   73.4684   44.1106   57.9390 O   0  0  0  0  0  0  0  0  0  0  0  0
   71.1951   44.5557   58.4385 N   0  0  0  0  0  0  0  0  0  0  0  0
   68.8522   48.3765   56.2967 C   0  0  0  0  0  0  0  0  0  0  0  0
   69.2680   48.4810   54.8934 C   0  0  0  0  0  0  0  0  0  0  0  0
   70.1308   49.4422   54.5262 N   0  0  0  0  0  0  0  0  0  0  0  0
   70.5836   49.5771   53.2890 N   0  0  0  0  0  0  0  0  0  0  0  0
   70.1553   48.7063   52.3568 C   0  0  0  0  0  0  0  0  0  0  0  0
   70.5592   48.7890   51.1524 O   0  0  0  0  0  0  0  0  0  0  0  0
   69.2649   47.6902   52.6668 C   0  0  0  0  0  0  0  0  0  0  0  0
   68.8287   46.8096   51.6823 C   0  0  0  0  0  0  0  0  0  0  0  0
   67.9350   45.8067   51.9817 C   0  0  0  0  0  0  0  0  0  0  0  0
   67.4827   45.6950   53.2756 C   0  0  0  0  0  0  0  0  0  0  0  0
   67.9087   46.5618   54.2610 C   0  0  0  0  0  0  0  0  0  0  0  0
   68.8154   47.5809   53.9639 C   0  0  0  0  0  0  0  0  0  0  0  0
  7  8  2  0
  8  9  1  0
  8 13  1  0
  9 10  1  0
 10 11  1  0
 11 12  2  0
 11 13  1  0
 13  1  1  0
  1  2  2  0
  1  6  1  0
  2  3  1  0
  3  4  2  0
  4  5  1  0
  5 14  1  0
  5  6  2  0
 14 15  1  0
 15 16  2  0
 15 25  1  0
 16 17  1  0
 17 18  1  0
 18 19  2  0
 18 20  1  0
 20 21  1  0
 20 25  2  0
 21 22  2  0
 22 23  1  0
 23 24  2  0
 24 25  1  0
M  END
>  <minimizedAffinity>  (86) 
-9.06820

$$$$
data/200k_reference_output/data/smiles/7685.pdb
     RDKit          3D

 27 29  0  0  0  0  0  0  0  0999 V2000
   73.5530   52.9420   55.2961 O   0  0  0  0  0  0  0  0  0  0  0  0
   72.9065   51.8393   55.1766 C   0  0  0  0  0  0  0  0  0  0  0  0
   73.6468   50.7082   55.5938 N   0  0  0  0  0  0  0  0  0  0  0  0
   74.9558   50.8158   56.0738 N   0  0  0  0  0  0  0  0  0  0  0  0
   76.0449   50.0676   55.5535 C   0  0  0  0  0  0  0  0  0  0  0  0
   75.7434   49.2774   54.6014 O   0  0  0  0  0  0  0  0  0  0  0  0
   77.4278   50.1599   56.0386 C   0  0  2  0  0  0  0  0  0  0  0  0
   78.3676   49.1938   55.3701 C   0  0  0  0  0  0  0  0  0  0  0  0
   79.7397   49.4167   55.9504 C   0  0  0  0  0  0  0  0  0  0  0  0
   79.7709   49.2921   57.4516 C   0  0  0  0  0  0  0  0  0  0  0  0
   78.8205   50.2952   58.0778 C   0  0  0  0  0  0  0  0  0  0  0  0
   77.4418   49.9870   57.5414 C   0  0  2  0  0  0  0  0  0  0  0  0
   76.9553   48.6571   57.9600 C   0  0  0  0  0  0  0  0  0  0  0  0
   77.6824   47.7090   58.3127 O   0  0  0  0  0  0  0  0  0  0  0  0
   75.5822   48.4529   57.9581 O   0  0  0  0  0  0  0  0  0  0  0  0
   71.5256   51.8304   54.6521 C   0  0  0  0  0  0  0  0  0  0  0  0
   71.2887   50.8267   53.7420 O   0  0  0  0  0  0  0  0  0  0  0  0
   70.4856   49.7289   53.8290 C   0  0  0  0  0  0  0  0  0  0  0  0
   70.0342   49.3305   55.0719 C   0  0  0  0  0  0  0  0  0  0  0  0
   69.2090   48.2126   55.1951 C   0  0  0  0  0  0  0  0  0  0  0  0
   68.8360   47.4943   54.0651 C   0  0  0  0  0  0  0  0  0  0  0  0
   68.0166   46.3842   54.1830 C   0  0  0  0  0  0  0  0  0  0  0  0
   67.6406   45.6617   53.0512 C   0  0  0  0  0  0  0  0  0  0  0  0
   68.0857   46.0501   51.8024 C   0  0  0  0  0  0  0  0  0  0  0  0
   68.9013   47.1587   51.7058 C   0  0  0  0  0  0  0  0  0  0  0  0
   69.2811   47.8843   52.8170 C   0  0  0  0  0  0  0  0  0  0  0  0
   70.0975   48.9977   52.7480 C   0  0  0  0  0  0  0  0  0  0  0  0
  1  2  2  0
  2 16  1  0
  2  3  1  0
 16 17  1  0
 17 18  1  0
 18 19  2  0
 18 27  1  0
 19 20  1  0
 20 21  2  0
 21 22  1  0
 21 26  1  0
 22 23  2  0
 23 24  1  0
 24 25  2  0
 25 26  1  0
 26 27  2  0
  3  4  1  0
  4  5  1  0
  5  6  2  0
  7  5  1  6
  7  8  1  0
  7 12  1  0
  8  9  1  0
  9 10  1  0
 10 11  1  0
 11 12  1  0
 12 13  1  6
 13 14  2  0
 13 15  1  0
M  END
>  <minimizedAffinity>  (87) 
-8.58118

$$$$
data/200k_reference_output/data/smiles/7832.pdb
     RDKit          3D

 30 33  0  0  0  0  0  0  0  0999 V2000
   65.4126   39.8165   60.7735 C   0  0  0  0  0  0  0  0  0  0  0  0
   66.3072   40.2646   59.9103 C   0  0  0  0  0  0  0  0  0  0  0  0
   67.0269   39.3843   59.1889 N   0  0  0  0  0  0  0  0  0  0  0  0
   67.9300   39.8770   58.3185 C   0  0  0  0  0  0  0  0  0  0  0  0
   68.6290   39.0724   57.6194 O   0  0  0  0  0  0  0  0  0  0  0  0
   68.1563   41.2093   58.1260 C   0  0  0  0  0  0  0  0  0  0  0  0
   69.0495   41.6925   57.2634 C   0  0  0  0  0  0  0  0  0  0  0  0
   67.4377   42.0931   58.8455 N   0  0  0  0  0  0  0  0  0  0  0  0
   66.5270   41.6318   59.7244 C   0  0  0  0  0  0  0  0  0  0  0  0
   65.8338   42.4294   60.4177 O   0  0  0  0  0  0  0  0  0  0  0  0
   66.3633   38.1491   63.2109 C   0  0  0  0  0  0  0  0  0  0  0  0
   65.5850   37.6343   62.0616 C   0  0  0  0  0  0  0  0  0  0  0  0
   65.1343   36.3923   61.8221 N   0  0  0  0  0  0  0  0  0  0  0  0
   64.4687   36.3528   60.6566 C   0  0  0  0  0  0  0  0  0  0  0  0
   64.4865   37.5893   60.1330 N   0  0  0  0  0  0  0  0  0  0  0  0
   65.1660   38.3815   60.9829 C   0  0  0  0  0  0  0  0  0  0  0  0
   69.2506   43.1420   57.0983 C   0  0  0  0  0  0  0  0  0  0  0  0
   70.1966   43.8048   57.8567 C   0  0  0  0  0  0  0  0  0  0  0  0
   70.3622   45.1549   57.6809 C   0  0  0  0  0  0  0  0  0  0  0  0
   69.6151   45.8792   56.7720 C   0  0  0  0  0  0  0  0  0  0  0  0
   68.6737   45.2121   56.0187 C   0  0  0  0  0  0  0  0  0  0  0  0
   68.5080   43.8611   56.1946 C   0  0  0  0  0  0  0  0  0  0  0  0
   67.9162   45.9419   55.0978 O   0  0  0  0  0  0  0  0  0  0  0  0
   68.5088   46.6491   54.0609 C   0  0  0  0  0  0  0  0  0  0  0  0
   69.0804   47.8669   54.3655 C   0  0  0  0  0  0  0  0  0  0  0  0
   69.6882   48.6338   53.4049 C   0  0  0  0  0  0  0  0  0  0  0  0
   69.7353   48.1890   52.1022 C   0  0  0  0  0  0  0  0  0  0  0  0
   70.3348   48.9303   51.1162 F   0  0  0  0  0  0  0  0  0  0  0  0
   69.1599   46.9708   51.8121 C   0  0  0  0  0  0  0  0  0  0  0  0
   68.5521   46.2039   52.7726 C   0  0  0  0  0  0  0  0  0  0  0  0
 11 12  1  0
 12 13  1  0
 12 16  2  0
 13 14  1  0
 14 15  2  0
 15 16  1  0
 16  1  1  0
  1  2  2  0
  2  3  1  0
  2  9  1  0
  3  4  1  0
  4  5  2  0
  4  6  1  0
  6  7  2  0
  6  8  1  0
  7 17  1  0
 17 18  2  0
 17 22  1  0
 18 19  1  0
 19 20  2  0
 20 21  1  0
 21 23  1  0
 21 22  2  0
 23 24  1  0
 24 25  2  0
 24 30  1  0
 25 26  1  0
 26 27  2  0
 27 28  1  0
 27 29  1  0
 29 30  2  0
  8  9  1  0
  9 10  2  0
M  CHG  1  15   1
M  END
>  <minimizedAffinity>  (88) 
-9.42166

$$$$
data/200k_reference_output/data/smiles/8015.pdb
     RDKit          3D

 28 31  0  0  0  0  0  0  0  0999 V2000
   68.4351   48.9638   57.1243 C   0  0  0  0  0  0  0  0  0  0  0  0
   67.1340   49.0736   57.6155 C   0  0  0  0  0  0  0  0  0  0  0  0
   66.5598   50.2632   57.7609 C   0  0  0  0  0  0  0  0  0  0  0  0
   67.1754   51.4797   57.4550 C   0  0  0  0  0  0  0  0  0  0  0  0
   68.4873   51.3989   56.9636 C   0  0  0  0  0  0  0  0  0  0  0  0
   69.0731   50.1691   56.8132 C   0  0  0  0  0  0  0  0  0  0  0  0
   70.4320   50.4139   56.2656 C   0  0  0  0  0  0  0  0  0  0  0  0
   70.6873   51.7918   56.3153 N   0  0  0  0  0  0  0  0  0  0  0  0
   69.4490   52.4727   56.6702 C   0  0  0  0  0  0  0  0  0  0  0  0
   69.3010   53.6901   56.7035 O   0  0  0  0  0  0  0  0  0  0  0  0
   71.9797   52.4412   56.0682 C   0  0  2  0  0  0  0  0  0  0  0  0
   72.1509   52.6401   54.5673 C   0  0  0  0  0  0  0  0  0  0  0  0
   73.5689   52.4038   54.1922 C   0  0  0  0  0  0  0  0  0  0  0  0
   73.8200   50.8593   54.4264 C   0  0  0  0  0  0  0  0  0  0  0  0
   74.1199   50.1639   53.5880 O   0  0  0  0  0  0  0  0  0  0  0  0
   73.6085   50.6098   55.8478 N   0  0  0  0  0  0  0  0  0  0  0  0
   73.1210   51.7039   56.6467 C   0  0  0  0  0  0  0  0  0  0  0  0
   73.6227   51.9785   57.6984 O   0  0  0  0  0  0  0  0  0  0  0  0
   69.2802   47.4560   57.1664 S   0  0  0  0  0  0  0  0  0  0  0  0
   68.9113   46.1168   56.1454 C   0  0  0  0  0  0  0  0  0  0  0  0
   68.9263   47.4179   52.5951 C   0  0  0  0  0  0  0  0  0  0  0  0
   68.1832   46.5996   51.9562 C   0  0  0  0  0  0  0  0  0  0  0  0
   67.6276   45.4664   52.7063 C   0  0  0  0  0  0  0  0  0  0  0  0
   67.9053   45.3212   54.0140 C   0  0  0  0  0  0  0  0  0  0  0  0
   68.7612   46.3018   54.6949 C   0  0  0  0  0  0  0  0  0  0  0  0
   69.2332   47.3139   53.9327 C   0  0  0  0  0  0  0  0  0  0  0  0
   70.1179   49.4835   51.2551 N   0  0  0  0  0  0  0  0  0  0  0  0
   69.5853   48.5405   51.8714 C   0  0  0  0  0  0  0  0  0  0  0  0
 27 28  3  0
 28 21  1  0
 21 22  2  0
 21 26  1  0
 22 23  1  0
 23 24  2  0
 24 25  1  0
 25 20  1  0
 25 26  2  0
 20 19  1  0
 19  1  1  0
  1  2  2  0
  1  6  1  0
  2  3  1  0
  3  4  2  0
  4  5  1  0
  5  6  2  0
  5  9  1  0
  6  7  1  0
  7  8  1  0
 11  8  1  6
  8  9  1  0
 11 12  1  0
 11 17  1  0
 12 13  1  0
 13 14  1  0
 14 15  2  0
 14 16  1  0
 16 17  1  0
 17 18  2  0
  9 10  2  0
M  END
>  <minimizedAffinity>  (89) 
-8.81396

$$$$
data/200k_reference_output/data/smiles/8150.pdb
     RDKit          3D

 31 34  0  0  0  0  0  0  0  0999 V2000
   69.9982   49.9181   58.0684 C   0  0  0  0  0  0  0  0  0  0  0  0
   70.7988   49.0204   57.1502 C   0  0  2  0  0  0  0  0  0  0  0  0
   69.9759   48.3879   56.0598 C   0  0  0  0  0  0  0  0  0  0  0  0
   69.4041   47.1148   56.4342 N   0  0  0  0  0  0  0  0  0  0  0  0
   68.7639   46.2227   55.5877 C   0  0  0  0  0  0  0  0  0  0  0  0
   68.2908   45.1477   56.0301 O   0  0  0  0  0  0  0  0  0  0  0  0
   69.5449   46.7774   57.8570 C   0  0  0  0  0  0  0  0  0  0  0  0
   71.0362   46.7830   58.1488 C   0  0  0  0  0  0  0  0  0  0  0  0
   71.6212   48.0824   57.8884 N   0  0  0  0  0  0  0  0  0  0  0  0
   72.9440   48.4150   58.3298 C   0  0  0  0  0  0  0  0  0  0  0  0
   73.2999   49.5888   58.0657 O   0  0  0  0  0  0  0  0  0  0  0  0
   68.5802   46.4410   54.1372 C   0  0  0  0  0  0  0  0  0  0  0  0
   69.2243   47.4590   53.4826 C   0  0  0  0  0  0  0  0  0  0  0  0
   69.0310   47.6120   52.1384 C   0  0  0  0  0  0  0  0  0  0  0  0
   68.2022   46.7703   51.4100 C   0  0  0  0  0  0  0  0  0  0  0  0
   67.5598   45.7477   52.0872 C   0  0  0  0  0  0  0  0  0  0  0  0
   67.7502   45.5891   53.4384 C   0  0  0  0  0  0  0  0  0  0  0  0
   73.7905   47.4918   59.0144 C   0  0  0  0  0  0  0  0  0  0  0  0
   74.1631   46.4492   58.3709 O   0  0  0  0  0  0  0  0  0  0  0  0
   74.2994   47.5811   60.3769 C   0  0  0  0  0  0  0  0  0  0  0  0
   75.6423   47.6883   60.6591 C   0  0  0  0  0  0  0  0  0  0  0  0
   76.0831   47.7814   61.9634 C   0  0  0  0  0  0  0  0  0  0  0  0
   75.2474   47.7760   63.0512 C   0  0  0  0  0  0  0  0  0  0  0  0
   73.8975   47.6678   62.7435 C   0  0  0  0  0  0  0  0  0  0  0  0
   73.4427   47.5741   61.4578 C   0  0  0  0  0  0  0  0  0  0  0  0
   72.0560   47.4657   61.2167 O   0  0  0  0  0  0  0  0  0  0  0  0
   75.7130   47.8661   64.4283 C   0  0  0  0  0  0  0  0  0  0  0  0
   76.9049   48.4526   64.8290 C   0  0  0  0  0  0  0  0  0  0  0  0
   76.9810   48.3571   66.1929 C   0  0  0  0  0  0  0  0  0  0  0  0
   75.8804   47.7341   66.6367 N   0  0  0  0  0  0  0  0  0  0  0  0
   75.1436   47.4534   65.5602 N   0  0  0  0  0  0  0  0  0  0  0  0
  2  1  1  1
  2  3  1  0
  2  9  1  0
  3  4  1  0
  4  5  1  0
  4  7  1  0
  5  6  2  0
  5 12  1  0
 12 13  2  0
 12 17  1  0
 13 14  1  0
 14 15  2  0
 15 16  1  0
 16 17  2  0
  7  8  1  0
  8  9  1  0
  9 10  1  0
 10 11  2  0
 10 18  1  0
 18 19  2  0
 18 20  1  0
 20 21  2  0
 20 25  1  0
 21 22  1  0
 22 23  2  0
 23 27  1  0
 23 24  1  0
 27 28  1  0
 27 31  2  0
 28 29  2  0
 29 30  1  0
 30 31  1  0
 24 25  2  0
 25 26  1  0
M  END
>  <minimizedAffinity>  (90) 
-9.00632

$$$$
data/200k_reference_output/data/smiles/8164.pdb
     RDKit          3D

 26 29  0  0  0  0  0  0  0  0999 V2000
   69.6385   48.8561   52.8386 C   0  0  0  0  0  0  0  0  0  0  0  0
   69.3069   48.7479   51.5381 N   0  0  0  0  0  0  0  0  0  0  0  0
   68.6616   47.6118   51.3097 N   0  0  0  0  0  0  0  0  0  0  0  0
   68.5378   46.9166   52.4584 C   0  0  0  0  0  0  0  0  0  0  0  0
   67.9632   45.7020   52.7652 C   0  0  0  0  0  0  0  0  0  0  0  0
   67.9909   45.2393   54.0549 C   0  0  0  0  0  0  0  0  0  0  0  0
   68.6075   46.0120   55.0472 C   0  0  0  0  0  0  0  0  0  0  0  0
   69.1776   47.2223   54.7272 C   0  0  0  0  0  0  0  0  0  0  0  0
   69.1474   47.6860   53.4269 C   0  0  0  0  0  0  0  0  0  0  0  0
   70.3360   51.3936   52.7932 O   0  0  0  0  0  0  0  0  0  0  0  0
   70.4927   50.1592   53.6351 S   0  0  0  0  0  0  0  0  0  0  0  0
   71.9640   49.8193   53.6404 O   0  0  0  0  0  0  0  0  0  0  0  0
   69.9078   50.3848   55.2568 C   0  0  0  0  0  0  0  0  0  0  0  0
   70.7081   50.1005   56.3369 C   0  0  0  0  0  0  0  0  0  0  0  0
   70.2512   50.2777   57.6484 C   0  0  0  0  0  0  0  0  0  0  0  0
   68.9796   50.7446   57.8863 C   0  0  0  0  0  0  0  0  0  0  0  0
   68.1785   51.0297   56.8109 C   0  0  0  0  0  0  0  0  0  0  0  0
   66.9339   51.4867   57.0184 F   0  0  0  0  0  0  0  0  0  0  0  0
   68.6358   50.8528   55.5241 C   0  0  0  0  0  0  0  0  0  0  0  0
   68.6281   45.5201   56.3575 N   0  0  0  0  0  0  0  0  0  0  0  0
   69.7684   45.1416   57.1118 C   0  0  0  0  0  0  0  0  0  0  0  0
   69.7762   43.7341   57.6278 C   0  0  0  0  0  0  0  0  0  0  0  0
   70.4136   43.7259   59.0005 C   0  0  0  0  0  0  0  0  0  0  0  0
   71.6862   44.3978   58.9868 N   0  0  0  0  0  0  0  0  0  0  0  0
   71.6535   45.7438   58.5103 C   0  0  0  0  0  0  0  0  0  0  0  0
   70.1932   46.0959   58.1845 C   0  0  0  0  0  0  0  0  0  0  0  0
 10 11  2  0
 11 12  2  0
 11 13  1  0
 11  1  1  0
 13 14  2  0
 13 19  1  0
 14 15  1  0
 15 16  2  0
 16 17  1  0
 17 18  1  0
 17 19  2  0
  1  2  2  0
  1  9  1  0
  2  3  1  0
  3  4  1  0
  4  5  1  0
  4  9  2  0
  5  6  2  0
  6  7  1  0
  7 20  1  0
  7  8  2  0
 20 21  1  0
 21 22  1  0
 21 26  1  0
 22 23  1  0
 23 24  1  0
 24 25  1  0
 25 26  1  0
  8  9  1  0
M  CHG  1  24   1
M  END
>  <minimizedAffinity>  (91) 
-8.77501

$$$$
data/200k_reference_output/data/smiles/8168.pdb
     RDKit          3D

 26 28  0  0  0  0  0  0  0  0999 V2000
   68.2592   44.9859   55.8734 N   0  0  0  0  0  0  0  0  0  0  0  0
   68.6906   46.3244   55.8818 C   0  0  0  0  0  0  0  0  0  0  0  0
   69.7541   46.5819   56.5196 O   0  0  0  0  0  0  0  0  0  0  0  0
   68.3233   42.7835   56.6436 C   0  0  0  0  0  0  0  0  0  0  0  0
   68.9114   43.9264   56.5139 N   0  0  0  0  0  0  0  0  0  0  0  0
   70.1783   39.4329   58.5800 C   0  0  0  0  0  0  0  0  0  0  0  0
   70.8141   40.6528   58.4943 C   0  0  0  0  0  0  0  0  0  0  0  0
   70.2178   41.7354   57.8702 C   0  0  0  0  0  0  0  0  0  0  0  0
   68.9662   41.6517   57.3040 C   0  0  0  0  0  0  0  0  0  0  0  0
   68.3306   40.4312   57.3906 C   0  0  0  0  0  0  0  0  0  0  0  0
   68.9233   39.3513   58.0122 C   0  0  0  0  0  0  0  0  0  0  0  0
   71.4214   37.3184   58.4602 C   0  0  0  0  0  0  0  0  0  0  0  0
   70.7691   38.3357   59.2067 O   0  0  0  0  0  0  0  0  0  0  0  0
   68.0212   47.4447   55.2199 C   0  0  0  0  0  0  0  0  0  0  0  0
   68.7856   48.0767   54.1497 C   0  0  0  0  0  0  0  0  0  0  0  0
   69.1678   47.4105   52.9884 C   0  0  0  0  0  0  0  0  0  0  0  0
   69.8939   48.0805   52.0308 C   0  0  0  0  0  0  0  0  0  0  0  0
   70.2603   47.4967   50.9523 O   0  0  0  0  0  0  0  0  0  0  0  0
   70.2189   49.3370   52.2193 O   0  0  0  0  0  0  0  0  0  0  0  0
   69.8869   50.0206   53.2943 C   0  0  0  0  0  0  0  0  0  0  0  0
   70.2410   51.3412   53.4685 C   0  0  0  0  0  0  0  0  0  0  0  0
   69.8843   52.0477   54.6051 C   0  0  0  0  0  0  0  0  0  0  0  0
   69.1577   51.4497   55.6094 C   0  0  0  0  0  0  0  0  0  0  0  0
   68.7623   52.1862   56.8413 C   0  0  0  0  0  0  0  0  0  0  0  0
   68.8099   50.1199   55.4180 C   0  0  0  0  0  0  0  0  0  0  0  0
   69.1561   49.4018   54.2937 C   0  0  0  0  0  0  0  0  0  0  0  0
 12 13  1  0
 13  6  1  0
  6  7  2  0
  6 11  1  0
  7  8  1  0
  8  9  2  0
  9  4  1  0
  9 10  1  0
  4  5  2  0
  5  1  1  0
  1  2  1  0
  2  3  2  0
  2 14  1  0
 14 15  1  0
 15 16  2  0
 15 26  1  0
 16 17  1  0
 17 18  2  0
 17 19  1  0
 19 20  1  0
 20 21  1  0
 20 26  2  0
 21 22  2  0
 22 23  1  0
 23 24  1  0
 23 25  2  0
 25 26  1  0
 10 11  2  0
M  END
>  <minimizedAffinity>  (92) 
-8.80768

$$$$
data/200k_reference_output/data/smiles/8254.pdb
     RDKit          3D

 27 30  0  0  0  0  0  0  0  0999 V2000
   73.8281   49.6276   56.8887 C   0  0  0  0  0  0  0  0  0  0  0  0
   73.1012   48.8279   57.7349 C   0  0  0  0  0  0  0  0  0  0  0  0
   71.7074   48.6894   57.6258 C   0  0  0  0  0  0  0  0  0  0  0  0
   71.0076   49.3529   56.6605 C   0  0  0  0  0  0  0  0  0  0  0  0
   71.7901   50.1626   55.8134 C   0  0  0  0  0  0  0  0  0  0  0  0
   73.1160   50.2720   55.9438 N   0  0  0  0  0  0  0  0  0  0  0  0
   75.5119   49.4882   54.7302 O   0  0  0  0  0  0  0  0  0  0  0  0
   76.1016   49.7428   55.8387 C   0  0  0  0  0  0  0  0  0  0  0  0
   75.2369   49.8149   56.9543 N   0  0  0  0  0  0  0  0  0  0  0  0
   77.5344   49.9257   55.8598 C   0  0  0  0  0  0  0  0  0  0  0  0
   78.4011   48.9852   55.3549 C   0  0  0  0  0  0  0  0  0  0  0  0
   79.7677   49.1306   55.3589 C   0  0  0  0  0  0  0  0  0  0  0  0
   80.2726   50.2529   55.8851 N   0  0  0  0  0  0  0  0  0  0  0  0
   79.4810   51.2166   56.3975 C   0  0  0  0  0  0  0  0  0  0  0  0
   78.0829   51.0653   56.3925 C   0  0  0  0  0  0  0  0  0  0  0  0
   69.5476   49.3113   56.4135 C   0  0  0  0  0  0  0  0  0  0  0  0
   69.0459   48.0355   55.8864 C   0  0  0  0  0  0  0  0  0  0  0  0
   68.7787   46.9945   56.7404 N   0  0  0  0  0  0  0  0  0  0  0  0
   68.3952   45.8195   56.3259 N   0  0  0  0  0  0  0  0  0  0  0  0
   68.2331   45.5456   55.0269 C   0  0  0  0  0  0  0  0  0  0  0  0
   67.8603   44.3999   54.6385 O   0  0  0  0  0  0  0  0  0  0  0  0
   68.4892   46.5711   54.1010 C   0  0  0  0  0  0  0  0  0  0  0  0
   68.8972   47.8209   54.5501 C   0  0  0  0  0  0  0  0  0  0  0  0
   69.0809   48.8394   53.5081 C   0  0  0  0  0  0  0  0  0  0  0  0
   69.8770   48.1358   52.3984 C   0  0  0  0  0  0  0  0  0  0  0  0
   69.0185   47.0970   51.7549 C   0  0  0  0  0  0  0  0  0  0  0  0
   68.2837   46.2160   52.6870 C   0  0  0  0  0  0  0  0  0  0  0  0
  7  8  2  0
  8  9  1  0
  8 10  1  0
  9  1  1  0
  1  2  2  0
  1  6  1  0
  2  3  1  0
  3  4  2  0
  4 16  1  0
  4  5  1  0
 16 17  1  0
 17 18  2  0
 17 23  1  0
 18 19  1  0
 19 20  1  0
 20 21  2  0
 20 22  1  0
 22 23  2  0
 22 27  1  0
 23 24  1  0
 24 25  1  0
 25 26  1  0
 26 27  1  0
  5  6  2  0
 10 11  2  0
 10 15  1  0
 11 12  1  0
 12 13  2  0
 13 14  1  0
 14 15  2  0
M  END
>  <minimizedAffinity>  (93) 
-9.50334

$$$$
data/200k_reference_output/data/smiles/8261.pdb
     RDKit          3D

 29 31  0  0  0  0  0  0  0  0999 V2000
   70.4968   41.9952   58.6174 C   0  0  0  0  0  0  0  0  0  0  0  0
   69.3819   41.0349   58.2906 C   0  0  2  0  0  0  0  0  0  0  0  0
   68.3263   41.1158   59.1646 O   0  0  0  0  0  0  0  0  0  0  0  0
   67.5703   39.9731   58.9251 C   0  0  0  0  0  0  0  0  0  0  0  0
   68.5165   38.9264   58.4062 C   0  0  0  0  0  0  0  0  0  0  0  0
   69.7685   39.6507   58.3765 N   0  0  0  0  0  0  0  0  0  0  0  0
   71.0610   39.0804   58.4269 C   0  0  0  0  0  0  0  0  0  0  0  0
   72.0492   39.8538   58.3847 O   0  0  0  0  0  0  0  0  0  0  0  0
   71.3375   37.6570   58.5250 C   0  0  0  0  0  0  0  0  0  0  0  0
   72.1337   37.0453   57.5816 C   0  0  0  0  0  0  0  0  0  0  0  0
   72.4214   35.6778   57.6440 C   0  0  0  0  0  0  0  0  0  0  0  0
   71.9102   34.8982   58.6577 C   0  0  0  0  0  0  0  0  0  0  0  0
   72.2514   33.1746   58.7698 Cl  0  0  0  0  0  0  0  0  0  0  0  0
   71.1066   35.5114   59.6094 C   0  0  0  0  0  0  0  0  0  0  0  0
   70.8284   36.8694   59.5383 C   0  0  0  0  0  0  0  0  0  0  0  0
   70.4723   44.4838   58.6187 C   0  0  0  0  0  0  0  0  0  0  0  0
   70.7168   44.5199   59.8693 O   0  0  0  0  0  0  0  0  0  0  0  0
   70.3551   43.2549   57.9548 N   0  0  0  0  0  0  0  0  0  0  0  0
   71.1425   46.6704   58.1941 O   0  0  0  0  0  0  0  0  0  0  0  0
   70.3244   45.7520   57.9188 C   0  0  0  0  0  0  0  0  0  0  0  0
   69.3152   45.9773   56.9619 N   0  0  0  0  0  0  0  0  0  0  0  0
   69.1466   47.2317   56.2517 C   0  0  0  0  0  0  0  0  0  0  0  0
   68.8361   47.0130   54.8290 C   0  0  0  0  0  0  0  0  0  0  0  0
   68.0823   45.9317   54.4152 C   0  0  0  0  0  0  0  0  0  0  0  0
   67.8227   45.7763   53.0710 C   0  0  0  0  0  0  0  0  0  0  0  0
   68.2732   46.6399   52.0994 C   0  0  0  0  0  0  0  0  0  0  0  0
   67.9860   46.4339   50.7851 F   0  0  0  0  0  0  0  0  0  0  0  0
   69.0242   47.7171   52.5191 C   0  0  0  0  0  0  0  0  0  0  0  0
   69.2983   47.8974   53.8561 C   0  0  0  0  0  0  0  0  0  0  0  0
 19 20  2  0
 20 21  1  0
 20 16  1  0
 21 22  1  0
 22 23  1  0
 23 24  2  0
 23 29  1  0
 24 25  1  0
 25 26  2  0
 26 27  1  0
 26 28  1  0
 28 29  2  0
 16 17  2  0
 16 18  1  0
 18  1  1  0
  2  1  1  1
  2  3  1  0
  2  6  1  0
  3  4  1  0
  4  5  1  0
  5  6  1  0
  6  7  1  0
  7  8  2  0
  7  9  1  0
  9 10  2  0
  9 15  1  0
 10 11  1  0
 11 12  2  0
 12 13  1  0
 12 14  1  0
 14 15  2  0
M  END
>  <minimizedAffinity>  (94) 
-9.31268

$$$$
data/200k_reference_output/data/smiles/8272.pdb
     RDKit          3D

 27 29  0  0  0  0  0  0  0  0999 V2000
   68.7501   43.4209   56.5776 N   0  0  0  0  0  0  0  0  0  0  0  0
   68.1623   42.2581   56.4899 N   0  0  0  0  0  0  0  0  0  0  0  0
   68.6944   41.3737   57.3613 C   0  0  0  0  0  0  0  0  0  0  0  0
   68.2090   39.9702   57.5581 C   0  0  0  0  0  0  0  0  0  0  0  0
   69.6915   41.9839   58.0610 C   0  0  0  0  0  0  0  0  0  0  0  0
   69.6919   43.3005   57.5253 C   0  0  0  0  0  0  0  0  0  0  0  0
   70.6251   44.3650   57.9805 C   0  0  0  0  0  0  0  0  0  0  0  0
   68.8727   48.3169   56.1928 C   0  0  0  0  0  0  0  0  0  0  0  0
   68.5372   46.9825   55.6207 C   0  0  0  0  0  0  0  0  0  0  0  0
   67.9686   46.8933   54.3701 C   0  0  0  0  0  0  0  0  0  0  0  0
   67.6736   45.6345   53.8850 C   0  0  0  0  0  0  0  0  0  0  0  0
   67.1488   45.5544   52.7302 O   0  0  0  0  0  0  0  0  0  0  0  0
   67.9267   44.5340   54.5966 N   0  0  0  0  0  0  0  0  0  0  0  0
   68.4918   44.6101   55.8408 C   0  0  0  0  0  0  0  0  0  0  0  0
   68.7718   45.8420   56.2960 N   0  0  0  0  0  0  0  0  0  0  0  0
   70.6543   41.5164   59.0769 C   0  0  0  0  0  0  0  0  0  0  0  0
   71.9129   40.9210   58.5763 C   0  0  0  0  0  0  0  0  0  0  0  0
   72.2057   39.5294   58.7939 C   0  0  0  0  0  0  0  0  0  0  0  0
   73.0612   39.0867   59.5627 O   0  0  0  0  0  0  0  0  0  0  0  0
   71.4496   38.5285   58.0674 N   0  0  0  0  0  0  0  0  0  0  0  0
   71.6734   37.1555   58.2224 C   0  0  0  0  0  0  0  0  0  0  0  0
   72.5002   36.4880   57.3381 C   0  0  0  0  0  0  0  0  0  0  0  0
   72.7354   35.1255   57.4720 C   0  0  0  0  0  0  0  0  0  0  0  0
   72.1469   34.4054   58.4966 C   0  0  0  0  0  0  0  0  0  0  0  0
   71.3284   35.0981   59.3630 C   0  0  0  0  0  0  0  0  0  0  0  0
   70.7061   34.4587   60.4033 F   0  0  0  0  0  0  0  0  0  0  0  0
   71.0777   36.4464   59.2521 C   0  0  0  0  0  0  0  0  0  0  0  0
  8  9  1  0
  9 10  2  0
  9 15  1  0
 10 11  1  0
 11 12  2  0
 11 13  1  0
 13 14  1  0
 14  1  1  0
 14 15  2  0
  1  2  1  0
  1  6  1  0
  2  3  2  0
  3  4  1  0
  3  5  1  0
  5 16  1  0
  5  6  2  0
 16 17  1  0
 17 18  1  0
 18 19  2  0
 18 20  1  0
 20 21  1  0
 21 22  2  0
 21 27  1  0
 22 23  1  0
 23 24  2  0
 24 25  1  0
 25 26  1  0
 25 27  2  0
  6  7  1  0
M  END
>  <minimizedAffinity>  (95) 
-9.08250

$$$$
data/200k_reference_output/data/smiles/8396.pdb
     RDKit          3D

 24 26  0  0  0  0  0  0  0  0999 V2000
   71.0639   50.8088   54.9177 N   0  0  0  0  0  0  0  0  0  0  0  0
   70.4563   50.6335   53.6671 C   0  0  0  0  0  0  0  0  0  0  0  0
   70.4879   51.6759   52.9061 O   0  0  0  0  0  0  0  0  0  0  0  0
   69.8196   49.4314   53.1697 C   0  0  0  0  0  0  0  0  0  0  0  0
   69.3503   48.4648   54.0777 C   0  0  0  0  0  0  0  0  0  0  0  0
   68.7404   47.3094   53.6513 C   0  0  0  0  0  0  0  0  0  0  0  0
   68.2723   46.3468   54.5203 C   0  0  0  0  0  0  0  0  0  0  0  0
   67.6597   45.1873   54.0909 C   0  0  0  0  0  0  0  0  0  0  0  0
   67.4911   44.9467   52.7433 C   0  0  0  0  0  0  0  0  0  0  0  0
   67.9585   45.9055   51.8704 C   0  0  0  0  0  0  0  0  0  0  0  0
   68.5744   47.0728   52.3052 C   0  0  0  0  0  0  0  0  0  0  0  0
   69.0151   47.9778   51.4762 O   0  0  0  0  0  0  0  0  0  0  0  0
   69.6118   49.1111   51.8617 C   0  0  0  0  0  0  0  0  0  0  0  0
   70.0026   49.9251   50.9639 O   0  0  0  0  0  0  0  0  0  0  0  0
   73.0434   52.1566   55.4478 C   0  0  0  0  0  0  0  0  0  0  0  0
   73.6079   53.3512   55.8530 C   0  0  0  0  0  0  0  0  0  0  0  0
   72.8319   54.4518   56.1544 C   0  0  0  0  0  0  0  0  0  0  0  0
   71.4637   54.3197   56.0364 C   0  0  0  0  0  0  0  0  0  0  0  0
   70.8905   53.1333   55.6332 C   0  0  0  0  0  0  0  0  0  0  0  0
   71.6749   52.0359   55.3340 C   0  0  0  0  0  0  0  0  0  0  0  0
   75.7149   51.1462   55.4122 N   0  0  0  0  0  0  0  0  0  0  0  0
   74.0414   50.7738   55.0729 S   0  0  0  0  0  0  0  0  0  0  0  0
   73.9574   50.3857   53.6302 O   0  0  0  0  0  0  0  0  0  0  0  0
   73.7000   49.6015   55.9815 O   0  0  0  0  0  0  0  0  0  0  0  0
 21 22  1  0
 22 23  2  0
 22 24  2  0
 22 15  1  0
 15 16  2  0
 15 20  1  0
 16 17  1  0
 17 18  2  0
 18 19  1  0
 19 20  2  0
 20  1  1  0
  1  2  1  0
  2  3  2  0
  2  4  1  0
  4  5  2  0
  4 13  1  0
  5  6  1  0
  6  7  2  0
  6 11  1  0
  7  8  1  0
  8  9  2  0
  9 10  1  0
 10 11  2  0
 11 12  1  0
 12 13  1  0
 13 14  2  0
M  END
>  <minimizedAffinity>  (96) 
-8.82348

$$$$
data/200k_reference_output/data/smiles/8415.pdb
     RDKit          3D

 31 35  0  0  0  0  0  0  0  0999 V2000
   70.9530   44.0665   57.7497 C   0  0  0  0  0  0  0  0  0  0  0  0
   72.2908   44.2570   57.9998 C   0  0  0  0  0  0  0  0  0  0  0  0
   73.1143   43.2233   58.4172 C   0  0  0  0  0  0  0  0  0  0  0  0
   72.6157   41.9511   58.6025 C   0  0  0  0  0  0  0  0  0  0  0  0
   71.2610   41.7339   58.3560 C   0  0  0  0  0  0  0  0  0  0  0  0
   70.4575   42.8108   57.9313 C   0  0  0  0  0  0  0  0  0  0  0  0
   69.2309   42.3294   57.7742 N   0  0  0  0  0  0  0  0  0  0  0  0
   69.1927   41.0211   58.0686 C   0  0  0  0  0  0  0  0  0  0  0  0
   68.1050   40.1395   58.0372 C   0  0  0  0  0  0  0  0  0  0  0  0
   68.2933   38.8270   58.3885 C   0  0  0  0  0  0  0  0  0  0  0  0
   69.5552   38.4375   58.7567 C   0  0  0  0  0  0  0  0  0  0  0  0
   70.6307   39.3123   58.7846 C   0  0  0  0  0  0  0  0  0  0  0  0
   70.4607   40.6252   58.4375 C   0  0  0  0  0  0  0  0  0  0  0  0
   73.6641   41.0656   59.0351 C   0  0  0  0  0  0  0  0  0  0  0  0
   73.6958   39.8582   59.3231 O   0  0  0  0  0  0  0  0  0  0  0  0
   74.8740   41.8480   59.1179 N   0  0  0  0  0  0  0  0  0  0  0  0
   74.5316   43.1589   58.7404 C   0  0  0  0  0  0  0  0  0  0  0  0
   75.2699   44.2036   58.6581 O   0  0  0  0  0  0  0  0  0  0  0  0
   69.1278   45.1158   56.2972 N   0  0  0  0  0  0  0  0  0  0  0  0
   70.1118   45.1734   57.3086 C   0  0  0  0  0  0  0  0  0  0  0  0
   70.2528   46.3045   57.8679 O   0  0  0  0  0  0  0  0  0  0  0  0
   68.2881   46.2299   55.8808 C   0  0  0  0  0  0  0  0  0  0  0  0
   69.3940   47.7989   52.5811 C   0  0  0  0  0  0  0  0  0  0  0  0
   68.6659   47.0128   51.7303 C   0  0  0  0  0  0  0  0  0  0  0  0
   67.8467   46.0039   52.1828 C   0  0  0  0  0  0  0  0  0  0  0  0
   67.7411   45.7582   53.5235 C   0  0  0  0  0  0  0  0  0  0  0  0
   68.4669   46.5393   54.4284 C   0  0  0  0  0  0  0  0  0  0  0  0
   69.2756   47.5378   53.9556 C   0  0  0  0  0  0  0  0  0  0  0  0
   69.7702   49.6734   51.0067 N   0  0  0  0  0  0  0  0  0  0  0  0
   70.2265   48.8717   52.0734 C   0  0  0  0  0  0  0  0  0  0  0  0
   71.3435   49.0824   52.5814 O   0  0  0  0  0  0  0  0  0  0  0  0
 29 30  1  0
 30 31  2  0
 30 23  1  0
 23 24  2  0
 23 28  1  0
 24 25  1  0
 25 26  2  0
 26 27  1  0
 27 22  1  0
 27 28  2  0
 22 19  1  0
 19 20  1  0
 20 21  2  0
 20  1  1  0
  1  2  2  0
  1  6  1  0
  2  3  1  0
  3  4  2  0
  3 17  1  0
  4  5  1  0
  4 14  1  0
  5  6  2  0
  5 13  1  0
  6  7  1  0
  7  8  1  0
  8  9  1  0
  8 13  2  0
  9 10  2  0
 10 11  1  0
 11 12  2  0
 12 13  1  0
 14 15  2  0
 14 16  1  0
 16 17  1  0
 17 18  2  0
M  END
>  <minimizedAffinity>  (97) 
-9.09473

$$$$
data/200k_reference_output/data/smiles/8651.pdb
     RDKit          3D

 22 24  0  0  0  0  0  0  0  0999 V2000
   69.2530   47.6595   56.7905 C   0  0  0  0  0  0  0  0  0  0  0  0
   68.8221   46.9140   55.5856 C   0  0  0  0  0  0  0  0  0  0  0  0
   68.1067   45.7584   55.7248 N   0  0  0  0  0  0  0  0  0  0  0  0
   67.6571   45.0928   54.6855 N   0  0  0  0  0  0  0  0  0  0  0  0
   67.8596   45.4871   53.4214 C   0  0  0  0  0  0  0  0  0  0  0  0
   67.4154   44.8290   52.4465 O   0  0  0  0  0  0  0  0  0  0  0  0
   68.5803   46.6511   53.2298 C   0  0  0  0  0  0  0  0  0  0  0  0
   68.8398   47.1079   51.9484 C   0  0  0  0  0  0  0  0  0  0  0  0
   69.5720   48.2603   51.7730 C   0  0  0  0  0  0  0  0  0  0  0  0
   70.0641   48.9856   52.8293 C   0  0  0  0  0  0  0  0  0  0  0  0
   69.8068   48.5330   54.1052 C   0  0  0  0  0  0  0  0  0  0  0  0
   69.0658   47.3692   54.3300 C   0  0  0  0  0  0  0  0  0  0  0  0
   68.0922   51.2130   57.2944 C   0  0  0  0  0  0  0  0  0  0  0  0
   66.8284   50.9688   57.8044 C   0  0  0  0  0  0  0  0  0  0  0  0
   66.3411   49.7003   57.9860 C   0  0  0  0  0  0  0  0  0  0  0  0
   67.1065   48.6013   57.6588 C   0  0  0  0  0  0  0  0  0  0  0  0
   68.3576   48.7872   57.1538 C   0  0  0  0  0  0  0  0  0  0  0  0
   68.8269   50.0948   56.9812 C   0  0  0  0  0  0  0  0  0  0  0  0
   68.5945   52.4941   57.1075 O   0  0  0  0  0  0  0  0  0  0  0  0
   68.8683   52.4216   54.6008 C   0  0  0  0  0  0  0  0  0  0  0  0
   69.2491   52.8967   55.9537 C   0  0  0  0  0  0  0  0  0  0  0  0
   70.2065   53.7030   56.0714 O   0  0  0  0  0  0  0  0  0  0  0  0
 20 21  1  0
 21 22  2  0
 21 19  1  0
 19 13  1  0
 13 14  2  0
 13 18  1  0
 14 15  1  0
 15 16  2  0
 16 17  1  0
 17  1  1  0
 17 18  2  0
  1  2  1  0
  2  3  2  0
  2 12  1  0
  3  4  1  0
  4  5  1  0
  5  6  2  0
  5  7  1  0
  7  8  1  0
  7 12  2  0
  8  9  2  0
  9 10  1  0
 10 11  2  0
 11 12  1  0
M  END
>  <minimizedAffinity>  (98) 
-9.13288

$$$$
data/200k_reference_output/data/smiles/8733.pdb
     RDKit          3D

 32 35  0  0  0  0  0  0  0  0999 V2000
   74.3627   33.6818   55.5326 O   0  0  0  0  0  0  0  0  0  0  0  0
   73.7542   34.7896   55.6357 C   0  0  0  0  0  0  0  0  0  0  0  0
   73.8886   35.6785   54.5362 N   0  0  0  0  0  0  0  0  0  0  0  0
   74.6568   35.3622   53.3787 C   0  0  0  0  0  0  0  0  0  0  0  0
   74.0166   34.7339   52.3331 C   0  0  0  0  0  0  0  0  0  0  0  0
   74.7024   34.3945   51.1717 C   0  0  0  0  0  0  0  0  0  0  0  0
   76.0458   34.6692   51.0118 C   0  0  0  0  0  0  0  0  0  0  0  0
   76.6770   35.3017   52.0716 C   0  0  0  0  0  0  0  0  0  0  0  0
   75.9945   35.6369   53.2229 C   0  0  0  0  0  0  0  0  0  0  0  0
   76.7473   34.3231   49.8255 N   0  0  0  0  0  0  0  0  0  0  0  0
   77.5501   35.3019   49.1832 C   0  0  0  0  0  0  0  0  0  0  0  0
   77.6545   36.4788   49.6465 O   0  0  0  0  0  0  0  0  0  0  0  0
   78.2908   35.0049   47.9658 C   0  0  0  0  0  0  0  0  0  0  0  0
   77.6686   34.7454   46.7667 C   0  0  0  0  0  0  0  0  0  0  0  0
   78.3590   34.4648   45.6132 C   0  0  0  0  0  0  0  0  0  0  0  0
   79.7398   34.4420   45.6579 C   0  0  0  0  0  0  0  0  0  0  0  0
   80.3674   34.7046   46.8714 C   0  0  0  0  0  0  0  0  0  0  0  0
   79.6446   34.9724   47.9628 N   0  0  0  0  0  0  0  0  0  0  0  0
   72.9810   35.0710   56.8384 C   0  0  0  0  0  0  0  0  0  0  0  0
   72.6028   34.0887   57.7292 C   0  0  0  0  0  0  0  0  0  0  0  0
   71.8585   34.4377   58.8665 C   0  0  0  0  0  0  0  0  0  0  0  0
   71.4906   35.7430   59.1243 C   0  0  0  0  0  0  0  0  0  0  0  0
   71.8721   36.7249   58.2317 C   0  0  0  0  0  0  0  0  0  0  0  0
   72.6076   36.3627   57.1100 C   0  0  0  0  0  0  0  0  0  0  0  0
   71.5220   38.1346   58.4322 C   0  0  0  0  0  0  0  0  0  0  0  0
   70.2392   38.5749   58.1739 C   0  0  0  0  0  0  0  0  0  0  0  0
   69.9240   39.8763   58.3611 N   0  0  0  0  0  0  0  0  0  0  0  0
   70.8660   40.7378   58.8002 C   0  0  0  0  0  0  0  0  0  0  0  0
   70.5682   41.9501   58.9731 O   0  0  0  0  0  0  0  0  0  0  0  0
   72.1262   40.3676   59.0669 N   0  0  0  0  0  0  0  0  0  0  0  0
   72.4373   39.0634   58.8787 C   0  0  0  0  0  0  0  0  0  0  0  0
   73.6072   38.6236   59.1061 O   0  0  0  0  0  0  0  0  0  0  0  0
  1  2  2  0
  2  3  1  0
  2 19  1  0
  3  4  1  0
  4  5  2  0
  4  9  1  0
  5  6  1  0
  6  7  2  0
  7 10  1  0
  7  8  1  0
 10 11  1  0
 11 12  2  0
 11 13  1  0
 13 14  2  0
 13 18  1  0
 14 15  1  0
 15 16  2  0
 16 17  1  0
 17 18  2  0
  8  9  2  0
 19 20  2  0
 19 24  1  0
 20 21  1  0
 21 22  2  0
 22 23  1  0
 23 25  1  0
 23 24  2  0
 25 26  2  0
 25 31  1  0
 26 27  1  0
 27 28  1  0
 28 29  2  0
 28 30  1  0
 30 31  1  0
 31 32  2  0
M  END
>  <minimizedAffinity>  (99) 
-8.92000

$$$$
data/200k_reference_output/data/smiles/8832.pdb
     RDKit          3D

 26 28  0  0  0  0  0  0  0  0999 V2000
   68.7833   42.2592   57.0933 C   0  0  0  0  0  0  0  0  0  0  0  0
   68.9486   43.5312   56.6781 N   0  0  0  0  0  0  0  0  0  0  0  0
   68.2179   44.1559   55.7402 C   0  0  0  0  0  0  0  0  0  0  0  0
   67.2387   43.4314   55.1759 N   0  0  0  0  0  0  0  0  0  0  0  0
   67.0038   42.1560   55.5283 C   0  0  0  0  0  0  0  0  0  0  0  0
   66.0670   41.4934   54.9747 O   0  0  0  0  0  0  0  0  0  0  0  0
   67.7794   41.5263   56.5100 C   0  0  0  0  0  0  0  0  0  0  0  0
   67.4795   40.2163   56.8186 O   0  0  0  0  0  0  0  0  0  0  0  0
   68.4859   45.5387   55.3687 C   0  0  0  0  0  0  0  0  0  0  0  0
   68.9822   46.4449   56.2538 C   0  0  0  0  0  0  0  0  0  0  0  0
   69.2211   47.7648   55.8414 C   0  0  0  0  0  0  0  0  0  0  0  0
   68.9703   48.1879   54.5553 C   0  0  0  0  0  0  0  0  0  0  0  0
   69.2065   49.4747   54.1658 F   0  0  0  0  0  0  0  0  0  0  0  0
   68.4653   47.2549   53.6667 C   0  0  0  0  0  0  0  0  0  0  0  0
   68.2293   45.9505   54.0750 C   0  0  0  0  0  0  0  0  0  0  0  0
   69.4763   42.1804   59.2969 O   0  0  0  0  0  0  0  0  0  0  0  0
   69.6498   41.7119   58.1198 C   0  0  0  0  0  0  0  0  0  0  0  0
   70.6422   40.7486   57.9987 N   0  0  0  0  0  0  0  0  0  0  0  0
   71.4878   40.2280   59.0714 C   0  0  0  0  0  0  0  0  0  0  0  0
   71.4753   38.7544   58.9770 C   0  0  0  0  0  0  0  0  0  0  0  0
   70.7168   38.1031   59.9584 C   0  0  0  0  0  0  0  0  0  0  0  0
   70.6454   36.7342   59.9315 C   0  0  0  0  0  0  0  0  0  0  0  0
   71.2982   35.9660   58.9675 C   0  0  0  0  0  0  0  0  0  0  0  0
   72.0375   36.6248   58.0137 C   0  0  0  0  0  0  0  0  0  0  0  0
   72.8557   35.6650   56.8033 Cl  0  0  0  0  0  0  0  0  0  0  0  0
   72.1154   38.0054   58.0306 C   0  0  0  0  0  0  0  0  0  0  0  0
 16 17  2  0
 17 18  1  0
 17  1  1  0
 18 19  1  0
 19 20  1  0
 20 21  2  0
 20 26  1  0
 21 22  1  0
 22 23  2  0
 23 24  1  0
 24 25  1  0
 24 26  2  0
  1  2  1  0
  1  7  2  0
  2  3  2  0
  3  9  1  0
  3  4  1  0
  9 10  2  0
  9 15  1  0
 10 11  1  0
 11 12  2  0
 12 13  1  0
 12 14  1  0
 14 15  2  0
  4  5  1  0
  5  6  2  0
  5  7  1  0
  7  8  1  0
M  END
>  <minimizedAffinity>  (100) 
-8.50869

$$$$
data/200k_reference_output/data/smiles/8871.pdb
     RDKit          3D

 20 22  0  0  0  0  0  0  0  0999 V2000
   68.4127   47.7374   55.8737 C   0  0  0  0  0  0  0  0  0  0  0  0
   69.0529   48.2761   54.8199 N   0  0  0  0  0  0  0  0  0  0  0  0
   68.7859   47.5803   53.6989 C   0  0  0  0  0  0  0  0  0  0  0  0
   69.1684   47.6901   52.3667 C   0  0  0  0  0  0  0  0  0  0  0  0
   68.7174   46.7989   51.4153 C   0  0  0  0  0  0  0  0  0  0  0  0
   67.8693   45.7680   51.7597 C   0  0  0  0  0  0  0  0  0  0  0  0
   67.4962   45.6672   53.0812 C   0  0  0  0  0  0  0  0  0  0  0  0
   67.9378   46.5512   54.0495 C   0  0  0  0  0  0  0  0  0  0  0  0
   67.7396   46.6860   55.3760 N   0  0  0  0  0  0  0  0  0  0  0  0
   68.2147   51.0848   56.8892 C   0  0  1  0  0  0  0  0  0  0  0  0
   69.5391   50.3832   56.6951 C   0  0  0  0  0  0  0  0  0  0  0  0
   69.6569   49.1116   57.4723 C   0  0  0  0  0  0  0  0  0  0  0  0
   68.4474   48.2139   57.2994 C   0  0  1  0  0  0  0  0  0  0  0  0
   67.1635   48.9343   57.6107 C   0  0  0  0  0  0  0  0  0  0  0  0
   67.4474   50.3797   57.9667 C   0  0  0  0  0  0  0  0  0  0  0  0
   69.2731   53.0563   56.3637 C   0  0  0  0  0  0  0  0  0  0  0  0
   68.4012   52.3991   57.2417 O   0  0  0  0  0  0  0  0  0  0  0  0
   70.0669   48.7886   52.0228 C   0  0  0  0  0  0  0  0  0  0  0  0
   71.2062   48.9860   52.8580 N   0  0  0  0  0  0  0  0  0  0  0  0
   69.8670   49.5373   51.0449 O   0  0  0  0  0  0  0  0  0  0  0  0
 16 17  1  0
 10 17  1  1
 10 11  1  0
 10 15  1  0
 11 12  1  0
 12 13  1  0
 13  1  1  6
 13 14  1  0
  1  2  2  0
  1  9  1  0
  2  3  1  0
  3  4  2  0
  3  8  1  0
  4 18  1  0
  4  5  1  0
 18 19  1  0
 18 20  2  0
  5  6  2  0
  6  7  1  0
  7  8  2  0
  8  9  1  0
 14 15  1  0
M  CHG  1   2   1
M  END
>  <minimizedAffinity>  (101) 
-8.53313

$$$$
data/200k_reference_output/data/smiles/8974.pdb
     RDKit          3D

 27 30  0  0  0  0  0  0  0  0999 V2000
   69.6806   43.3212   57.3928 C   0  0  0  0  0  0  0  0  0  0  0  0
   68.4434   42.8532   56.7159 C   0  0  0  0  0  0  0  0  0  0  0  0
   67.8160   41.6656   57.0088 C   0  0  0  0  0  0  0  0  0  0  0  0
   66.7073   41.6182   56.1536 C   0  0  0  0  0  0  0  0  0  0  0  0
   66.7355   42.7329   55.4313 N   0  0  0  0  0  0  0  0  0  0  0  0
   67.7608   43.4869   55.7476 N   0  0  0  0  0  0  0  0  0  0  0  0
   68.1213   44.7640   55.1810 C   0  0  0  0  0  0  0  0  0  0  0  0
   68.1182   45.0162   53.8846 N   0  0  0  0  0  0  0  0  0  0  0  0
   68.4626   46.2275   53.3975 C   0  0  0  0  0  0  0  0  0  0  0  0
   68.8233   47.2094   54.3015 C   0  0  0  0  0  0  0  0  0  0  0  0
   68.8246   46.9425   55.6527 C   0  0  0  0  0  0  0  0  0  0  0  0
   69.1498   47.8178   56.5169 O   0  0  0  0  0  0  0  0  0  0  0  0
   68.4714   45.7180   56.0598 N   0  0  0  0  0  0  0  0  0  0  0  0
   69.1629   48.4634   53.5395 C   0  0  0  0  0  0  0  0  0  0  0  0
   69.6005   47.8906   52.2107 C   0  0  0  0  0  0  0  0  0  0  0  0
   68.5512   46.7925   52.0130 C   0  0  0  0  0  0  0  0  0  0  0  0
   68.1866   40.6482   57.9853 C   0  0  0  0  0  0  0  0  0  0  0  0
   69.0319   39.7938   57.6542 O   0  0  0  0  0  0  0  0  0  0  0  0
   67.5928   40.6451   59.2660 N   0  0  0  0  0  0  0  0  0  0  0  0
   66.6107   41.6109   59.6945 C   0  0  0  0  0  0  0  0  0  0  0  0
   66.9146   42.2606   60.9979 C   0  0  0  0  0  0  0  0  0  0  0  0
   67.7331   41.4963   61.9565 C   0  0  0  0  0  0  0  0  0  0  0  0
   68.5349   40.3759   61.4283 C   0  0  0  0  0  0  0  0  0  0  0  0
   67.9401   39.6370   60.2752 C   0  0  0  0  0  0  0  0  0  0  0  0
   68.6275   42.4667   62.7382 C   0  0  0  0  0  0  0  0  0  0  0  0
   67.9495   43.6147   63.0704 F   0  0  0  0  0  0  0  0  0  0  0  0
   69.1530   41.8256   63.8616 F   0  0  0  0  0  0  0  0  0  0  0  0
  1  2  1  0
  2  3  2  0
  2  6  1  0
  3 17  1  0
  3  4  1  0
 17 18  2  0
 17 19  1  0
 19 20  1  0
 19 24  1  0
 20 21  1  0
 21 22  1  0
 22 25  1  0
 22 23  1  0
 25 26  1  0
 25 27  1  0
 23 24  1  0
  4  5  2  0
  5  6  1  0
  6  7  1  0
  7  8  2  0
  7 13  1  0
  8  9  1  0
  9 10  2  0
  9 16  1  0
 10 11  1  0
 10 14  1  0
 11 12  2  0
 11 13  1  0
 14 15  1  0
 15 16  1  0
M  END
>  <minimizedAffinity>  (102) 
-8.69911

$$$$
data/200k_reference_output/data/smiles/9350.pdb
     RDKit          3D

 24 26  0  0  0  0  0  0  0  0999 V2000
   68.0718   43.5895   55.8739 C   0  0  0  0  0  0  0  0  0  0  0  0
   67.9333   42.2610   56.2115 C   0  0  0  0  0  0  0  0  0  0  0  0
   68.7278   41.9574   57.2896 C   0  0  0  0  0  0  0  0  0  0  0  0
   69.3485   43.1091   57.6035 N   0  0  0  0  0  0  0  0  0  0  0  0
   68.9724   44.0697   56.7834 N   0  0  0  0  0  0  0  0  0  0  0  0
   68.9308   40.6915   57.9792 C   0  0  0  0  0  0  0  0  0  0  0  0
   70.1679   40.2850   58.4413 C   0  0  0  0  0  0  0  0  0  0  0  0
   70.2989   39.0696   59.1230 C   0  0  0  0  0  0  0  0  0  0  0  0
   69.2367   38.2322   59.3658 C   0  0  0  0  0  0  0  0  0  0  0  0
   69.3521   37.0223   60.0419 O   0  0  0  0  0  0  0  0  0  0  0  0
   67.9947   38.6447   58.8993 C   0  0  0  0  0  0  0  0  0  0  0  0
   66.9257   37.8356   59.1186 F   0  0  0  0  0  0  0  0  0  0  0  0
   67.8607   39.8415   58.2274 C   0  0  0  0  0  0  0  0  0  0  0  0
   67.4713   44.3396   54.8401 N   0  0  0  0  0  0  0  0  0  0  0  0
   69.2109   47.9040   53.3193 C   0  0  0  0  0  0  0  0  0  0  0  0
   68.7191   46.9441   52.4712 C   0  0  0  0  0  0  0  0  0  0  0  0
   68.1408   45.7657   52.9434 C   0  0  0  0  0  0  0  0  0  0  0  0
   68.0398   45.5177   54.2900 C   0  0  0  0  0  0  0  0  0  0  0  0
   68.5394   46.4925   55.1389 C   0  0  0  0  0  0  0  0  0  0  0  0
   69.1153   47.6649   54.6736 C   0  0  0  0  0  0  0  0  0  0  0  0
   69.8138   49.5794   51.0439 N   0  0  0  0  0  0  0  0  0  0  0  0
   69.9412   49.3919   52.7511 S   0  0  0  0  0  0  0  0  0  0  0  0
   69.2417   50.5685   53.3963 O   0  0  0  0  0  0  0  0  0  0  0  0
   71.3922   49.4521   53.1374 O   0  0  0  0  0  0  0  0  0  0  0  0
 21 22  1  0
 22 23  2  0
 22 24  2  0
 22 15  1  0
 15 16  2  0
 15 20  1  0
 16 17  1  0
 17 18  2  0
 18 14  1  0
 18 19  1  0
 14  1  1  0
  1  2  2  0
  1  5  1  0
  2  3  1  0
  3  6  1  0
  3  4  2  0
  6  7  2  0
  6 13  1  0
  7  8  1  0
  8  9  2  0
  9 10  1  0
  9 11  1  0
 11 12  1  0
 11 13  2  0
  4  5  1  0
 19 20  2  0
M  END
>  <minimizedAffinity>  (103) 
-9.27031

$$$$
data/200k_reference_output/data/smiles/9603.pdb
     RDKit          3D

 29 32  0  0  0  0  0  0  0  0999 V2000
   68.6614   39.2855   57.4865 O   0  0  0  0  0  0  0  0  0  0  0  0
   67.9780   40.0162   58.2465 C   0  0  0  0  0  0  0  0  0  0  0  0
   67.1005   39.4895   59.1184 N   0  0  0  0  0  0  0  0  0  0  0  0
   66.3922   40.3113   59.9111 C   0  0  0  0  0  0  0  0  0  0  0  0
   65.5342   39.7843   60.7606 C   0  0  0  0  0  0  0  0  0  0  0  0
   66.5953   41.6851   59.7995 C   0  0  0  0  0  0  0  0  0  0  0  0
   65.9275   42.4395   60.5457 O   0  0  0  0  0  0  0  0  0  0  0  0
   67.4752   42.1974   58.9246 N   0  0  0  0  0  0  0  0  0  0  0  0
   68.1880   41.3860   58.1286 C   0  0  0  0  0  0  0  0  0  0  0  0
   69.0637   41.8708   57.2558 C   0  0  0  0  0  0  0  0  0  0  0  0
   69.2944   43.2882   57.1194 C   0  0  0  0  0  0  0  0  0  0  0  0
   70.2276   43.9650   57.8747 C   0  0  0  0  0  0  0  0  0  0  0  0
   70.3848   45.3200   57.6816 C   0  0  0  0  0  0  0  0  0  0  0  0
   69.6319   46.0228   56.7496 C   0  0  0  0  0  0  0  0  0  0  0  0
   68.7062   45.3316   56.0061 C   0  0  0  0  0  0  0  0  0  0  0  0
   68.5380   43.9810   56.1869 C   0  0  0  0  0  0  0  0  0  0  0  0
   67.9308   45.9994   55.0600 O   0  0  0  0  0  0  0  0  0  0  0  0
   68.5270   46.7534   54.0588 C   0  0  0  0  0  0  0  0  0  0  0  0
   68.6126   46.2429   52.7878 C   0  0  0  0  0  0  0  0  0  0  0  0
   69.2133   47.0274   51.8229 C   0  0  0  0  0  0  0  0  0  0  0  0
   69.7235   48.2845   52.0839 C   0  0  0  0  0  0  0  0  0  0  0  0
   70.3021   48.9966   51.0779 F   0  0  0  0  0  0  0  0  0  0  0  0
   69.6312   48.7838   53.3667 C   0  0  0  0  0  0  0  0  0  0  0  0
   69.0298   48.0039   54.3385 C   0  0  0  0  0  0  0  0  0  0  0  0
   65.3767   38.3194   60.8187 C   0  0  0  0  0  0  0  0  0  0  0  0
   64.4180   37.6822   60.0647 C   0  0  0  0  0  0  0  0  0  0  0  0
   64.5172   36.3689   60.3276 N   0  0  0  0  0  0  0  0  0  0  0  0
   65.5119   36.2209   61.2177 C   0  0  0  0  0  0  0  0  0  0  0  0
   66.0378   37.4183   61.5182 N   0  0  0  0  0  0  0  0  0  0  0  0
  1  2  2  0
  2  3  1  0
  2  9  1  0
  3  4  1  0
  4  5  2  0
  4  6  1  0
  5 25  1  0
 25 26  2  0
 25 29  1  0
 26 27  1  0
 27 28  1  0
 28 29  2  0
  6  7  2  0
  6  8  1  0
  8  9  1  0
  9 10  2  0
 10 11  1  0
 11 12  2  0
 11 16  1  0
 12 13  1  0
 13 14  2  0
 14 15  1  0
 15 17  1  0
 15 16  2  0
 17 18  1  0
 18 19  2  0
 18 24  1  0
 19 20  1  0
 20 21  2  0
 21 22  1  0
 21 23  1  0
 23 24  2  0
M  CHG  1  29   1
M  END
>  <minimizedAffinity>  (104) 
-9.21253

$$$$
data/200k_reference_output/data/smiles/9669.pdb
     RDKit          3D

 22 24  0  0  0  0  0  0  0  0999 V2000
   69.9651   48.5798   56.5106 C   0  0  0  0  0  0  0  0  0  0  0  0
   70.1070   48.6382   55.0273 C   0  0  0  0  0  0  0  0  0  0  0  0
   70.8290   49.5617   54.3903 N   0  0  0  0  0  0  0  0  0  0  0  0
   70.8790   49.6978   53.0885 N   0  0  0  0  0  0  0  0  0  0  0  0
   70.1732   48.8755   52.2950 C   0  0  0  0  0  0  0  0  0  0  0  0
   70.2050   48.9917   51.0317 O   0  0  0  0  0  0  0  0  0  0  0  0
   69.3886   47.8736   52.8613 C   0  0  0  0  0  0  0  0  0  0  0  0
   68.6866   46.9942   52.0353 C   0  0  0  0  0  0  0  0  0  0  0  0
   67.9449   45.9794   52.5763 C   0  0  0  0  0  0  0  0  0  0  0  0
   67.9348   45.8816   53.9553 C   0  0  0  0  0  0  0  0  0  0  0  0
   68.6271   46.7495   54.7685 C   0  0  0  0  0  0  0  0  0  0  0  0
   69.3661   47.7648   54.2295 C   0  0  0  0  0  0  0  0  0  0  0  0
   68.7346   50.6578   57.0295 C   0  0  0  0  0  0  0  0  0  0  0  0
   67.5720   51.2852   57.4128 C   0  0  0  0  0  0  0  0  0  0  0  0
   66.4243   50.6189   57.7761 C   0  0  0  0  0  0  0  0  0  0  0  0
   66.4769   49.2424   57.7445 C   0  0  0  0  0  0  0  0  0  0  0  0
   67.6278   48.5381   57.3641 C   0  0  0  0  0  0  0  0  0  0  0  0
   68.7364   49.2530   57.0110 C   0  0  0  0  0  0  0  0  0  0  0  0
   71.3324   53.1728   55.6911 C   0  0  0  0  0  0  0  0  0  0  0  0
   70.0080   52.4943   55.9127 C   0  0  0  0  0  0  0  0  0  0  0  0
   69.0140   52.9586   55.3271 O   0  0  0  0  0  0  0  0  0  0  0  0
   69.9273   51.3652   56.7688 N   0  0  0  0  0  0  0  0  0  0  0  0
 19 20  1  0
 20 21  2  0
 20 22  1  0
 22 13  1  0
 13 14  2  0
 13 18  1  0
 14 15  1  0
 15 16  2  0
 16 17  1  0
 17 18  2  0
 18  1  1  0
  1  2  1  0
  2  3  2  0
  2 12  1  0
  3  4  1  0
  4  5  1  0
  5  6  2  0
  5  7  1  0
  7  8  1  0
  7 12  2  0
  8  9  2  0
  9 10  1  0
 10 11  2  0
 11 12  1  0
M  END
>  <minimizedAffinity>  (105) 
-8.66261

$$$$
data/200k_reference_output/data/smiles/9715.pdb
     RDKit          3D

 23 25  0  0  0  0  0  0  0  0999 V2000
   72.6401   40.1409   59.5226 C   0  0  0  0  0  0  0  0  0  0  0  0
   71.3009   40.2010   58.8582 C   0  0  0  0  0  0  0  0  0  0  0  0
   70.4795   39.1017   58.7834 C   0  0  0  0  0  0  0  0  0  0  0  0
   69.2438   39.1569   58.1712 C   0  0  0  0  0  0  0  0  0  0  0  0
   68.7800   40.3315   57.6046 C   0  0  0  0  0  0  0  0  0  0  0  0
   69.5963   41.4420   57.6738 C   0  0  0  0  0  0  0  0  0  0  0  0
   70.8347   41.3722   58.2915 C   0  0  0  0  0  0  0  0  0  0  0  0
   68.9568   42.5891   57.0312 C   0  0  0  0  0  0  0  0  0  0  0  0
   69.3852   43.7880   56.8874 N   0  0  0  0  0  0  0  0  0  0  0  0
   67.6700   42.1012   56.5523 C   0  0  0  0  0  0  0  0  0  0  0  0
   66.8170   42.7930   55.9394 O   0  0  0  0  0  0  0  0  0  0  0  0
   67.6087   40.7284   56.9235 N   0  0  0  0  0  0  0  0  0  0  0  0
   68.5866   44.7302   56.2273 N   0  0  0  0  0  0  0  0  0  0  0  0
   68.9337   46.1159   56.2857 C   0  0  0  0  0  0  0  0  0  0  0  0
   69.9551   46.4414   56.9341 O   0  0  0  0  0  0  0  0  0  0  0  0
   68.1423   47.1694   55.6157 C   0  0  0  0  0  0  0  0  0  0  0  0
   68.7831   47.4810   54.3158 C   0  0  0  0  0  0  0  0  0  0  0  0
   68.6434   46.7166   53.1973 C   0  0  0  0  0  0  0  0  0  0  0  0
   69.2813   47.0786   52.0075 C   0  0  0  0  0  0  0  0  0  0  0  0
   70.0566   48.2214   51.9736 C   0  0  0  0  0  0  0  0  0  0  0  0
   70.6793   48.5609   50.7812 O   0  0  0  0  0  0  0  0  0  0  0  0
   70.2097   49.0095   53.0941 C   0  0  0  0  0  0  0  0  0  0  0  0
   69.5715   48.6337   54.2578 C   0  0  0  0  0  0  0  0  0  0  0  0
  1  2  1  0
  2  3  2  0
  2  7  1  0
  3  4  1  0
  4  5  2  0
  5  6  1  0
  5 12  1  0
  6  7  2  0
  6  8  1  0
  8  9  2  0
  8 10  1  0
  9 13  1  0
 13 14  1  0
 14 15  2  0
 14 16  1  0
 16 17  1  0
 17 18  2  0
 17 23  1  0
 18 19  1  0
 19 20  2  0
 20 21  1  0
 20 22  1  0
 22 23  2  0
 10 11  2  0
 10 12  1  0
M  END
>  <minimizedAffinity>  (106) 
-8.73678

$$$$
data/200k_reference_output/data/smiles/9781.pdb
     RDKit          3D

 30 33  0  0  0  0  0  0  0  0999 V2000
   71.4377   51.3481   58.3430 C   0  0  0  0  0  0  0  0  0  0  0  0
   72.3382   50.2919   57.6897 C   0  0  1  0  0  0  0  0  0  0  0  0
   73.7372   50.5849   58.1082 C   0  0  0  0  0  0  0  0  0  0  0  0
   73.9547   50.2560   59.5679 C   0  0  0  0  0  0  0  0  0  0  0  0
   73.3374   48.9548   59.9277 C   0  0  0  0  0  0  0  0  0  0  0  0
   73.8383   48.3089   61.0368 C   0  0  0  0  0  0  0  0  0  0  0  0
   73.3146   47.0827   61.4327 C   0  0  0  0  0  0  0  0  0  0  0  0
   73.8102   46.4514   62.5227 F   0  0  0  0  0  0  0  0  0  0  0  0
   72.2737   46.5213   60.6865 C   0  0  0  0  0  0  0  0  0  0  0  0
   71.7716   47.1657   59.5788 C   0  0  0  0  0  0  0  0  0  0  0  0
   70.7366   46.6026   58.8422 C   0  0  0  0  0  0  0  0  0  0  0  0
   70.2349   45.3964   59.2471 O   0  0  0  0  0  0  0  0  0  0  0  0
   70.2308   47.2327   57.7426 C   0  0  0  0  0  0  0  0  0  0  0  0
   70.8281   48.4682   57.4232 C   0  0  0  0  0  0  0  0  0  0  0  0
   70.4033   49.0904   56.4240 O   0  0  0  0  0  0  0  0  0  0  0  0
   71.8243   49.0098   58.1336 N   0  0  0  0  0  0  0  0  0  0  0  0
   72.3170   48.3833   59.2138 C   0  0  0  0  0  0  0  0  0  0  0  0
   69.1493   46.7396   56.8967 C   0  0  0  0  0  0  0  0  0  0  0  0
   67.9891   47.2876   57.0088 O   0  0  0  0  0  0  0  0  0  0  0  0
   69.2197   45.7163   55.9512 N   0  0  0  0  0  0  0  0  0  0  0  0
   68.1048   45.2491   55.1244 C   0  0  0  0  0  0  0  0  0  0  0  0
   68.1927   45.8472   53.7551 C   0  0  0  0  0  0  0  0  0  0  0  0
   67.5101   45.3850   52.6614 C   0  0  0  0  0  0  0  0  0  0  0  0
   67.6552   45.9883   51.4107 C   0  0  0  0  0  0  0  0  0  0  0  0
   68.4899   47.0692   51.2361 C   0  0  0  0  0  0  0  0  0  0  0  0
   69.2020   47.5662   52.3346 C   0  0  0  0  0  0  0  0  0  0  0  0
   69.0344   46.9473   53.5501 C   0  0  0  0  0  0  0  0  0  0  0  0
   70.0850   48.7072   52.1514 C   0  0  0  0  0  0  0  0  0  0  0  0
   69.9706   49.5425   51.0191 N   0  0  0  0  0  0  0  0  0  0  0  0
   70.9646   48.9694   52.9975 O   0  0  0  0  0  0  0  0  0  0  0  0
  2  1  1  1
  2  3  1  0
  2 16  1  0
  3  4  1  0
  4  5  1  0
  5  6  1  0
  5 17  2  0
  6  7  2  0
  7  8  1  0
  7  9  1  0
  9 10  2  0
 10 11  1  0
 10 17  1  0
 11 12  1  0
 11 13  2  0
 13 18  1  0
 13 14  1  0
 18 19  2  0
 18 20  1  0
 20 21  1  0
 21 22  1  0
 22 23  2  0
 22 27  1  0
 23 24  1  0
 24 25  2  0
 25 26  1  0
 26 28  1  0
 26 27  2  0
 28 29  1  0
 28 30  2  0
 14 15  2  0
 14 16  1  0
 16 17  1  0
M  END
>  <minimizedAffinity>  (107) 
-8.89394

$$$$
data/200k_reference_output/data/smiles/9981.pdb
     RDKit          3D

 26 28  0  0  0  0  0  0  0  0999 V2000
   71.5521   43.9881   57.6877 C   0  0  2  0  0  0  0  0  0  0  0  0
   72.4277   45.0573   58.2586 C   0  0  0  0  0  0  0  0  0  0  0  0
   71.6385   46.1815   58.9118 C   0  0  0  0  0  0  0  0  0  0  0  0
   70.6111   46.7619   57.9421 C   0  0  0  0  0  0  0  0  0  0  0  0
   69.8748   45.6562   57.3618 N   0  0  0  0  0  0  0  0  0  0  0  0
   69.0119   45.8085   56.2817 C   0  0  0  0  0  0  0  0  0  0  0  0
   68.3943   44.8293   55.8143 O   0  0  0  0  0  0  0  0  0  0  0  0
   70.0889   44.3677   57.9700 C   0  0  0  0  0  0  0  0  0  0  0  0
   71.8442   42.6150   58.1465 C   0  0  0  0  0  0  0  0  0  0  0  0
   70.8077   41.5934   58.2741 C   0  0  0  0  0  0  0  0  0  0  0  0
   68.7446   39.4651   58.1446 C   0  0  0  0  0  0  0  0  0  0  0  0
   70.2005   39.2123   58.4184 C   0  0  0  0  0  0  0  0  0  0  0  0
   70.6008   37.8860   58.6219 C   0  0  0  0  0  0  0  0  0  0  0  0
   71.9021   37.5603   58.9217 C   0  0  0  0  0  0  0  0  0  0  0  0
   72.8216   38.5944   59.0206 C   0  0  0  0  0  0  0  0  0  0  0  0
   72.4468   39.8899   58.8250 C   0  0  0  0  0  0  0  0  0  0  0  0
   71.1423   40.2077   58.5232 C   0  0  0  0  0  0  0  0  0  0  0  0
   68.8185   47.1432   55.6746 C   0  0  0  0  0  0  0  0  0  0  0  0
   68.7863   47.1049   54.2081 C   0  0  0  0  0  0  0  0  0  0  0  0
   67.8989   46.2818   53.5471 C   0  0  0  0  0  0  0  0  0  0  0  0
   67.8327   46.2113   52.1755 C   0  0  0  0  0  0  0  0  0  0  0  0
   67.0428   45.4791   51.5451 O   0  0  0  0  0  0  0  0  0  0  0  0
   68.6775   46.9869   51.4822 N   0  0  0  0  0  0  0  0  0  0  0  0
   69.5527   47.7972   52.0947 C   0  0  0  0  0  0  0  0  0  0  0  0
   70.4169   48.5904   51.3010 N   0  0  0  0  0  0  0  0  0  0  0  0
   69.6013   47.8507   53.4566 N   0  0  0  0  0  0  0  0  0  0  0  0
 11 12  1  0
 12 13  2  0
 12 17  1  0
 13 14  1  0
 14 15  2  0
 15 16  1  0
 16 17  2  0
 17 10  1  0
 10  9  1  0
  1  9  1  1
  1  2  1  0
  1  8  1  0
  2  3  1  0
  3  4  1  0
  4  5  1  0
  5  6  1  0
  5  8  1  0
  6  7  2  0
  6 18  1  0
 18 19  1  0
 19 20  2  0
 19 26  1  0
 20 21  1  0
 21 22  2  0
 21 23  1  0
 23 24  1  0
 24 25  1  0
 24 26  2  0
M  END
>  <minimizedAffinity>  (108) 
-9.13312

$$$$
data/200k_reference_output/data/smiles/10061.pdb
     RDKit          3D

 24 26  0  0  0  0  0  0  0  0999 V2000
   73.5275   50.1905   55.1434 N   0  0  0  0  0  0  0  0  0  0  0  0
   72.7957   51.1577   54.4428 C   0  0  0  0  0  0  0  0  0  0  0  0
   73.4318   51.8695   53.6234 O   0  0  0  0  0  0  0  0  0  0  0  0
   75.8419   50.2135   56.0086 C   0  0  0  0  0  0  0  0  0  0  0  0
   75.3388   50.6082   57.1223 O   0  0  0  0  0  0  0  0  0  0  0  0
   74.9162   49.9912   54.9678 N   0  0  0  0  0  0  0  0  0  0  0  0
   81.5658   49.5689   55.7190 C   0  0  0  0  0  0  0  0  0  0  0  0
   80.0827   49.7379   55.7956 C   0  0  0  0  0  0  0  0  0  0  0  0
   79.5066   50.7267   56.5650 C   0  0  0  0  0  0  0  0  0  0  0  0
   78.1120   50.8662   56.6217 C   0  0  0  0  0  0  0  0  0  0  0  0
   77.2758   50.0380   55.9250 C   0  0  0  0  0  0  0  0  0  0  0  0
   77.8662   49.0526   55.1594 C   0  0  0  0  0  0  0  0  0  0  0  0
   79.2337   48.9065   55.0971 C   0  0  0  0  0  0  0  0  0  0  0  0
   71.3498   51.3941   54.5984 C   0  0  0  0  0  0  0  0  0  0  0  0
   70.5558   50.1334   54.8161 C   0  0  0  0  0  0  0  0  0  0  0  0
   70.2435   49.4351   53.5902 N   0  0  0  0  0  0  0  0  0  0  0  0
   70.5858   49.7047   52.3561 N   0  0  0  0  0  0  0  0  0  0  0  0
   70.1001   48.8296   51.5002 N   0  0  0  0  0  0  0  0  0  0  0  0
   69.3960   47.9253   52.1820 C   0  0  0  0  0  0  0  0  0  0  0  0
   68.6834   46.8083   51.8041 C   0  0  0  0  0  0  0  0  0  0  0  0
   68.0564   46.0710   52.7825 C   0  0  0  0  0  0  0  0  0  0  0  0
   68.1271   46.4255   54.1140 C   0  0  0  0  0  0  0  0  0  0  0  0
   68.8441   47.5436   54.4645 C   0  0  0  0  0  0  0  0  0  0  0  0
   69.4876   48.3102   53.5171 C   0  0  0  0  0  0  0  0  0  0  0  0
  7  8  1  0
  8  9  2  0
  8 13  1  0
  9 10  1  0
 10 11  2  0
 11  4  1  0
 11 12  1  0
  4  5  2  0
  4  6  1  0
  6  1  1  0
  1  2  1  0
  2  3  2  0
  2 14  1  0
 14 15  1  0
 15 16  1  0
 16 17  1  0
 16 24  1  0
 17 18  2  0
 18 19  1  0
 19 20  1  0
 19 24  2  0
 20 21  2  0
 21 22  1  0
 22 23  2  0
 23 24  1  0
 12 13  2  0
M  END
>  <minimizedAffinity>  (109) 
-8.54024

$$$$
data/200k_reference_output/data/smiles/10166.pdb
     RDKit          3D

 30 33  0  0  0  0  0  0  0  0999 V2000
   70.6082   49.6214   57.2707 N   0  0  0  0  0  0  0  0  0  0  0  0
   69.3412   50.3886   57.3889 C   0  0  0  0  0  0  0  0  0  0  0  0
   69.5686   51.7958   56.9976 C   0  0  0  0  0  0  0  0  0  0  0  0
   70.7160   51.6180   56.0139 C   0  0  1  0  0  0  0  0  0  0  0  0
   71.4970   50.5051   56.6408 C   0  0  0  0  0  0  0  0  0  0  0  0
   70.5245   45.5253   58.4558 C   0  0  0  0  0  0  0  0  0  0  0  0
   69.8507   45.9647   57.3506 C   0  0  0  0  0  0  0  0  0  0  0  0
   69.9008   47.2937   57.0287 C   0  0  0  0  0  0  0  0  0  0  0  0
   70.5966   48.2695   57.7483 C   0  0  0  0  0  0  0  0  0  0  0  0
   71.2699   47.8181   58.8582 C   0  0  0  0  0  0  0  0  0  0  0  0
   71.9788   48.6878   59.6495 C   0  0  0  0  0  0  0  0  0  0  0  0
   72.6124   48.1900   60.7307 N   0  0  0  0  0  0  0  0  0  0  0  0
   72.5855   46.8976   61.0718 C   0  0  0  0  0  0  0  0  0  0  0  0
   71.8898   46.0670   60.2908 N   0  0  0  0  0  0  0  0  0  0  0  0
   71.2250   46.4511   59.1968 C   0  0  0  0  0  0  0  0  0  0  0  0
   69.4412   43.6488   59.6512 N   0  0  0  0  0  0  0  0  0  0  0  0
   70.4903   44.1192   58.8185 C   0  0  0  0  0  0  0  0  0  0  0  0
   71.3918   43.3651   58.3839 O   0  0  0  0  0  0  0  0  0  0  0  0
   70.1756   51.5056   54.6521 C   0  0  0  0  0  0  0  0  0  0  0  0
   69.5883   50.3227   54.1638 N   0  0  0  0  0  0  0  0  0  0  0  0
   70.1651   49.2478   53.4626 C   0  0  0  0  0  0  0  0  0  0  0  0
   71.3892   49.2938   53.1784 O   0  0  0  0  0  0  0  0  0  0  0  0
   69.3702   48.0686   53.0532 C   0  0  0  0  0  0  0  0  0  0  0  0
   69.0570   47.7754   51.7578 C   0  0  0  0  0  0  0  0  0  0  0  0
   68.2973   46.6341   51.4517 C   0  0  0  0  0  0  0  0  0  0  0  0
   67.8617   45.8019   52.4518 C   0  0  0  0  0  0  0  0  0  0  0  0
   67.1226   44.6922   52.1471 F   0  0  0  0  0  0  0  0  0  0  0  0
   68.1616   46.0709   53.7671 C   0  0  0  0  0  0  0  0  0  0  0  0
   67.7230   45.2348   54.7622 F   0  0  0  0  0  0  0  0  0  0  0  0
   68.9048   47.1922   54.0377 C   0  0  0  0  0  0  0  0  0  0  0  0
 16 17  1  0
 17 18  2  0
 17  6  1  0
  6  7  2  0
  6 15  1  0
  7  8  1  0
  8  9  2  0
  9  1  1  0
  9 10  1  0
  1  2  1  0
  1  5  1  0
  2  3  1  0
  3  4  1  0
  4 19  1  6
  4  5  1  0
 19 20  1  0
 20 21  1  0
 21 22  2  0
 21 23  1  0
 23 24  2  0
 23 30  1  0
 24 25  1  0
 25 26  2  0
 26 27  1  0
 26 28  1  0
 28 29  1  0
 28 30  2  0
 10 11  1  0
 10 15  2  0
 11 12  2  0
 12 13  1  0
 13 14  2  0
 14 15  1  0
M  END
>  <minimizedAffinity>  (110) 
-9.17409

$$$$
data/200k_reference_output/data/smiles/10183.pdb
     RDKit          3D

 25 27  0  0  0  0  0  0  0  0999 V2000
   69.4245   47.6951   56.0773 C   0  0  0  0  0  0  0  0  0  0  0  0
   68.4913   48.6674   56.6459 C   0  0  0  0  0  0  0  0  0  0  0  0
   68.7371   50.0106   56.3634 C   0  0  0  0  0  0  0  0  0  0  0  0
   67.9385   51.0234   56.8481 C   0  0  0  0  0  0  0  0  0  0  0  0
   66.8473   50.7464   57.6440 C   0  0  0  0  0  0  0  0  0  0  0  0
   66.5949   49.4230   57.9303 C   0  0  0  0  0  0  0  0  0  0  0  0
   67.4081   48.3911   57.4379 C   0  0  0  0  0  0  0  0  0  0  0  0
   69.0085   47.3720   54.6776 C   0  0  0  0  0  0  0  0  0  0  0  0
   68.0779   46.4055   54.3899 C   0  0  0  0  0  0  0  0  0  0  0  0
   67.6946   46.0884   53.1056 C   0  0  0  0  0  0  0  0  0  0  0  0
   68.2461   46.7468   52.0312 C   0  0  0  0  0  0  0  0  0  0  0  0
   69.1845   47.7230   52.2868 C   0  0  0  0  0  0  0  0  0  0  0  0
   69.5590   48.0316   53.5726 C   0  0  0  0  0  0  0  0  0  0  0  0
   69.2233   45.3936   56.6397 O   0  0  0  0  0  0  0  0  0  0  0  0
   69.7625   46.5380   56.8898 C   0  0  0  0  0  0  0  0  0  0  0  0
   70.6644   46.4966   57.9965 N   0  0  0  0  0  0  0  0  0  0  0  0
   70.9036   45.2855   58.7010 C   0  0  0  0  0  0  0  0  0  0  0  0
   72.4006   44.7169   58.9390 S   0  0  0  0  0  0  0  0  0  0  0  0
   69.7998   44.5667   59.2003 N   0  0  0  0  0  0  0  0  0  0  0  0
   69.8371   43.1248   59.3143 C   0  0  0  0  0  0  0  0  0  0  0  0
   69.4903   42.4323   58.0398 C   0  0  1  0  0  0  0  0  0  0  0  0
   69.4412   40.9358   58.3307 C   0  0  0  0  0  0  0  0  0  0  0  0
   68.2121   40.4765   57.5853 C   0  0  0  0  0  0  0  0  0  0  0  0
   67.8608   41.6624   56.7427 C   0  0  0  0  0  0  0  0  0  0  0  0
   68.2440   42.7560   57.5499 O   0  0  0  0  0  0  0  0  0  0  0  0
 14 15  2  0
 15 16  1  0
 15  1  1  0
 16 17  1  0
 17 18  2  0
 17 19  1  0
 19 20  1  0
 21 20  1  1
 21 22  1  0
 21 25  1  0
 22 23  1  0
 23 24  1  0
 24 25  1  0
  1  2  1  0
  1  8  1  0
  2  3  2  0
  2  7  1  0
  3  4  1  0
  4  5  2  0
  5  6  1  0
  6  7  2  0
  8  9  2  0
  8 13  1  0
  9 10  1  0
 10 11  2  0
 11 12  1  0
 12 13  2  0
M  END
>  <minimizedAffinity>  (111) 
-8.59388

$$$$
data/200k_reference_output/data/smiles/10203.pdb
     RDKit          3D

 17 18  0  0  0  0  0  0  0  0999 V2000
   68.4509   46.4709   55.3699 C   0  0  0  0  0  0  0  0  0  0  0  0
   70.3646   48.6439   51.4051 N   0  0  0  0  0  0  0  0  0  0  0  0
   69.4055   47.7258   51.9692 C   0  0  0  0  0  0  0  0  0  0  0  0
   69.3551   47.5216   53.2981 N   0  0  0  0  0  0  0  0  0  0  0  0
   68.4896   46.6835   53.8931 C   0  0  0  0  0  0  0  0  0  0  0  0
   67.6188   46.0121   53.0456 C   0  0  0  0  0  0  0  0  0  0  0  0
   67.6716   46.2230   51.6866 C   0  0  0  0  0  0  0  0  0  0  0  0
   66.8865   45.6189   50.9172 O   0  0  0  0  0  0  0  0  0  0  0  0
   68.5563   47.0722   51.1429 N   0  0  0  0  0  0  0  0  0  0  0  0
   69.3653   47.5106   55.9801 C   0  0  0  0  0  0  0  0  0  0  0  0
   68.6517   48.6658   56.5131 C   0  0  0  0  0  0  0  0  0  0  0  0
   67.5623   48.5483   57.3475 C   0  0  0  0  0  0  0  0  0  0  0  0
   66.9079   49.6863   57.8359 C   0  0  0  0  0  0  0  0  0  0  0  0
   67.3552   50.9477   57.4799 C   0  0  0  0  0  0  0  0  0  0  0  0
   68.4475   51.0742   56.6442 C   0  0  0  0  0  0  0  0  0  0  0  0
   69.0363   52.8325   56.1757 Br  0  0  0  0  0  0  0  0  0  0  0  0
   69.0615   49.9380   56.1866 C   0  0  0  0  0  0  0  0  0  0  0  0
  2  3  1  0
  3  4  2  0
  3  9  1  0
  4  5  1  0
  5  1  1  0
  5  6  2  0
  1 10  1  0
 10 11  1  0
 11 12  2  0
 11 17  1  0
 12 13  1  0
 13 14  2  0
 14 15  1  0
 15 16  1  0
 15 17  2  0
  6  7  1  0
  7  8  2  0
  7  9  1  0
M  END
>  <minimizedAffinity>  (112) 
-8.51562

$$$$
data/200k_reference_output/data/smiles/10245.pdb
     RDKit          3D

 25 27  0  0  0  0  0  0  0  0999 V2000
   70.2045   43.9445   57.4711 C   0  0  0  0  0  0  0  0  0  0  0  0
   69.4294   44.6870   56.6506 C   0  0  0  0  0  0  0  0  0  0  0  0
   69.5684   46.0190   56.9497 N   0  0  0  0  0  0  0  0  0  0  0  0
   70.4351   46.1084   57.9654 C   0  0  0  0  0  0  0  0  0  0  0  0
   70.9425   47.1855   58.6700 C   0  0  0  0  0  0  0  0  0  0  0  0
   71.8553   47.0496   59.7166 C   0  0  0  0  0  0  0  0  0  0  0  0
   72.2747   45.7855   60.0700 C   0  0  0  0  0  0  0  0  0  0  0  0
   73.5199   45.5782   61.4968 Br  0  0  0  0  0  0  0  0  0  0  0  0
   71.7665   44.7142   59.3662 C   0  0  0  0  0  0  0  0  0  0  0  0
   70.8640   44.8492   58.3309 C   0  0  0  0  0  0  0  0  0  0  0  0
   68.7603   47.3051   56.1310 S   0  0  0  0  0  0  0  0  0  0  0  0
   69.4755   48.6073   56.4044 O   0  0  0  0  0  0  0  0  0  0  0  0
   67.3607   47.4430   56.6657 O   0  0  0  0  0  0  0  0  0  0  0  0
   68.6671   47.0628   54.4090 C   0  0  0  0  0  0  0  0  0  0  0  0
   67.8532   46.0351   53.9301 C   0  0  0  0  0  0  0  0  0  0  0  0
   67.7153   45.7812   52.5819 C   0  0  0  0  0  0  0  0  0  0  0  0
   68.3934   46.5555   51.6645 C   0  0  0  0  0  0  0  0  0  0  0  0
   69.1961   47.5707   52.1576 C   0  0  0  0  0  0  0  0  0  0  0  0
   69.3338   47.8238   53.4926 C   0  0  0  0  0  0  0  0  0  0  0  0
   69.5020   41.6891   57.5746 N   0  0  0  0  0  0  0  0  0  0  0  0
   70.4411   42.5217   57.5989 C   0  0  0  0  0  0  0  0  0  0  0  0
   68.1853   41.9920   57.4319 N   0  0  0  0  0  0  0  0  0  0  0  0
   66.7579   42.5912   55.6875 N   0  0  0  0  0  0  0  0  0  0  0  0
   67.4943   41.6767   56.2181 C   0  0  0  0  0  0  0  0  0  0  0  0
   67.6720   40.3810   55.6872 N   0  0  0  0  0  0  0  0  0  0  0  0
 23 24  2  0
 24 25  1  0
 24 22  1  0
 22 20  1  0
 20 21  2  0
 21  1  1  0
  1  2  2  0
  1 10  1  0
  2  3  1  0
  3 11  1  0
  3  4  1  0
 11 12  2  0
 11 13  2  0
 11 14  1  0
 14 15  2  0
 14 19  1  0
 15 16  1  0
 16 17  2  0
 17 18  1  0
 18 19  2  0
  4  5  1  0
  4 10  2  0
  5  6  2  0
  6  7  1  0
  7  8  1  0
  7  9  2  0
  9 10  1  0
M  CHG  1  23   1
M  END
>  <minimizedAffinity>  (113) 
-8.62968

$$$$
data/200k_reference_output/data/smiles/10450.pdb
     RDKit          3D

 25 27  0  0  0  0  0  0  0  0999 V2000
   68.9932   47.8897   56.7217 S   0  0  0  0  0  0  0  0  0  0  0  0
   69.2812   49.3525   56.9024 O   0  0  0  0  0  0  0  0  0  0  0  0
   67.7244   47.5758   57.4621 O   0  0  0  0  0  0  0  0  0  0  0  0
   68.8151   47.5811   55.0233 C   0  0  0  0  0  0  0  0  0  0  0  0
   69.6282   48.2875   54.1455 C   0  0  0  0  0  0  0  0  0  0  0  0
   69.4586   48.0171   52.8037 C   0  0  0  0  0  0  0  0  0  0  0  0
   68.5357   47.0978   52.3502 C   0  0  0  0  0  0  0  0  0  0  0  0
   68.1815   46.6624   51.1461 N   0  0  0  0  0  0  0  0  0  0  0  0
   67.2102   45.7468   51.2963 C   0  0  0  0  0  0  0  0  0  0  0  0
   66.6172   45.1052   50.3775 O   0  0  0  0  0  0  0  0  0  0  0  0
   66.9747   45.6235   52.5657 O   0  0  0  0  0  0  0  0  0  0  0  0
   67.7489   46.4207   53.2592 C   0  0  0  0  0  0  0  0  0  0  0  0
   67.8896   46.6650   54.6121 C   0  0  0  0  0  0  0  0  0  0  0  0
   71.2180   44.7742   58.0185 N   0  0  0  0  0  0  0  0  0  0  0  0
   70.1660   45.5156   57.4502 C   0  0  0  0  0  0  0  0  0  0  0  0
   69.1788   44.9058   56.9969 O   0  0  0  0  0  0  0  0  0  0  0  0
   70.2510   46.9231   57.4064 N   0  0  0  0  0  0  0  0  0  0  0  0
   68.9433   40.3749   58.4410 C   0  0  0  0  0  0  0  0  0  0  0  0
   70.1702   41.2090   58.3240 C   0  0  0  0  0  0  0  0  0  0  0  0
   71.3795   40.5463   58.3174 C   0  0  0  0  0  0  0  0  0  0  0  0
   72.5237   41.3082   58.2094 C   0  0  0  0  0  0  0  0  0  0  0  0
   72.4527   42.6912   58.1127 C   0  0  0  0  0  0  0  0  0  0  0  0
   73.6994   43.4750   57.9996 C   0  0  0  0  0  0  0  0  0  0  0  0
   71.2460   43.3592   58.1196 C   0  0  0  0  0  0  0  0  0  0  0  0
   70.1017   42.5848   58.2278 C   0  0  0  0  0  0  0  0  0  0  0  0
 18 19  1  0
 19 20  2  0
 19 25  1  0
 20 21  1  0
 21 22  2  0
 22 23  1  0
 22 24  1  0
 24 14  1  0
 24 25  2  0
 14 15  1  0
 15 16  2  0
 15 17  1  0
 17  1  1  0
  1  2  2  0
  1  3  2  0
  1  4  1  0
  4  5  2  0
  4 13  1  0
  5  6  1  0
  6  7  2  0
  7  8  1  0
  7 12  1  0
  8  9  1  0
  9 10  2  0
  9 11  1  0
 11 12  1  0
 12 13  2  0
M  END
>  <minimizedAffinity>  (114) 
-8.56869

$$$$
data/200k_reference_output/data/smiles/10589.pdb
     RDKit          3D

 26 28  0  0  0  0  0  0  0  0999 V2000
   69.1096   45.5200   56.8529 N   0  0  0  0  0  0  0  0  0  0  0  0
   69.5529   46.8402   57.0386 C   0  0  0  0  0  0  0  0  0  0  0  0
   70.6090   47.0153   57.7073 O   0  0  0  0  0  0  0  0  0  0  0  0
   69.3392   43.0730   57.1489 C   0  0  0  0  0  0  0  0  0  0  0  0
   68.2908   42.9410   56.4468 O   0  0  0  0  0  0  0  0  0  0  0  0
   69.7770   44.3951   57.3688 N   0  0  0  0  0  0  0  0  0  0  0  0
   71.2774   39.5764   58.7084 C   0  0  0  0  0  0  0  0  0  0  0  0
   69.9218   39.6152   58.4531 C   0  0  0  0  0  0  0  0  0  0  0  0
   69.3069   40.7444   57.9506 C   0  0  0  0  0  0  0  0  0  0  0  0
   70.0256   41.8906   57.6820 C   0  0  0  0  0  0  0  0  0  0  0  0
   71.3757   41.8533   57.9362 C   0  0  0  0  0  0  0  0  0  0  0  0
   71.9977   40.7221   58.4404 C   0  0  0  0  0  0  0  0  0  0  0  0
   71.9865   37.2582   58.1841 C   0  0  0  0  0  0  0  0  0  0  0  0
   71.9484   38.3615   59.2498 C   0  0  0  0  0  0  0  0  0  0  0  0
   68.8248   48.0251   56.4786 C   0  0  0  0  0  0  0  0  0  0  0  0
   69.3974   48.4159   55.2327 N   0  0  0  0  0  0  0  0  0  0  0  0
   70.2829   49.4252   55.1905 C   0  0  0  0  0  0  0  0  0  0  0  0
   70.6108   50.0324   56.2660 O   0  0  0  0  0  0  0  0  0  0  0  0
   70.8835   49.8665   54.0297 C   0  0  0  0  0  0  0  0  0  0  0  0
   70.5613   49.2481   52.8678 N   0  0  0  0  0  0  0  0  0  0  0  0
   69.6837   48.2384   52.8690 C   0  0  0  0  0  0  0  0  0  0  0  0
   69.3773   47.6328   51.6774 C   0  0  0  0  0  0  0  0  0  0  0  0
   68.4726   46.5930   51.6710 C   0  0  0  0  0  0  0  0  0  0  0  0
   67.8914   46.1776   52.8491 C   0  0  0  0  0  0  0  0  0  0  0  0
   68.1996   46.7863   54.0467 C   0  0  0  0  0  0  0  0  0  0  0  0
   69.1037   47.8231   54.0418 C   0  0  0  0  0  0  0  0  0  0  0  0
 13 14  1  0
 14  7  1  0
  7  8  2  0
  7 12  1  0
  8  9  1  0
  9 10  2  0
 10  4  1  0
 10 11  1  0
  4  5  2  0
  4  6  1  0
  6  1  1  0
  1  2  1  0
  2  3  2  0
  2 15  1  0
 15 16  1  0
 16 17  1  0
 16 26  1  0
 17 18  2  0
 17 19  1  0
 19 20  2  0
 20 21  1  0
 21 22  1  0
 21 26  2  0
 22 23  2  0
 23 24  1  0
 24 25  2  0
 25 26  1  0
 11 12  2  0
M  END
>  <minimizedAffinity>  (115) 
-8.61646

$$$$
data/200k_reference_output/data/smiles/10748.pdb
     RDKit          3D

 23 24  0  0  0  0  0  0  0  0999 V2000
   68.4541   51.0330   56.6690 C   0  0  0  0  0  0  0  0  0  0  0  0
   67.3079   51.0491   57.4353 C   0  0  0  0  0  0  0  0  0  0  0  0
   66.6819   49.8981   57.8691 C   0  0  0  0  0  0  0  0  0  0  0  0
   67.2144   48.6577   57.5275 C   0  0  0  0  0  0  0  0  0  0  0  0
   68.3580   48.6179   56.7635 C   0  0  0  0  0  0  0  0  0  0  0  0
   68.9566   49.7775   56.3485 C   0  0  0  0  0  0  0  0  0  0  0  0
   68.8782   52.4257   54.7287 C   0  0  0  0  0  0  0  0  0  0  0  0
   69.1269   52.2701   56.2030 C   0  0  2  0  0  0  0  0  0  0  0  0
   70.5657   52.1808   56.5331 C   0  0  0  0  0  0  0  0  0  0  0  0
   71.0346   52.1556   57.6978 O   0  0  0  0  0  0  0  0  0  0  0  0
   71.4940   52.1195   55.4602 N   0  0  0  0  0  0  0  0  0  0  0  0
   72.8613   52.0334   55.7375 N   0  0  0  0  0  0  0  0  0  0  0  0
   73.7348   51.1059   55.1259 C   0  0  0  0  0  0  0  0  0  0  0  0
   73.2325   50.3148   54.2799 O   0  0  0  0  0  0  0  0  0  0  0  0
   75.1364   51.0403   55.4303 N   0  0  0  0  0  0  0  0  0  0  0  0
   75.9446   50.1306   54.8175 O   0  0  0  0  0  0  0  0  0  0  0  0
   68.9748   47.3289   56.3659 C   0  0  0  0  0  0  0  0  0  0  0  0
   68.7838   47.1179   54.9016 C   0  0  0  0  0  0  0  0  0  0  0  0
   68.0183   46.0570   54.4632 C   0  0  0  0  0  0  0  0  0  0  0  0
   67.8548   45.8813   53.0935 C   0  0  0  0  0  0  0  0  0  0  0  0
   68.4365   46.7358   52.1792 C   0  0  0  0  0  0  0  0  0  0  0  0
   69.1967   47.7876   52.6292 C   0  0  0  0  0  0  0  0  0  0  0  0
   69.3635   47.9697   53.9888 C   0  0  0  0  0  0  0  0  0  0  0  0
  8  7  1  6
  8  9  1  0
  8  1  1  0
  9 10  2  0
  9 11  1  0
 11 12  1  0
 12 13  1  0
 13 14  2  0
 13 15  1  0
 15 16  1  0
  1  2  2  0
  1  6  1  0
  2  3  1  0
  3  4  2  0
  4  5  1  0
  5 17  1  0
  5  6  2  0
 17 18  1  0
 18 19  2  0
 18 23  1  0
 19 20  1  0
 20 21  2  0
 21 22  1  0
 22 23  2  0
M  END
>  <minimizedAffinity>  (116) 
-8.51082

$$$$
data/200k_reference_output/data/smiles/10776.pdb
     RDKit          3D

 25 28  0  0  0  0  0  0  0  0999 V2000
   76.3805   34.4200   55.0778 C   0  0  0  0  0  0  0  0  0  0  0  0
   75.4082   35.2144   55.7959 N   0  0  2  0  0  0  0  0  0  0  0  0
   75.5210   34.9756   57.2182 C   0  0  0  0  0  0  0  0  0  0  0  0
   74.3838   35.6069   57.9466 C   0  0  0  0  0  0  0  0  0  0  0  0
   73.2241   35.8808   57.4199 C   0  0  0  0  0  0  0  0  0  0  0  0
   72.9868   35.5456   55.9743 C   0  0  0  0  0  0  0  0  0  0  0  0
   74.0928   34.7255   55.4100 C   0  0  0  0  0  0  0  0  0  0  0  0
   72.1343   36.4988   58.1600 C   0  0  0  0  0  0  0  0  0  0  0  0
   71.5084   35.7984   59.1893 C   0  0  0  0  0  0  0  0  0  0  0  0
   70.4684   36.3201   59.9318 C   0  0  0  0  0  0  0  0  0  0  0  0
   70.0000   37.5903   59.6727 C   0  0  0  0  0  0  0  0  0  0  0  0
   70.6059   38.2956   58.6613 C   0  0  0  0  0  0  0  0  0  0  0  0
   71.6622   37.7600   57.9102 C   0  0  0  0  0  0  0  0  0  0  0  0
   77.3151   35.2286   54.2509 C   0  0  0  0  0  0  0  0  0  0  0  0
   76.6963   36.0860   53.2034 C   0  0  0  0  0  0  0  0  0  0  0  0
   74.5450   33.4217   50.0262 O   0  0  0  0  0  0  0  0  0  0  0  0
   75.5333   34.1735   50.3105 C   0  0  0  0  0  0  0  0  0  0  0  0
   75.6183   34.7141   51.5379 N   0  0  0  0  0  0  0  0  0  0  0  0
   76.6648   35.5154   51.8507 C   0  0  0  0  0  0  0  0  0  0  0  0
   77.6044   35.7555   50.9194 N   0  0  0  0  0  0  0  0  0  0  0  0
   77.5500   35.2221   49.6639 C   0  0  0  0  0  0  0  0  0  0  0  0
   76.4891   34.4088   49.3425 C   0  0  0  0  0  0  0  0  0  0  0  0
   76.6268   33.9438   47.9124 C   0  0  0  0  0  0  0  0  0  0  0  0
   77.4841   35.0819   47.3324 C   0  0  0  0  0  0  0  0  0  0  0  0
   78.4246   35.3116   48.4792 C   0  0  0  0  0  0  0  0  0  0  0  0
 16 17  2  0
 17 18  1  0
 17 22  1  0
 18 19  1  0
 19 15  1  0
 19 20  2  0
 15 14  1  0
 14  1  1  0
  2  1  1  6
  2  3  1  0
  2  7  1  0
  3  4  1  0
  4  5  2  0
  5  8  1  0
  5  6  1  0
  8  9  2  0
  8 13  1  0
  9 10  1  0
 10 11  2  0
 11 12  1  0
 12 13  2  0
  6  7  1  0
 20 21  1  0
 21 22  2  0
 21 25  1  0
 22 23  1  0
 23 24  1  0
 24 25  1  0
M  CHG  1   2   1
M  END
>  <minimizedAffinity>  (117) 
-8.52490

$$$$
data/200k_reference_output/data/smiles/10957.pdb
     RDKit          3D

 24 26  0  0  0  0  0  0  0  0999 V2000
   69.9374   44.0476   57.2632 C   0  0  0  0  0  0  0  0  0  0  0  0
   68.8474   43.5140   56.7228 N   0  0  0  0  0  0  0  0  0  0  0  0
   68.2210   44.4718   56.0701 N   0  0  0  0  0  0  0  0  0  0  0  0
   68.9325   45.5958   56.2133 C   0  0  0  0  0  0  0  0  0  0  0  0
   69.9666   45.3058   56.9422 O   0  0  0  0  0  0  0  0  0  0  0  0
   71.6326   44.0299   58.9156 O   0  0  0  0  0  0  0  0  0  0  0  0
   70.9610   43.3652   58.0905 C   0  0  0  0  0  0  0  0  0  0  0  0
   71.1749   41.9739   57.9483 N   0  0  0  0  0  0  0  0  0  0  0  0
   72.1469   41.2073   58.7122 C   0  0  0  0  0  0  0  0  0  0  0  0
   71.8325   39.7509   58.7476 C   0  0  0  0  0  0  0  0  0  0  0  0
   72.8806   38.8260   58.8237 C   0  0  0  0  0  0  0  0  0  0  0  0
   72.6354   37.4717   58.8631 C   0  0  0  0  0  0  0  0  0  0  0  0
   71.3258   37.0462   58.8266 C   0  0  0  0  0  0  0  0  0  0  0  0
   71.0609   35.7083   58.8639 F   0  0  0  0  0  0  0  0  0  0  0  0
   70.2658   37.9046   58.7520 C   0  0  0  0  0  0  0  0  0  0  0  0
   70.5431   39.2745   58.7122 C   0  0  0  0  0  0  0  0  0  0  0  0
   68.6479   46.9559   55.6653 C   0  0  0  0  0  0  0  0  0  0  0  0
   68.6097   46.9396   54.1763 C   0  0  0  0  0  0  0  0  0  0  0  0
   69.3948   47.8521   53.5148 C   0  0  0  0  0  0  0  0  0  0  0  0
   69.4170   47.8941   52.1371 C   0  0  0  0  0  0  0  0  0  0  0  0
   68.6574   47.0277   51.3938 C   0  0  0  0  0  0  0  0  0  0  0  0
   67.8725   46.1166   52.0819 C   0  0  0  0  0  0  0  0  0  0  0  0
   67.1083   45.2451   51.3653 F   0  0  0  0  0  0  0  0  0  0  0  0
   67.8431   46.0648   53.4566 C   0  0  0  0  0  0  0  0  0  0  0  0
  6  7  2  0
  7  8  1  0
  7  1  1  0
  8  9  1  0
  9 10  1  0
 10 11  2  0
 10 16  1  0
 11 12  1  0
 12 13  2  0
 13 14  1  0
 13 15  1  0
 15 16  2  0
  1  2  2  0
  1  5  1  0
  2  3  1  0
  3  4  2  0
  4 17  1  0
  4  5  1  0
 17 18  1  0
 18 19  2  0
 18 24  1  0
 19 20  1  0
 20 21  2  0
 21 22  1  0
 22 23  1  0
 22 24  2  0
M  END
>  <minimizedAffinity>  (118) 
-8.77806

$$$$
data/200k_reference_output/data/smiles/10974.pdb
     RDKit          3D

 24 27  0  0  0  0  0  0  0  0999 V2000
   69.0472   47.0154   54.2545 C   0  0  0  0  0  0  0  0  0  0  0  0
   68.9555   46.4737   52.9652 C   0  0  0  0  0  0  0  0  0  0  0  0
   69.1159   47.2548   51.8518 C   0  0  0  0  0  0  0  0  0  0  0  0
   69.3720   48.6014   51.9682 C   0  0  0  0  0  0  0  0  0  0  0  0
   69.5715   49.6165   51.0974 N   0  0  0  0  0  0  0  0  0  0  0  0
   69.7800   50.7435   51.7429 N   0  0  0  0  0  0  0  0  0  0  0  0
   69.7307   50.5409   53.0764 C   0  0  0  0  0  0  0  0  0  0  0  0
   69.4743   49.1933   53.2214 C   0  0  0  0  0  0  0  0  0  0  0  0
   69.3052   48.3655   54.3265 C   0  0  0  0  0  0  0  0  0  0  0  0
   69.9033   51.5236   54.1345 C   0  0  0  0  0  0  0  0  0  0  0  0
   71.1629   51.9369   54.5046 C   0  0  0  0  0  0  0  0  0  0  0  0
   71.3632   52.8654   55.5109 C   0  0  0  0  0  0  0  0  0  0  0  0
   70.3003   53.4185   56.1882 C   0  0  0  0  0  0  0  0  0  0  0  0
   70.4899   54.3397   57.1881 F   0  0  0  0  0  0  0  0  0  0  0  0
   69.0311   53.0158   55.8299 C   0  0  0  0  0  0  0  0  0  0  0  0
   68.8403   52.0860   54.8209 C   0  0  0  0  0  0  0  0  0  0  0  0
   67.7814   45.5738   55.6057 O   0  0  0  0  0  0  0  0  0  0  0  0
   68.8734   46.1616   55.4171 C   0  0  0  0  0  0  0  0  0  0  0  0
   69.9092   45.9647   56.3628 N   0  0  0  0  0  0  0  0  0  0  0  0
   69.7278   45.1207   57.5063 C   0  0  0  0  0  0  0  0  0  0  0  0
   69.9511   45.3995   58.8015 N   0  0  0  0  0  0  0  0  0  0  0  0
   69.6477   44.3223   59.5275 N   0  0  0  0  0  0  0  0  0  0  0  0
   69.2360   43.3690   58.6999 N   0  0  0  0  0  0  0  0  0  0  0  0
   69.2854   43.8552   57.4726 N   0  0  0  0  0  0  0  0  0  0  0  0
 17 18  2  0
 18 19  1  0
 18  1  1  0
 19 20  1  0
 20 21  2  0
 20 24  1  0
 21 22  1  0
 22 23  2  0
 23 24  1  0
  1  2  2  0
  1  9  1  0
  2  3  1  0
  3  4  2  0
  4  5  1  0
  4  8  1  0
  5  6  1  0
  6  7  2  0
  7 10  1  0
  7  8  1  0
 10 11  2  0
 10 16  1  0
 11 12  1  0
 12 13  2  0
 13 14  1  0
 13 15  1  0
 15 16  2  0
  8  9  2  0
M  END
>  <minimizedAffinity>  (119) 
-8.72934

$$$$
data/200k_reference_output/data/smiles/11038.pdb
     RDKit          3D

 24 26  0  0  0  0  0  0  0  0999 V2000
   70.8639   51.1581   54.3485 C   0  0  0  0  0  0  0  0  0  0  0  0
   69.8067   49.1279   56.3604 O   0  0  0  0  0  0  0  0  0  0  0  0
   69.7258   48.9656   55.1109 C   0  0  0  0  0  0  0  0  0  0  0  0
   69.1263   47.7980   54.4590 C   0  0  0  0  0  0  0  0  0  0  0  0
   68.5358   46.6477   54.9324 C   0  0  0  0  0  0  0  0  0  0  0  0
   68.0384   45.6747   54.0915 C   0  0  0  0  0  0  0  0  0  0  0  0
   68.1395   45.8667   52.7311 C   0  0  0  0  0  0  0  0  0  0  0  0
   68.7274   47.0128   52.2507 C   0  0  0  0  0  0  0  0  0  0  0  0
   69.2257   47.9894   53.0871 C   0  0  0  0  0  0  0  0  0  0  0  0
   69.8952   49.2903   52.8768 C   0  0  0  0  0  0  0  0  0  0  0  0
   70.1517   49.7884   51.7512 O   0  0  0  0  0  0  0  0  0  0  0  0
   70.1954   49.8785   54.1367 N   0  0  0  0  0  0  0  0  0  0  0  0
   72.3028   50.9181   54.7316 C   0  0  0  0  0  0  0  0  0  0  0  0
   73.1222   50.3535   53.9480 N   0  0  0  0  0  0  0  0  0  0  0  0
   74.4622   50.1003   54.2358 N   0  0  0  0  0  0  0  0  0  0  0  0
   75.0391   50.2690   55.5059 C   0  0  0  0  0  0  0  0  0  0  0  0
   74.3916   49.4722   56.7769 S   0  0  0  0  0  0  0  0  0  0  0  0
   76.1625   51.1074   55.7145 N   0  0  0  0  0  0  0  0  0  0  0  0
   77.4713   50.5696   55.7977 C   0  0  0  0  0  0  0  0  0  0  0  0
   78.5279   51.2342   56.3962 C   0  0  0  0  0  0  0  0  0  0  0  0
   79.8072   50.6941   56.4717 C   0  0  0  0  0  0  0  0  0  0  0  0
   80.0536   49.4512   55.9363 C   0  0  0  0  0  0  0  0  0  0  0  0
   79.0166   48.7609   55.3314 C   0  0  0  0  0  0  0  0  0  0  0  0
   77.7536   49.3177   55.2685 C   0  0  0  0  0  0  0  0  0  0  0  0
  2  3  2  0
  3  4  1  0
  3 12  1  0
  4  5  2  0
  4  9  1  0
  5  6  1  0
  6  7  2  0
  7  8  1  0
  8  9  2  0
  9 10  1  0
 10 11  2  0
 10 12  1  0
 12  1  1  0
  1 13  1  0
 13 14  2  0
 14 15  1  0
 15 16  1  0
 16 17  2  0
 16 18  1  0
 18 19  1  0
 19 20  2  0
 19 24  1  0
 20 21  1  0
 21 22  2  0
 22 23  1  0
 23 24  2  0
M  END
>  <minimizedAffinity>  (120) 
-8.57279

$$$$
data/200k_reference_output/data/smiles/11058.pdb
     RDKit          3D

 29 32  0  0  0  0  0  0  0  0999 V2000
   70.8153   45.0475   58.0240 C   0  0  0  0  0  0  0  0  0  0  0  0
   72.1841   45.4332   58.1325 C   0  0  0  0  0  0  0  0  0  0  0  0
   73.3131   44.9297   58.0791 C   0  0  0  0  0  0  0  0  0  0  0  0
   73.1521   43.3997   57.8107 C   0  0  0  0  0  0  0  0  0  0  0  0
   74.4006   42.7855   57.7472 F   0  0  0  0  0  0  0  0  0  0  0  0
   72.1306   43.0768   57.7278 C   0  0  0  0  0  0  0  0  0  0  0  0
   70.6870   43.5727   57.7688 C   0  0  0  0  0  0  0  0  0  0  0  0
   69.6775   42.9176   57.6034 F   0  0  0  0  0  0  0  0  0  0  0  0
   71.8369   41.5178   58.1418 C   0  0  0  0  0  0  0  0  0  0  0  0
   71.6226   40.3946   58.4561 C   0  0  0  0  0  0  0  0  0  0  0  0
   71.3604   38.9824   58.8258 C   0  0  0  0  0  0  0  0  0  0  0  0
   70.4762   38.7002   59.8057 C   0  0  0  0  0  0  0  0  0  0  0  0
   70.1964   37.4115   60.1795 N   0  0  0  0  0  0  0  0  0  0  0  0
   70.8608   36.4500   59.5063 C   0  0  0  0  0  0  0  0  0  0  0  0
   70.7974   35.1170   59.6394 N   0  0  0  0  0  0  0  0  0  0  0  0
   71.6167   34.5456   58.7679 N   0  0  0  0  0  0  0  0  0  0  0  0
   72.2302   35.5283   58.0507 C   0  0  0  0  0  0  0  0  0  0  0  0
   71.7514   36.7247   58.5183 C   0  0  0  0  0  0  0  0  0  0  0  0
   72.0524   38.0382   58.1209 C   0  0  0  0  0  0  0  0  0  0  0  0
   69.7141   45.8141   58.1764 N   0  0  0  0  0  0  0  0  0  0  0  0
   68.1773   47.9041   57.7489 O   0  0  0  0  0  0  0  0  0  0  0  0
   69.2689   47.1103   57.0807 S   0  0  0  0  0  0  0  0  0  0  0  0
   70.4492   48.0345   56.8865 O   0  0  0  0  0  0  0  0  0  0  0  0
   68.7536   46.5398   55.5356 C   0  0  0  0  0  0  0  0  0  0  0  0
   68.9123   47.3012   54.3517 C   0  0  0  0  0  0  0  0  0  0  0  0
   68.4800   46.8141   53.1523 C   0  0  0  0  0  0  0  0  0  0  0  0
   67.8860   45.5968   53.0405 C   0  0  0  0  0  0  0  0  0  0  0  0
   67.7257   44.8430   54.2097 C   0  0  0  0  0  0  0  0  0  0  0  0
   68.1663   45.3613   55.3595 N   0  0  0  0  0  0  0  0  0  0  0  0
 21 22  2  0
 22 23  2  0
 22 20  1  0
 22 24  1  0
 20  1  1  0
  1  2  2  0
  1  7  1  0
  2  3  1  0
  3  4  2  0
  4  5  1  0
  4  6  1  0
  6  9  1  0
  6  7  2  0
  9 10  3  0
 10 11  1  0
 11 12  2  0
 11 19  1  0
 12 13  1  0
 13 14  2  0
 14 15  1  0
 14 18  1  0
 15 16  1  0
 16 17  2  0
 17 18  1  0
 18 19  2  0
  7  8  1  0
 24 25  2  0
 24 29  1  0
 25 26  1  0
 26 27  2  0
 27 28  1  0
 28 29  2  0
M  END
>  <minimizedAffinity>  (121) 
-8.95767

$$$$
data/200k_reference_output/data/smiles/11073.pdb
     RDKit          3D

 25 26  0  0  0  0  0  0  0  0999 V2000
   73.5601   50.2954   53.6214 O   0  0  0  0  0  0  0  0  0  0  0  0
   72.9373   50.7718   54.5917 C   0  0  0  0  0  0  0  0  0  0  0  0
   73.7262   51.2650   55.6693 N   0  0  0  0  0  0  0  0  0  0  0  0
   75.1252   51.2406   55.6892 N   0  0  0  0  0  0  0  0  0  0  0  0
   75.8806   50.0860   55.9998 C   0  0  0  0  0  0  0  0  0  0  0  0
   75.2199   49.0476   56.2646 O   0  0  0  0  0  0  0  0  0  0  0  0
   77.3339   50.0245   56.0305 C   0  0  0  0  0  0  0  0  0  0  0  0
   78.0019   49.0954   55.2619 C   0  0  0  0  0  0  0  0  0  0  0  0
   79.3831   48.9932   55.2544 C   0  0  0  0  0  0  0  0  0  0  0  0
   80.1130   49.8557   56.0451 C   0  0  0  0  0  0  0  0  0  0  0  0
   81.3828   49.7872   56.0598 O   0  0  0  0  0  0  0  0  0  0  0  0
   79.4604   50.7610   56.7939 N   0  0  0  0  0  0  0  0  0  0  0  0
   78.1022   50.8634   56.8041 C   0  0  0  0  0  0  0  0  0  0  0  0
   71.4555   50.8066   54.5889 C   0  0  0  0  0  0  0  0  0  0  0  0
   70.9763   50.2688   53.4083 O   0  0  0  0  0  0  0  0  0  0  0  0
   70.2782   49.1224   53.1887 C   0  0  0  0  0  0  0  0  0  0  0  0
   70.0794   48.5983   51.9366 C   0  0  0  0  0  0  0  0  0  0  0  0
   69.3567   47.4143   51.7497 C   0  0  0  0  0  0  0  0  0  0  0  0
   68.8342   46.7611   52.8363 C   0  0  0  0  0  0  0  0  0  0  0  0
   69.0209   47.2686   54.1047 C   0  0  0  0  0  0  0  0  0  0  0  0
   69.7368   48.4352   54.2546 C   0  0  0  0  0  0  0  0  0  0  0  0
   68.4320   46.5171   55.2428 C   0  0  0  0  0  0  0  0  0  0  0  0
   69.4213   46.1654   56.1382 F   0  0  0  0  0  0  0  0  0  0  0  0
   67.5105   47.2836   55.9251 F   0  0  0  0  0  0  0  0  0  0  0  0
   67.8886   45.3600   54.7348 F   0  0  0  0  0  0  0  0  0  0  0  0
  1  2  2  0
  2 14  1  0
  2  3  1  0
 14 15  1  0
 15 16  1  0
 16 17  2  0
 16 21  1  0
 17 18  1  0
 18 19  2  0
 19 20  1  0
 20 22  1  0
 20 21  2  0
 22 23  1  0
 22 24  1  0
 22 25  1  0
  3  4  1  0
  4  5  1  0
  5  6  2  0
  5  7  1  0
  7  8  1  0
  7 13  2  0
  8  9  2  0
  9 10  1  0
 10 11  2  0
 10 12  1  0
 12 13  1  0
M  END
>  <minimizedAffinity>  (122) 
-8.62516

$$$$
data/200k_reference_output/data/smiles/11110.pdb
     RDKit          3D

 25 29  0  0  0  0  0  0  0  0999 V2000
   70.8289   51.2729   58.9305 O   0  0  0  0  0  0  0  0  0  0  0  0
   71.0802   51.3203   57.6932 C   0  0  0  0  0  0  0  0  0  0  0  0
   71.9152   52.3087   57.2050 C   0  0  0  0  0  0  0  0  0  0  0  0
   72.4857   53.2595   58.0581 C   0  0  0  0  0  0  0  0  0  0  0  0
   73.3147   54.2356   57.5450 C   0  0  0  0  0  0  0  0  0  0  0  0
   73.6134   54.3204   56.2083 C   0  0  0  0  0  0  0  0  0  0  0  0
   73.0332   53.3650   55.3819 C   0  0  0  0  0  0  0  0  0  0  0  0
   72.2022   52.3783   55.8584 C   0  0  0  0  0  0  0  0  0  0  0  0
   71.6295   51.4258   55.0059 C   0  0  0  0  0  0  0  0  0  0  0  0
   71.9067   51.5145   53.8048 O   0  0  0  0  0  0  0  0  0  0  0  0
   70.7982   50.4414   55.4916 C   0  0  0  0  0  0  0  0  0  0  0  0
   70.5131   50.3785   56.8515 C   0  0  0  0  0  0  0  0  0  0  0  0
   69.7210   49.3665   56.9986 O   0  0  0  0  0  0  0  0  0  0  0  0
   69.4501   48.7501   55.8775 C   0  0  0  0  0  0  0  0  0  0  0  0
   68.6706   47.6489   55.5631 C   0  0  0  0  0  0  0  0  0  0  0  0
   68.0434   47.0302   56.4671 O   0  0  0  0  0  0  0  0  0  0  0  0
   68.5700   47.2148   54.2536 C   0  0  0  0  0  0  0  0  0  0  0  0
   67.7956   46.1160   53.9165 C   0  0  0  0  0  0  0  0  0  0  0  0
   67.6731   45.6567   52.6235 C   0  0  0  0  0  0  0  0  0  0  0  0
   68.3653   46.3466   51.6566 C   0  0  0  0  0  0  0  0  0  0  0  0
   69.1463   47.4422   51.9346 C   0  0  0  0  0  0  0  0  0  0  0  0
   69.2461   47.8746   53.2467 C   0  0  0  0  0  0  0  0  0  0  0  0
   70.0276   48.9810   53.5666 C   0  0  0  0  0  0  0  0  0  0  0  0
   70.6210   49.5514   52.6458 O   0  0  0  0  0  0  0  0  0  0  0  0
   70.1247   49.4100   54.8723 C   0  0  0  0  0  0  0  0  0  0  0  0
  1  2  2  0
  2  3  1  0
  2 12  1  0
  3  4  2  0
  3  8  1  0
  4  5  1  0
  5  6  2  0
  6  7  1  0
  7  8  2  0
  8  9  1  0
  9 10  2  0
  9 11  1  0
 11 12  2  0
 11 25  1  0
 12 13  1  0
 13 14  1  0
 14 15  1  0
 14 25  2  0
 15 16  2  0
 15 17  1  0
 17 18  1  0
 17 22  2  0
 18 19  2  0
 19 20  1  0
 20 21  2  0
 21 22  1  0
 22 23  1  0
 23 24  2  0
 23 25  1  0
M  END
>  <minimizedAffinity>  (123) 
-8.68339

$$$$
data/200k_reference_output/data/smiles/11128.pdb
     RDKit          3D

 26 28  0  0  0  0  0  0  0  0999 V2000
   67.7986   43.4880   55.7378 N   0  0  0  0  0  0  0  0  0  0  0  0
   66.7403   42.7935   55.3436 N   0  0  0  0  0  0  0  0  0  0  0  0
   66.6843   41.5898   55.9084 C   0  0  0  0  0  0  0  0  0  0  0  0
   67.7858   41.4928   56.7306 C   0  0  0  0  0  0  0  0  0  0  0  0
   68.4552   42.6873   56.6015 C   0  0  0  0  0  0  0  0  0  0  0  0
   69.7123   43.0548   57.2989 C   0  0  0  0  0  0  0  0  0  0  0  0
   68.6143   46.8061   52.2006 C   0  0  0  0  0  0  0  0  0  0  0  0
   68.5610   46.4104   53.6369 C   0  0  0  0  0  0  0  0  0  0  0  0
   68.8802   47.3745   54.5704 C   0  0  0  0  0  0  0  0  0  0  0  0
   68.8300   47.0094   55.9019 C   0  0  0  0  0  0  0  0  0  0  0  0
   69.1195   47.8884   56.7534 O   0  0  0  0  0  0  0  0  0  0  0  0
   68.4811   45.7541   56.2456 N   0  0  0  0  0  0  0  0  0  0  0  0
   68.1660   44.8007   55.3356 C   0  0  0  0  0  0  0  0  0  0  0  0
   68.2209   45.1776   54.0343 N   0  0  0  0  0  0  0  0  0  0  0  0
   68.1160   40.3273   57.5442 C   0  0  0  0  0  0  0  0  0  0  0  0
   68.1535   39.1604   57.0416 O   0  0  0  0  0  0  0  0  0  0  0  0
   68.4145   40.4291   58.9285 N   0  0  0  0  0  0  0  0  0  0  0  0
   68.7450   39.3353   59.7988 C   0  0  0  0  0  0  0  0  0  0  0  0
   70.2287   39.2991   60.0371 C   0  0  0  0  0  0  0  0  0  0  0  0
   70.8382   38.1124   59.3369 C   0  0  0  0  0  0  0  0  0  0  0  0
   70.6200   36.8782   59.9324 C   0  0  0  0  0  0  0  0  0  0  0  0
   71.1690   35.7707   59.3303 C   0  0  0  0  0  0  0  0  0  0  0  0
   71.9201   35.8537   58.1694 C   0  0  0  0  0  0  0  0  0  0  0  0
   72.4627   34.7439   57.5791 F   0  0  0  0  0  0  0  0  0  0  0  0
   72.1253   37.0891   57.5942 C   0  0  0  0  0  0  0  0  0  0  0  0
   71.5783   38.2095   58.1889 C   0  0  0  0  0  0  0  0  0  0  0  0
  7  8  1  0
  8  9  2  0
  8 14  1  0
  9 10  1  0
 10 11  2  0
 10 12  1  0
 12 13  1  0
 13  1  1  0
 13 14  2  0
  1  2  1  0
  1  5  1  0
  2  3  2  0
  3  4  1  0
  4 15  1  0
  4  5  2  0
 15 16  2  0
 15 17  1  0
 17 18  1  0
 18 19  1  0
 19 20  1  0
 20 21  2  0
 20 26  1  0
 21 22  1  0
 22 23  2  0
 23 24  1  0
 23 25  1  0
 25 26  2  0
  5  6  1  0
M  END
>  <minimizedAffinity>  (124) 
-8.99913

$$$$
data/200k_reference_output/data/smiles/11175.pdb
     RDKit          3D

 29 32  0  0  0  0  0  0  0  0999 V2000
   68.7087   47.1938   53.9602 C   0  0  0  0  0  0  0  0  0  0  0  0
   68.9001   46.7134   52.6791 C   0  0  0  0  0  0  0  0  0  0  0  0
   69.6274   47.4418   51.7687 C   0  0  0  0  0  0  0  0  0  0  0  0
   70.1786   48.6754   52.1374 C   0  0  0  0  0  0  0  0  0  0  0  0
   70.0045   49.1757   53.4010 C   0  0  0  0  0  0  0  0  0  0  0  0
   69.2563   48.3972   54.2905 C   0  0  0  0  0  0  0  0  0  0  0  0
   70.5796   50.4781   53.8216 C   0  0  2  0  0  0  0  0  0  0  0  0
   71.8206   50.1523   54.4087 O   0  0  0  0  0  0  0  0  0  0  0  0
   72.6204   51.2559   54.5495 C   0  0  1  0  0  0  0  0  0  0  0  0
   71.9806   52.2906   55.4600 C   0  0  1  0  0  0  0  0  0  0  0  0
   72.6632   53.4886   55.2200 O   0  0  0  0  0  0  0  0  0  0  0  0
   70.5420   52.5122   55.1562 C   0  0  2  0  0  0  0  0  0  0  0  0
   69.9219   53.1419   56.2366 O   0  0  0  0  0  0  0  0  0  0  0  0
   69.7774   51.2294   54.8175 C   0  0  1  0  0  0  0  0  0  0  0  0
   68.5539   51.6822   54.3012 O   0  0  0  0  0  0  0  0  0  0  0  0
   73.9247   50.8536   55.1856 C   0  0  0  0  0  0  0  0  0  0  0  0
   74.6014   50.0215   54.2965 O   0  0  0  0  0  0  0  0  0  0  0  0
   67.9225   46.4431   54.9714 C   0  0  0  0  0  0  0  0  0  0  0  0
   71.3766   45.3714   58.5457 C   0  0  0  0  0  0  0  0  0  0  0  0
   70.2903   45.2357   57.5313 C   0  0  0  0  0  0  0  0  0  0  0  0
   69.7240   46.2103   56.7455 C   0  0  0  0  0  0  0  0  0  0  0  0
   68.7330   45.6784   55.9206 C   0  0  0  0  0  0  0  0  0  0  0  0
   68.6961   44.3372   56.2118 C   0  0  0  0  0  0  0  0  0  0  0  0
   67.8608   43.4275   55.6129 C   0  0  0  0  0  0  0  0  0  0  0  0
   67.4548   42.2025   56.0465 C   0  0  0  0  0  0  0  0  0  0  0  0
   68.1256   41.3760   56.9464 C   0  0  0  0  0  0  0  0  0  0  0  0
   69.2739   41.6198   57.7064 C   0  0  0  0  0  0  0  0  0  0  0  0
   69.9665   42.8011   57.8205 C   0  0  0  0  0  0  0  0  0  0  0  0
   69.6953   44.0244   57.2538 C   0  0  0  0  0  0  0  0  0  0  0  0
 19 20  1  0
 20 21  2  0
 20 29  1  0
 21 22  1  0
 22 18  1  0
 22 23  2  0
 18  1  1  0
  1  2  2  0
  1  6  1  0
  2  3  1  0
  3  4  2  0
  4  5  1  0
  7  5  1  1
  5  6  2  0
  7  8  1  0
  7 14  1  0
  8  9  1  0
  9 16  1  1
  9 10  1  0
 16 17  1  0
 10 11  1  6
 10 12  1  0
 12 13  1  1
 12 14  1  0
 14 15  1  6
 23 24  1  0
 23 29  1  0
 24 25  2  0
 25 26  1  0
 26 27  2  0
 27 28  1  0
 28 29  2  0
M  END
>  <minimizedAffinity>  (125) 
-8.57751

$$$$
data/200k_reference_output/data/smiles/11225.pdb
     RDKit          3D

 24 26  0  0  0  0  0  0  0  0999 V2000
   69.7018   48.3373   54.6707 C   0  0  0  0  0  0  0  0  0  0  0  0
   69.8215   48.1309   56.0264 C   0  0  0  0  0  0  0  0  0  0  0  0
   69.3021   47.0218   56.6629 C   0  0  0  0  0  0  0  0  0  0  0  0
   68.6421   46.1022   55.8772 C   0  0  0  0  0  0  0  0  0  0  0  0
   68.5167   46.3013   54.5143 C   0  0  0  0  0  0  0  0  0  0  0  0
   67.8432   45.3577   53.7354 C   0  0  0  0  0  0  0  0  0  0  0  0
   67.7148   45.5500   52.3777 C   0  0  0  0  0  0  0  0  0  0  0  0
   68.2462   46.6677   51.7802 C   0  0  0  0  0  0  0  0  0  0  0  0
   68.9175   47.6231   52.5128 C   0  0  0  0  0  0  0  0  0  0  0  0
   69.0347   47.4084   53.8771 C   0  0  0  0  0  0  0  0  0  0  0  0
   71.5500   49.3181   53.0981 O   0  0  0  0  0  0  0  0  0  0  0  0
   70.3862   49.7644   53.9425 S   0  0  0  0  0  0  0  0  0  0  0  0
   70.9483   50.6260   55.0338 O   0  0  0  0  0  0  0  0  0  0  0  0
   69.2575   50.6096   53.0432 O   0  0  0  0  0  0  0  0  0  0  0  0
   69.4390   46.8359   58.0485 O   0  0  0  0  0  0  0  0  0  0  0  0
   71.0209   46.5007   58.6268 S   0  0  0  0  0  0  0  0  0  0  0  0
   71.1526   46.7455   60.0781 O   0  0  0  0  0  0  0  0  0  0  0  0
   71.9457   47.4266   57.8548 O   0  0  0  0  0  0  0  0  0  0  0  0
   71.4979   44.8596   58.1922 C   0  0  0  0  0  0  0  0  0  0  0  0
   70.5802   43.8522   58.0310 C   0  0  0  0  0  0  0  0  0  0  0  0
   70.9557   42.5630   57.6898 C   0  0  0  0  0  0  0  0  0  0  0  0
   72.2853   42.2647   57.5016 C   0  0  0  0  0  0  0  0  0  0  0  0
   73.2084   43.2562   57.6586 C   0  0  0  0  0  0  0  0  0  0  0  0
   72.8290   44.5321   57.9969 C   0  0  0  0  0  0  0  0  0  0  0  0
 11 12  2  0
 12 13  2  0
 12 14  1  0
 12  1  1  0
  1  2  2  0
  1 10  1  0
  2  3  1  0
  3 15  1  0
  3  4  2  0
 15 16  1  0
 16 17  2  0
 16 18  2  0
 16 19  1  0
 19 20  2  0
 19 24  1  0
 20 21  1  0
 21 22  2  0
 22 23  1  0
 23 24  2  0
  4  5  1  0
  5  6  1  0
  5 10  2  0
  6  7  2  0
  7  8  1  0
  8  9  2  0
  9 10  1  0
M  CHG  1  14  -1
M  END
>  <minimizedAffinity>  (126) 
-8.58580

$$$$
data/200k_reference_output/data/smiles/11251.pdb
     RDKit          3D

 21 23  0  0  0  0  0  0  0  0999 V2000
   66.8059   42.8604   55.5058 O   0  0  0  0  0  0  0  0  0  0  0  0
   67.8298   42.7061   56.1933 C   0  0  0  0  0  0  0  0  0  0  0  0
   68.6720   43.8716   56.3606 N   0  0  0  0  0  0  0  0  0  0  0  0
   68.1324   41.4249   56.7787 C   0  0  0  0  0  0  0  0  0  0  0  0
   69.0205   41.1672   57.7968 C   0  0  0  0  0  0  0  0  0  0  0  0
   69.0315   39.8226   58.0741 C   0  0  0  0  0  0  0  0  0  0  0  0
   68.1432   39.2706   57.2153 N   0  0  0  0  0  0  0  0  0  0  0  0
   67.6130   40.2057   56.4529 N   0  0  0  0  0  0  0  0  0  0  0  0
   69.8447   39.1061   59.1164 C   0  0  0  0  0  0  0  0  0  0  0  0
   70.6905   38.0020   58.6653 C   0  0  0  0  0  0  0  0  0  0  0  0
   71.3242   39.3051   59.1158 C   0  0  0  0  0  0  0  0  0  0  0  0
   68.4895   45.0522   55.8892 N   0  0  0  0  0  0  0  0  0  0  0  0
   68.3248   46.1390   55.4503 C   0  0  0  0  0  0  0  0  0  0  0  0
   68.7366   46.8635   54.2605 C   0  0  0  0  0  0  0  0  0  0  0  0
   68.5017   46.4011   52.9766 C   0  0  0  0  0  0  0  0  0  0  0  0
   67.8516   45.2089   52.8634 F   0  0  0  0  0  0  0  0  0  0  0  0
   68.8872   47.0788   51.8524 C   0  0  0  0  0  0  0  0  0  0  0  0
   69.5473   48.2893   51.9313 C   0  0  0  0  0  0  0  0  0  0  0  0
   69.7964   48.7741   53.1974 C   0  0  0  0  0  0  0  0  0  0  0  0
   69.3965   48.0717   54.3282 C   0  0  0  0  0  0  0  0  0  0  0  0
   69.7338   48.7193   55.9273 Cl  0  0  0  0  0  0  0  0  0  0  0  0
  1  2  2  0
  2  3  1  0
  2  4  1  0
  3 12  1  0
 12 13  2  3
 13 14  1  0
 14 15  2  0
 14 20  1  0
 15 16  1  0
 15 17  1  0
 17 18  2  0
 18 19  1  0
 19 20  2  0
 20 21  1  0
  4  5  1  0
  4  8  2  0
  5  6  2  0
  6  9  1  0
  6  7  1  0
  9 10  1  0
  9 11  1  0
 10 11  1  0
  7  8  1  0
M  END
>  <minimizedAffinity>  (127) 
-8.57280

$$$$
data/200k_reference_output/data/smiles/11282.pdb
     RDKit          3D

 30 32  0  0  0  0  0  0  0  0999 V2000
   67.2389   41.1406   57.8068 C   0  0  0  0  0  0  0  0  0  0  0  0
   66.5082   41.6017   58.8707 C   0  0  0  0  0  0  0  0  0  0  0  0
   66.3698   40.8609   60.0494 C   0  0  0  0  0  0  0  0  0  0  0  0
   66.9637   39.6298   60.1962 C   0  0  0  0  0  0  0  0  0  0  0  0
   67.7039   39.1652   59.1141 C   0  0  0  0  0  0  0  0  0  0  0  0
   67.8347   39.9060   57.9527 C   0  0  0  0  0  0  0  0  0  0  0  0
   67.4030   41.2489   55.4362 O   0  0  0  0  0  0  0  0  0  0  0  0
   67.4176   41.8701   56.5542 C   0  0  0  0  0  0  0  0  0  0  0  0
   67.6126   43.2652   56.4645 N   0  0  0  0  0  0  0  0  0  0  0  0
   67.7809   43.9189   55.2125 N   0  0  0  0  0  0  0  0  0  0  0  0
   68.1629   45.2607   55.1253 C   0  0  0  0  0  0  0  0  0  0  0  0
   68.3420   45.8273   56.2679 O   0  0  0  0  0  0  0  0  0  0  0  0
   68.3718   46.0557   53.9341 C   0  0  0  0  0  0  0  0  0  0  0  0
   69.1835   47.1836   54.0633 C   0  0  0  0  0  0  0  0  0  0  0  0
   69.4582   48.0229   52.9978 C   0  0  0  0  0  0  0  0  0  0  0  0
   68.9340   47.7671   51.7647 C   0  0  0  0  0  0  0  0  0  0  0  0
   68.1410   46.6763   51.6076 C   0  0  0  0  0  0  0  0  0  0  0  0
   67.8713   45.8346   52.6968 C   0  0  0  0  0  0  0  0  0  0  0  0
   67.0672   44.7552   52.4769 O   0  0  0  0  0  0  0  0  0  0  0  0
   66.8285   38.6575   61.6594 S   0  0  0  0  0  0  0  0  0  0  0  0
   67.8783   37.5862   61.6833 O   0  0  0  0  0  0  0  0  0  0  0  0
   67.0575   39.5592   62.8210 O   0  0  0  0  0  0  0  0  0  0  0  0
   65.2592   37.9651   61.7851 N   0  0  0  0  0  0  0  0  0  0  0  0
   64.9201   36.6569   61.3559 C   0  0  0  0  0  0  0  0  0  0  0  0
   65.3622   36.1215   60.1665 C   0  0  0  0  0  0  0  0  0  0  0  0
   64.9958   34.8383   59.8252 C   0  0  0  0  0  0  0  0  0  0  0  0
   64.1979   34.0449   60.6213 C   0  0  0  0  0  0  0  0  0  0  0  0
   63.7529   34.5728   61.8136 C   0  0  0  0  0  0  0  0  0  0  0  0
   64.1123   35.8501   62.1625 C   0  0  0  0  0  0  0  0  0  0  0  0
   63.6789   36.3852   63.3373 F   0  0  0  0  0  0  0  0  0  0  0  0
  7  8  2  0
  8  9  1  0
  8  1  1  0
  9 10  1  0
 10 11  1  0
 11 12  2  0
 11 13  1  0
 13 14  2  0
 13 18  1  0
 14 15  1  0
 15 16  2  0
 16 17  1  0
 17 18  2  0
 18 19  1  0
  1  2  2  0
  1  6  1  0
  2  3  1  0
  3  4  2  0
  4 20  1  0
  4  5  1  0
 20 21  2  0
 20 22  2  0
 20 23  1  0
 23 24  1  0
 24 25  2  0
 24 29  1  0
 25 26  1  0
 26 27  2  0
 27 28  1  0
 28 29  2  0
 29 30  1  0
  5  6  2  0
M  END
>  <minimizedAffinity>  (128) 
-9.16694

$$$$
data/200k_reference_output/data/smiles/11332.pdb
     RDKit          3D

 26 28  0  0  0  0  0  0  0  0999 V2000
   69.9158   45.1130   58.8386 O   0  0  0  0  0  0  0  0  0  0  0  0
   70.2132   44.3386   57.8643 C   0  0  0  0  0  0  0  0  0  0  0  0
   69.4776   44.4181   56.6656 N   0  0  0  0  0  0  0  0  0  0  0  0
   71.3052   43.4065   58.0465 C   0  0  0  0  0  0  0  0  0  0  0  0
   72.6194   43.7839   58.0626 C   0  0  0  0  0  0  0  0  0  0  0  0
   73.6309   42.8562   58.2398 C   0  0  0  0  0  0  0  0  0  0  0  0
   73.3198   41.5406   58.4014 C   0  0  0  0  0  0  0  0  0  0  0  0
   72.0188   41.1200   58.3910 C   0  0  0  0  0  0  0  0  0  0  0  0
   71.0370   42.0463   58.2160 C   0  0  0  0  0  0  0  0  0  0  0  0
   71.6299   39.7363   58.5570 C   0  0  0  0  0  0  0  0  0  0  0  0
   72.5949   38.7782   58.7449 C   0  0  0  0  0  0  0  0  0  0  0  0
   72.2087   37.4458   58.9050 C   0  0  0  0  0  0  0  0  0  0  0  0
   70.9102   37.1740   58.8661 N   0  0  0  0  0  0  0  0  0  0  0  0
   69.9705   38.0705   58.6871 N   0  0  0  0  0  0  0  0  0  0  0  0
   70.3148   39.3750   58.5291 C   0  0  0  0  0  0  0  0  0  0  0  0
   68.4536   45.2900   56.5165 N   0  0  0  0  0  0  0  0  0  0  0  0
   68.7026   46.8462   55.9895 S   0  0  0  0  0  0  0  0  0  0  0  0
   69.8608   47.5402   56.7176 O   0  0  0  0  0  0  0  0  0  0  0  0
   67.4827   47.6750   56.4374 O   0  0  0  0  0  0  0  0  0  0  0  0
   68.8232   47.0708   54.2925 C   0  0  0  0  0  0  0  0  0  0  0  0
   69.4426   48.0949   53.6359 C   0  0  0  0  0  0  0  0  0  0  0  0
   69.4831   48.1718   52.2372 C   0  0  0  0  0  0  0  0  0  0  0  0
   68.8858   47.1949   51.4842 C   0  0  0  0  0  0  0  0  0  0  0  0
   68.2606   46.1627   52.1106 C   0  0  0  0  0  0  0  0  0  0  0  0
   68.2251   46.0932   53.4782 C   0  0  0  0  0  0  0  0  0  0  0  0
   67.5795   45.0269   54.0433 F   0  0  0  0  0  0  0  0  0  0  0  0
  1  2  2  0
  2  3  1  0
  2  4  1  0
  3 16  1  0
 16 17  1  0
 17 18  2  0
 17 19  2  0
 17 20  1  0
 20 21  2  0
 20 25  1  0
 21 22  1  0
 22 23  2  0
 23 24  1  0
 24 25  2  0
 25 26  1  0
  4  5  2  0
  4  9  1  0
  5  6  1  0
  6  7  2  0
  7  8  1  0
  8 10  1  0
  8  9  2  0
 10 11  2  0
 10 15  1  0
 11 12  1  0
 12 13  2  0
 13 14  1  0
 14 15  2  0
M  END
>  <minimizedAffinity>  (129) 
-8.57761

$$$$
data/200k_reference_output/data/smiles/11498.pdb
     RDKit          3D

 25 27  0  0  0  0  0  0  0  0999 V2000
   69.4220   42.6785   57.2323 C   0  0  0  0  0  0  0  0  0  0  0  0
   70.1260   43.7662   57.6682 C   0  0  0  0  0  0  0  0  0  0  0  0
   69.8851   45.0632   57.1722 C   0  0  0  0  0  0  0  0  0  0  0  0
   68.9353   45.3206   56.2261 C   0  0  0  0  0  0  0  0  0  0  0  0
   68.2208   44.1753   55.7910 C   0  0  0  0  0  0  0  0  0  0  0  0
   68.4610   42.9206   56.2781 C   0  0  0  0  0  0  0  0  0  0  0  0
   72.3456   39.0783   59.1441 C   0  0  0  0  0  0  0  0  0  0  0  0
   71.0406   39.5823   58.6468 C   0  0  0  0  0  0  0  0  0  0  0  0
   70.8631   40.8660   58.1838 C   0  0  0  0  0  0  0  0  0  0  0  0
   69.6510   41.3303   57.7255 C   0  0  0  0  0  0  0  0  0  0  0  0
   68.5885   40.4434   57.7415 C   0  0  0  0  0  0  0  0  0  0  0  0
   68.7563   39.1567   58.2022 C   0  0  0  0  0  0  0  0  0  0  0  0
   69.9747   38.7042   58.6600 C   0  0  0  0  0  0  0  0  0  0  0  0
   70.1097   37.4299   59.1074 F   0  0  0  0  0  0  0  0  0  0  0  0
   68.5816   46.5970   55.6575 C   0  0  0  0  0  0  0  0  0  0  0  0
   67.6752   47.2494   56.3542 O   0  0  0  0  0  0  0  0  0  0  0  0
   69.0117   47.3206   54.4967 C   0  0  0  0  0  0  0  0  0  0  0  0
   68.6328   46.8078   53.2290 C   0  0  0  0  0  0  0  0  0  0  0  0
   69.0536   47.4420   52.0996 C   0  0  0  0  0  0  0  0  0  0  0  0
   68.7170   46.9886   50.9475 O   0  0  0  0  0  0  0  0  0  0  0  0
   69.8240   48.5466   52.1316 N   0  0  0  0  0  0  0  0  0  0  0  0
   70.2323   49.1592   50.9647 O   0  0  0  0  0  0  0  0  0  0  0  0
   70.1594   48.9972   53.3444 C   0  0  0  0  0  0  0  0  0  0  0  0
   70.8891   50.0434   53.3663 O   0  0  0  0  0  0  0  0  0  0  0  0
   69.7682   48.4054   54.5132 N   0  0  0  0  0  0  0  0  0  0  0  0
  7  8  1  0
  8  9  2  0
  8 13  1  0
  9 10  1  0
 10  1  1  0
 10 11  2  0
  1  2  2  0
  1  6  1  0
  2  3  1  0
  3  4  2  0
  4 15  1  0
  4  5  1  0
 15 16  2  0
 15 17  1  0
 17 18  2  0
 17 25  1  0
 18 19  1  0
 19 20  2  0
 19 21  1  0
 21 22  1  0
 21 23  1  0
 23 24  2  0
 23 25  1  0
  5  6  2  0
 11 12  1  0
 12 13  2  0
 13 14  1  0
M  END
>  <minimizedAffinity>  (130) 
-8.94299

$$$$
data/200k_reference_output/data/smiles/11625.pdb
     RDKit          3D

 23 25  0  0  0  0  0  0  0  0999 V2000
   68.3055   44.5336   55.8601 N   0  0  0  0  0  0  0  0  0  0  0  0
   67.9117   44.9828   54.7236 C   0  0  0  0  0  0  0  0  0  0  0  0
   68.4287   46.2006   54.1062 C   0  0  0  0  0  0  0  0  0  0  0  0
   68.4372   47.3815   54.8171 C   0  0  0  0  0  0  0  0  0  0  0  0
   68.9272   48.5647   54.2515 C   0  0  0  0  0  0  0  0  0  0  0  0
   69.4134   48.5646   52.9597 C   0  0  0  0  0  0  0  0  0  0  0  0
   69.4113   47.3964   52.2400 C   0  0  0  0  0  0  0  0  0  0  0  0
   68.9189   46.2274   52.8223 C   0  0  0  0  0  0  0  0  0  0  0  0
   69.9340   47.6964   51.0380 N   0  0  0  0  0  0  0  0  0  0  0  0
   70.2326   48.9558   51.0275 O   0  0  0  0  0  0  0  0  0  0  0  0
   69.9317   49.5112   52.1717 N   0  0  0  0  0  0  0  0  0  0  0  0
   70.1329   50.8416   52.4636 O   0  0  0  0  0  0  0  0  0  0  0  0
   69.7669   42.8673   57.4867 O   0  0  0  0  0  0  0  0  0  0  0  0
   68.5712   42.5196   57.2706 C   0  0  0  0  0  0  0  0  0  0  0  0
   67.7932   43.3566   56.4371 N   0  0  0  0  0  0  0  0  0  0  0  0
   68.0962   41.2930   57.8950 C   0  0  0  0  0  0  0  0  0  0  0  0
   68.5101   40.0443   57.4684 C   0  0  0  0  0  0  0  0  0  0  0  0
   68.0800   38.8660   58.0366 C   0  0  0  0  0  0  0  0  0  0  0  0
   67.1882   38.8984   59.0886 C   0  0  0  0  0  0  0  0  0  0  0  0
   66.5935   37.4512   59.8648 Cl  0  0  0  0  0  0  0  0  0  0  0  0
   66.7635   40.1276   59.5280 C   0  0  0  0  0  0  0  0  0  0  0  0
   65.6271   40.1799   60.8681 Cl  0  0  0  0  0  0  0  0  0  0  0  0
   67.2059   41.3222   58.9446 C   0  0  0  0  0  0  0  0  0  0  0  0
 13 14  2  0
 14 15  1  0
 14 16  1  0
 15  1  1  0
  1  2  2  0
  2  3  1  0
  3  4  1  0
  3  8  2  0
  4  5  2  0
  5  6  1  0
  6  7  1  0
  6 11  2  0
  7  8  1  0
  7  9  2  0
  9 10  1  0
 10 11  1  0
 11 12  1  0
 16 17  2  0
 16 23  1  0
 17 18  1  0
 18 19  2  0
 19 20  1  0
 19 21  1  0
 21 22  1  0
 21 23  2  0
M  CHG  2  11   1  12  -1
M  END
>  <minimizedAffinity>  (131) 
-8.83346

$$$$
data/200k_reference_output/data/smiles/11677.pdb
     RDKit          3D

 29 32  0  0  0  0  0  0  0  0999 V2000
   71.5300   47.3339   58.8769 C   0  0  0  0  0  0  0  0  0  0  0  0
   70.8001   48.1651   58.0398 C   0  0  0  0  0  0  0  0  0  0  0  0
   69.9228   47.6804   57.1248 C   0  0  0  0  0  0  0  0  0  0  0  0
   69.7930   46.2844   57.0718 C   0  0  0  0  0  0  0  0  0  0  0  0
   70.4986   45.4308   57.8837 C   0  0  0  0  0  0  0  0  0  0  0  0
   71.3818   45.9804   58.8007 C   0  0  0  0  0  0  0  0  0  0  0  0
   72.0609   45.1355   59.5845 F   0  0  0  0  0  0  0  0  0  0  0  0
   74.7487   50.9334   58.6081 N   0  0  0  0  0  0  0  0  0  0  0  0
   74.4093   50.0474   57.5544 C   0  0  0  0  0  0  0  0  0  0  0  0
   73.8670   48.7119   57.9645 C   0  0  0  0  0  0  0  0  0  0  0  0
   73.6077   48.6293   59.3835 N   0  0  0  0  0  0  0  0  0  0  0  0
   72.4550   47.9443   59.8306 C   0  0  0  0  0  0  0  0  0  0  0  0
   72.2276   47.8625   61.0787 O   0  0  0  0  0  0  0  0  0  0  0  0
   74.4866   49.2286   60.3626 C   0  0  0  0  0  0  0  0  0  0  0  0
   75.3462   50.3087   59.7397 C   0  0  0  0  0  0  0  0  0  0  0  0
   73.0189   52.3095   57.6441 C   0  0  0  0  0  0  0  0  0  0  0  0
   73.8165   51.9742   58.8953 C   0  0  0  0  0  0  0  0  0  0  0  0
   69.1004   48.5039   56.1879 C   0  0  0  0  0  0  0  0  0  0  0  0
   69.4460   48.3484   54.7790 C   0  0  0  0  0  0  0  0  0  0  0  0
   70.5151   49.0250   54.2855 N   0  0  0  0  0  0  0  0  0  0  0  0
   70.8998   48.9954   53.0250 N   0  0  0  0  0  0  0  0  0  0  0  0
   70.2256   48.2670   52.1316 C   0  0  0  0  0  0  0  0  0  0  0  0
   70.5911   48.2346   50.9111 O   0  0  0  0  0  0  0  0  0  0  0  0
   69.1258   47.5557   52.5805 C   0  0  0  0  0  0  0  0  0  0  0  0
   68.7320   47.5932   53.9113 C   0  0  0  0  0  0  0  0  0  0  0  0
   67.5899   46.7797   54.2818 C   0  0  0  0  0  0  0  0  0  0  0  0
   67.8509   45.3912   53.6612 C   0  0  0  0  0  0  0  0  0  0  0  0
   67.7808   45.4782   52.1777 C   0  0  0  0  0  0  0  0  0  0  0  0
   68.3320   46.7474   51.6403 C   0  0  0  0  0  0  0  0  0  0  0  0
 16 17  1  0
 17  8  1  0
  8  9  1  0
  8 15  1  0
  9 10  1  0
 10 11  1  0
 11 12  1  0
 11 14  1  0
 12 13  2  0
 12  1  1  0
  1  2  2  0
  1  6  1  0
  2  3  1  0
  3 18  1  0
  3  4  2  0
 18 19  1  0
 19 20  2  0
 19 25  1  0
 20 21  1  0
 21 22  1  0
 22 23  2  0
 22 24  1  0
 24 25  2  0
 24 29  1  0
 25 26  1  0
 26 27  1  0
 27 28  1  0
 28 29  1  0
  4  5  1  0
  5  6  2  0
  6  7  1  0
 14 15  1  0
M  CHG  1   8   1
M  END
>  <minimizedAffinity>  (132) 
-8.74858

$$$$
data/200k_reference_output/data/smiles/11733.pdb
     RDKit          3D

 27 30  0  0  0  0  0  0  0  0999 V2000
   69.6981   44.6396   57.4875 C   0  0  2  0  0  0  0  0  0  0  0  0
   70.8230   45.3400   58.1151 C   0  0  0  0  0  0  0  0  0  0  0  0
   71.7379   44.5143   58.9661 C   0  0  0  0  0  0  0  0  0  0  0  0
   72.0272   43.1507   58.3824 C   0  0  0  0  0  0  0  0  0  0  0  0
   70.7950   42.4398   58.0404 C   0  0  0  0  0  0  0  0  0  0  0  0
   69.7225   43.1596   57.6258 C   0  0  0  0  0  0  0  0  0  0  0  0
   68.7054   42.2599   57.3707 C   0  0  0  0  0  0  0  0  0  0  0  0
   69.1919   41.0319   57.6374 N   0  0  0  0  0  0  0  0  0  0  0  0
   70.4664   41.1479   58.0443 N   0  0  0  0  0  0  0  0  0  0  0  0
   71.2814   40.0469   58.4056 C   0  0  0  0  0  0  0  0  0  0  0  0
   70.8706   38.7527   58.1724 C   0  0  0  0  0  0  0  0  0  0  0  0
   71.6517   37.6607   58.5177 C   0  0  0  0  0  0  0  0  0  0  0  0
   71.2462   36.3916   58.2867 F   0  0  0  0  0  0  0  0  0  0  0  0
   72.8786   37.8491   59.1127 C   0  0  0  0  0  0  0  0  0  0  0  0
   73.3098   39.1374   59.3553 C   0  0  0  0  0  0  0  0  0  0  0  0
   74.5215   39.2887   59.9420 F   0  0  0  0  0  0  0  0  0  0  0  0
   72.5109   40.2212   59.0013 C   0  0  0  0  0  0  0  0  0  0  0  0
   68.0626   46.6560   56.4089 O   0  0  0  0  0  0  0  0  0  0  0  0
   68.6475   45.9311   55.5692 C   0  0  0  0  0  0  0  0  0  0  0  0
   69.4712   44.9153   56.0876 N   0  0  0  0  0  0  0  0  0  0  0  0
   68.4418   46.1819   54.1484 C   0  0  0  0  0  0  0  0  0  0  0  0
   69.0714   47.2482   53.5376 C   0  0  0  0  0  0  0  0  0  0  0  0
   68.9017   47.5196   52.1863 C   0  0  0  0  0  0  0  0  0  0  0  0
   68.0898   46.7223   51.4083 C   0  0  0  0  0  0  0  0  0  0  0  0
   67.4833   45.6876   52.0153 N   0  0  0  0  0  0  0  0  0  0  0  0
   66.6661   44.8871   51.2216 O   0  0  0  0  0  0  0  0  0  0  0  0
   67.6403   45.4104   53.3363 C   0  0  0  0  0  0  0  0  0  0  0  0
 18 19  2  0
 19 20  1  0
 19 21  1  0
  1 20  1  6
  1  2  1  0
  1  6  1  0
  2  3  1  0
  3  4  1  0
  4  5  1  0
  5  6  2  0
  5  9  1  0
  6  7  1  0
  7  8  2  0
  8  9  1  0
  9 10  1  0
 10 11  2  0
 10 17  1  0
 11 12  1  0
 12 13  1  0
 12 14  2  0
 14 15  1  0
 15 16  1  0
 15 17  2  0
 21 22  2  0
 21 27  1  0
 22 23  1  0
 23 24  2  0
 24 25  1  0
 25 26  1  0
 25 27  2  0
M  CHG  2  25   1  26  -1
M  END
>  <minimizedAffinity>  (133) 
-8.54758

$$$$
data/200k_reference_output/data/smiles/11766.pdb
     RDKit          3D

 28 30  0  0  0  0  0  0  0  0999 V2000
   68.5843   46.3173   54.1618 C   0  0  0  0  0  0  0  0  0  0  0  0
   68.2517   45.9909   52.8644 C   0  0  0  0  0  0  0  0  0  0  0  0
   68.5381   46.8479   51.8121 C   0  0  0  0  0  0  0  0  0  0  0  0
   69.1730   48.0546   52.0889 C   0  0  0  0  0  0  0  0  0  0  0  0
   69.5185   48.4112   53.3764 C   0  0  0  0  0  0  0  0  0  0  0  0
   69.2107   47.5228   54.3852 C   0  0  0  0  0  0  0  0  0  0  0  0
   68.4831   45.8399   56.4603 O   0  0  0  0  0  0  0  0  0  0  0  0
   68.2918   45.4322   55.2824 C   0  0  0  0  0  0  0  0  0  0  0  0
   67.7949   44.1092   55.1523 N   0  0  0  0  0  0  0  0  0  0  0  0
   67.5315   43.2998   56.2864 N   0  0  0  0  0  0  0  0  0  0  0  0
   67.8273   42.0472   56.2843 C   0  0  0  0  0  0  0  0  0  0  0  0
   67.5875   41.1599   57.4043 C   0  0  0  0  0  0  0  0  0  0  0  0
   68.1465   39.9054   57.4531 C   0  0  0  0  0  0  0  0  0  0  0  0
   67.9124   39.0533   58.5381 C   0  0  0  0  0  0  0  0  0  0  0  0
   67.1070   39.4742   59.5776 C   0  0  0  0  0  0  0  0  0  0  0  0
   66.8669   38.6673   60.6351 F   0  0  0  0  0  0  0  0  0  0  0  0
   66.5440   40.7263   59.5384 C   0  0  0  0  0  0  0  0  0  0  0  0
   65.7631   41.1318   60.5499 F   0  0  0  0  0  0  0  0  0  0  0  0
   66.7902   41.5526   58.4530 C   0  0  0  0  0  0  0  0  0  0  0  0
   70.3064   49.9244   53.6728 S   0  0  0  0  0  0  0  0  0  0  0  0
   71.8161   49.7698   53.6639 O   0  0  0  0  0  0  0  0  0  0  0  0
   69.9944   50.8925   52.5498 O   0  0  0  0  0  0  0  0  0  0  0  0
   69.8697   50.6487   55.1417 N   0  0  0  0  0  0  0  0  0  0  0  0
   68.8411   51.6295   55.0695 C   0  0  0  0  0  0  0  0  0  0  0  0
   68.1053   51.6267   56.4020 C   0  0  0  0  0  0  0  0  0  0  0  0
   69.0571   51.2700   57.5301 C   0  0  0  0  0  0  0  0  0  0  0  0
   70.4389   51.8184   57.1500 C   0  0  0  0  0  0  0  0  0  0  0  0
   70.9414   50.9519   56.0220 C   0  0  0  0  0  0  0  0  0  0  0  0
  7  8  2  0
  8  9  1  0
  8  1  1  0
  9 10  1  0
 10 11  2  0
 11 12  1  0
 12 13  2  0
 12 19  1  0
 13 14  1  0
 14 15  2  0
 15 16  1  0
 15 17  1  0
 17 18  1  0
 17 19  2  0
  1  2  2  0
  1  6  1  0
  2  3  1  0
  3  4  2  0
  4  5  1  0
  5 20  1  0
  5  6  2  0
 20 21  2  0
 20 22  2  0
 20 23  1  0
 23 24  1  0
 23 28  1  0
 24 25  1  0
 25 26  1  0
 26 27  1  0
 27 28  1  0
M  END
>  <minimizedAffinity>  (134) 
-9.72153

$$$$
data/200k_reference_output/data/smiles/11888.pdb
     RDKit          3D

 26 28  0  0  0  0  0  0  0  0999 V2000
   68.2247   44.6551   55.4762 N   0  0  0  0  0  0  0  0  0  0  0  0
   67.4204   43.7276   54.9845 N   0  0  0  0  0  0  0  0  0  0  0  0
   67.3672   42.6558   55.7946 C   0  0  0  0  0  0  0  0  0  0  0  0
   68.1977   42.9494   56.8548 C   0  0  0  0  0  0  0  0  0  0  0  0
   68.6887   44.1761   56.6056 N   0  0  0  0  0  0  0  0  0  0  0  0
   69.4935   49.7719   53.2928 C   0  0  0  0  0  0  0  0  0  0  0  0
   69.1630   48.4387   53.8588 C   0  0  0  0  0  0  0  0  0  0  0  0
   68.7421   47.4164   53.0268 C   0  0  0  0  0  0  0  0  0  0  0  0
   68.4266   46.1552   53.5459 C   0  0  0  0  0  0  0  0  0  0  0  0
   68.5411   45.9414   54.9034 C   0  0  0  0  0  0  0  0  0  0  0  0
   68.9648   46.9914   55.6965 C   0  0  0  0  0  0  0  0  0  0  0  0
   69.2814   48.2374   55.2205 C   0  0  0  0  0  0  0  0  0  0  0  0
   69.7377   49.3456   56.1271 C   0  0  0  0  0  0  0  0  0  0  0  0
   68.4629   42.0859   57.9940 C   0  0  0  0  0  0  0  0  0  0  0  0
   68.3920   42.5219   59.1678 O   0  0  0  0  0  0  0  0  0  0  0  0
   68.8115   40.7213   57.8145 N   0  0  0  0  0  0  0  0  0  0  0  0
   69.0795   39.8461   58.9387 C   0  0  1  0  0  0  0  0  0  0  0  0
   68.0470   38.7346   59.0296 C   0  0  0  0  0  0  0  0  0  0  0  0
   70.4399   39.2619   58.8670 C   0  0  0  0  0  0  0  0  0  0  0  0
   71.5774   39.9925   59.1207 C   0  0  0  0  0  0  0  0  0  0  0  0
   72.8225   39.4235   59.0458 C   0  0  0  0  0  0  0  0  0  0  0  0
   72.9791   38.0754   58.7094 C   0  0  0  0  0  0  0  0  0  0  0  0
   71.8315   37.3530   58.4588 C   0  0  0  0  0  0  0  0  0  0  0  0
   70.5773   37.9310   58.5342 C   0  0  0  0  0  0  0  0  0  0  0  0
   66.5716   41.3963   55.5914 C   0  0  0  0  0  0  0  0  0  0  0  0
   67.3822   40.3586   55.1367 O   0  0  0  0  0  0  0  0  0  0  0  0
  6  7  1  0
  7  8  2  0
  7 12  1  0
  8  9  1  0
  9 10  2  0
 10  1  1  0
 10 11  1  0
  1  2  1  0
  1  5  1  0
  2  3  2  0
  3 25  1  0
  3  4  1  0
 25 26  1  0
  4 14  1  0
  4  5  2  0
 14 15  2  0
 14 16  1  0
 16 17  1  0
 17 18  1  6
 17 19  1  0
 19 20  2  0
 19 24  1  0
 20 21  1  0
 21 22  2  0
 22 23  1  0
 23 24  2  0
 11 12  2  0
 12 13  1  0
M  END
>  <minimizedAffinity>  (135) 
-8.58433

$$$$
data/200k_reference_output/data/smiles/11912.pdb
     RDKit          3D

 29 31  0  0  0  0  0  0  0  0999 V2000
   70.3351   48.7627   57.2950 C   0  0  0  0  0  0  0  0  0  0  0  0
   69.5488   49.4210   58.0145 O   0  0  0  0  0  0  0  0  0  0  0  0
   69.9200   48.3918   55.9513 C   0  0  0  0  0  0  0  0  0  0  0  0
   70.2754   49.1644   54.8583 C   0  0  0  0  0  0  0  0  0  0  0  0
   71.0773   50.4030   55.0586 C   0  0  0  0  0  0  0  0  0  0  0  0
   69.9121   48.8265   53.6113 N   0  0  0  0  0  0  0  0  0  0  0  0
   70.2870   49.6283   52.5287 O   0  0  0  0  0  0  0  0  0  0  0  0
   69.1866   47.7174   53.3883 C   0  0  0  0  0  0  0  0  0  0  0  0
   68.8053   47.3559   52.1193 C   0  0  0  0  0  0  0  0  0  0  0  0
   68.0595   46.2013   51.9546 C   0  0  0  0  0  0  0  0  0  0  0  0
   67.6885   45.4092   53.0199 C   0  0  0  0  0  0  0  0  0  0  0  0
   68.0804   45.7870   54.2948 C   0  0  0  0  0  0  0  0  0  0  0  0
   68.8277   46.9417   54.4664 C   0  0  0  0  0  0  0  0  0  0  0  0
   69.1954   47.2825   55.7283 N   0  0  0  0  0  0  0  0  0  0  0  0
   68.8051   46.4361   56.7718 O   0  0  0  0  0  0  0  0  0  0  0  0
   71.6430   48.3917   57.8412 C   0  0  0  0  0  0  0  0  0  0  0  0
   71.5801   47.7467   59.1778 C   0  0  0  0  0  0  0  0  0  0  0  0
   71.5613   48.4023   60.2329 O   0  0  0  0  0  0  0  0  0  0  0  0
   71.5608   45.5238   58.0669 N   0  0  0  0  0  0  0  0  0  0  0  0
   71.5384   46.2961   59.2460 C   0  0  0  0  0  0  0  0  0  0  0  0
   71.4818   45.6903   60.3462 O   0  0  0  0  0  0  0  0  0  0  0  0
   71.0720   39.8334   58.2951 C   0  0  0  0  0  0  0  0  0  0  0  0
   71.2440   41.3052   58.2462 C   0  0  0  0  0  0  0  0  0  0  0  0
   72.4786   41.9184   58.4546 C   0  0  0  0  0  0  0  0  0  0  0  0
   72.5827   43.2932   58.3973 C   0  0  0  0  0  0  0  0  0  0  0  0
   71.5174   44.1126   58.1407 C   0  0  0  0  0  0  0  0  0  0  0  0
   70.2874   43.4904   57.9345 C   0  0  0  0  0  0  0  0  0  0  0  0
   70.1489   42.1094   57.9850 C   0  0  0  0  0  0  0  0  0  0  0  0
   68.8332   41.4566   57.7609 C   0  0  0  0  0  0  0  0  0  0  0  0
 22 23  1  0
 23 24  2  0
 23 28  1  0
 24 25  1  0
 25 26  2  0
 26 19  1  0
 26 27  1  0
 19 20  1  0
 20 21  2  0
 20 17  1  0
 17 18  2  0
 17 16  1  0
 16  1  1  0
  1  2  2  0
  1  3  1  0
  3  4  2  0
  3 14  1  0
  4  5  1  0
  4  6  1  0
  6  7  1  0
  6  8  2  0
  8  9  1  0
  8 13  1  0
  9 10  2  0
 10 11  1  0
 11 12  2  0
 12 13  1  0
 13 14  2  0
 14 15  1  0
 27 28  2  0
 28 29  1  0
M  CHG  4   6   1   7  -1  14   1  15  -1
M  END
>  <minimizedAffinity>  (136) 
-8.52665

$$$$
data/200k_reference_output/data/smiles/12003.pdb
     RDKit          3D

 23 25  0  0  0  0  0  0  0  0999 V2000
   69.3404   47.4406   56.4531 C   0  0  2  0  0  0  0  0  0  0  0  0
   69.6156   45.7989   58.0307 O   0  0  0  0  0  0  0  0  0  0  0  0
   70.1293   46.9260   57.5264 C   0  0  0  0  0  0  0  0  0  0  0  0
   71.2736   47.3097   58.1524 N   0  0  0  0  0  0  0  0  0  0  0  0
   72.1483   48.4026   57.8980 C   0  0  0  0  0  0  0  0  0  0  0  0
   72.0221   49.4015   59.0456 C   0  0  0  0  0  0  0  0  0  0  0  0
   71.8513   48.7331   60.2583 O   0  0  0  0  0  0  0  0  0  0  0  0
   72.4366   47.4706   60.2560 C   0  0  0  0  0  0  0  0  0  0  0  0
   71.7533   46.4943   59.3384 C   0  0  0  0  0  0  0  0  0  0  0  0
   68.5579   48.6747   56.8536 C   0  0  0  0  0  0  0  0  0  0  0  0
   68.9718   49.9167   56.4636 C   0  0  0  0  0  0  0  0  0  0  0  0
   68.2573   51.0663   56.8289 C   0  0  0  0  0  0  0  0  0  0  0  0
   67.1257   50.9047   57.5929 C   0  0  0  0  0  0  0  0  0  0  0  0
   66.7106   49.6386   57.9849 C   0  0  0  0  0  0  0  0  0  0  0  0
   67.4113   48.5233   57.6259 C   0  0  0  0  0  0  0  0  0  0  0  0
   68.4738   46.6165   55.6037 C   0  0  2  0  0  0  0  0  0  0  0  0
   68.3014   45.3283   56.0421 O   0  0  0  0  0  0  0  0  0  0  0  0
   68.5231   46.7182   54.1638 C   0  0  0  0  0  0  0  0  0  0  0  0
   67.7414   45.8131   53.4460 C   0  0  0  0  0  0  0  0  0  0  0  0
   67.6908   45.8331   52.0892 C   0  0  0  0  0  0  0  0  0  0  0  0
   68.4110   46.7475   51.3690 C   0  0  0  0  0  0  0  0  0  0  0  0
   69.2039   47.6694   52.0345 C   0  0  0  0  0  0  0  0  0  0  0  0
   69.2314   47.6210   53.4012 C   0  0  0  0  0  0  0  0  0  0  0  0
  2  3  2  0
  1  3  1  1
  3  4  1  0
  1 10  1  0
  1 16  1  0
 10 11  2  0
 10 15  1  0
 11 12  1  0
 12 13  2  0
 13 14  1  0
 14 15  2  0
 16 17  1  6
 16 18  1  0
 18 19  2  0
 18 23  1  0
 19 20  1  0
 20 21  2  0
 21 22  1  0
 22 23  2  0
  4  5  1  0
  4  9  1  0
  5  6  1  0
  6  7  1  0
  7  8  1  0
  8  9  1  0
M  END
>  <minimizedAffinity>  (137) 
-8.61923

$$$$
data/200k_reference_output/data/smiles/12007.pdb
     RDKit          3D

 20 21  0  0  0  0  0  0  0  0999 V2000
   70.0354   49.2603   52.4426 S   0  0  0  0  0  0  0  0  0  0  0  0
   70.2580   49.2335   50.9462 O   0  0  0  0  0  0  0  0  0  0  0  0
   71.3831   49.2622   53.1543 O   0  0  0  0  0  0  0  0  0  0  0  0
   69.2048   47.7935   52.8867 C   0  0  0  0  0  0  0  0  0  0  0  0
   68.5492   47.0771   51.8892 C   0  0  0  0  0  0  0  0  0  0  0  0
   67.8471   45.9217   52.1467 C   0  0  0  0  0  0  0  0  0  0  0  0
   67.7688   45.4311   53.4150 C   0  0  0  0  0  0  0  0  0  0  0  0
   68.4024   46.1084   54.4333 C   0  0  0  0  0  0  0  0  0  0  0  0
   69.1090   47.2778   54.1502 C   0  0  0  0  0  0  0  0  0  0  0  0
   68.3190   45.5955   55.7510 N   0  0  0  0  0  0  0  0  0  0  0  0
   68.4645   46.3674   56.7074 O   0  0  0  0  0  0  0  0  0  0  0  0
   68.0825   44.2706   56.0035 O   0  0  0  0  0  0  0  0  0  0  0  0
   69.1438   50.6202   52.9250 N   0  0  0  0  0  0  0  0  0  0  0  0
   67.9926   49.7459   57.5942 C   0  0  0  0  0  0  0  0  0  0  0  0
   68.4183   50.6751   56.5155 C   0  0  0  0  0  0  0  0  0  0  0  0
   68.6448   51.9889   56.8695 C   0  0  0  0  0  0  0  0  0  0  0  0
   69.0433   52.8977   55.9016 C   0  0  0  0  0  0  0  0  0  0  0  0
   69.2024   52.4366   54.5869 C   0  0  0  0  0  0  0  0  0  0  0  0
   68.9754   51.1274   54.2377 C   0  0  0  0  0  0  0  0  0  0  0  0
   68.5854   50.2982   55.2505 N   0  0  0  0  0  0  0  0  0  0  0  0
 14 15  1  0
 15 16  2  0
 15 20  1  0
 16 17  1  0
 17 18  2  0
 18 19  1  0
 19 13  1  0
 19 20  2  0
 13  1  1  0
  1  2  2  0
  1  3  2  0
  1  4  1  0
  4  5  2  0
  4  9  1  0
  5  6  1  0
  6  7  2  0
  7  8  1  0
  8 10  1  0
  8  9  2  0
 10 11  2  0
 10 12  1  0
M  CHG  2  10   1  12  -1
M  END
>  <minimizedAffinity>  (138) 
-8.80579

$$$$
data/200k_reference_output/data/smiles/12073.pdb
     RDKit          3D

 22 23  0  0  0  0  0  0  0  0999 V2000
   67.5596   42.4354   56.3691 C   0  0  0  0  0  0  0  0  0  0  0  0
   66.5426   41.9385   55.8320 O   0  0  0  0  0  0  0  0  0  0  0  0
   70.2543   39.8232   58.4209 C   0  0  0  0  0  0  0  0  0  0  0  0
   69.0334   39.3805   57.9563 C   0  0  0  0  0  0  0  0  0  0  0  0
   68.1573   40.2121   57.2944 C   0  0  0  0  0  0  0  0  0  0  0  0
   68.4703   41.5415   57.0660 C   0  0  0  0  0  0  0  0  0  0  0  0
   69.6916   41.9773   57.5318 C   0  0  0  0  0  0  0  0  0  0  0  0
   70.5732   41.1502   58.1954 C   0  0  0  0  0  0  0  0  0  0  0  0
   71.4101   37.6451   58.2826 C   0  0  0  0  0  0  0  0  0  0  0  0
   71.1692   38.8989   59.1277 C   0  0  0  0  0  0  0  0  0  0  0  0
   72.5264   39.5644   59.2791 C   0  0  0  0  0  0  0  0  0  0  0  0
   70.6982   38.5081   60.4877 C   0  0  0  0  0  0  0  0  0  0  0  0
   67.7412   43.8022   56.2591 O   0  0  0  0  0  0  0  0  0  0  0  0
   67.9577   44.4432   55.0599 N   0  0  0  0  0  0  0  0  0  0  0  0
   68.2640   45.7059   55.0417 C   0  0  0  0  0  0  0  0  0  0  0  0
   68.3515   46.3342   56.3112 N   0  0  0  0  0  0  0  0  0  0  0  0
   68.5029   46.4292   53.7955 C   0  0  0  0  0  0  0  0  0  0  0  0
   67.9607   45.9135   52.6393 C   0  0  0  0  0  0  0  0  0  0  0  0
   68.1761   46.5878   51.4401 C   0  0  0  0  0  0  0  0  0  0  0  0
   68.8931   47.7231   51.3679 N   0  0  0  0  0  0  0  0  0  0  0  0
   69.4328   48.2433   52.4918 C   0  0  0  0  0  0  0  0  0  0  0  0
   69.2293   47.5898   53.6858 C   0  0  0  0  0  0  0  0  0  0  0  0
  9 10  1  0
 10 11  1  0
 10 12  1  0
 10  3  1  0
  3  4  2  0
  3  8  1  0
  4  5  1  0
  5  6  2  0
  6  1  1  0
  6  7  1  0
  1  2  2  0
  1 13  1  0
 13 14  1  0
 14 15  2  0
 15 16  1  0
 15 17  1  0
 17 18  2  0
 17 22  1  0
 18 19  1  0
 19 20  2  0
 20 21  1  0
 21 22  2  0
  7  8  2  0
M  CHG  1  14   1
M  END
>  <minimizedAffinity>  (139) 
-8.73383

$$$$
data/200k_reference_output/data/smiles/12121.pdb
     RDKit          3D

 28 32  0  0  0  0  0  0  0  0999 V2000
   71.3474   46.9691   58.7167 C   0  0  0  0  0  0  0  0  0  0  0  0
   70.4131   47.6276   57.9677 C   0  0  0  0  0  0  0  0  0  0  0  0
   69.5379   47.0034   57.0720 C   0  0  0  0  0  0  0  0  0  0  0  0
   69.6535   45.6465   56.9625 C   0  0  0  0  0  0  0  0  0  0  0  0
   70.6000   44.9335   57.7125 C   0  0  0  0  0  0  0  0  0  0  0  0
   71.4259   45.5923   58.5694 C   0  0  0  0  0  0  0  0  0  0  0  0
   72.3378   44.8956   59.2904 F   0  0  0  0  0  0  0  0  0  0  0  0
   71.8490   47.7718   60.8358 O   0  0  0  0  0  0  0  0  0  0  0  0
   72.2445   47.6775   59.6487 C   0  0  0  0  0  0  0  0  0  0  0  0
   73.4796   48.2134   59.2069 N   0  0  0  0  0  0  0  0  0  0  0  0
   74.1876   48.2630   57.9436 C   0  0  0  0  0  0  0  0  0  0  0  0
   75.4919   48.5026   58.7201 C   0  0  0  0  0  0  0  0  0  0  0  0
   74.5453   48.9198   59.7920 C   0  0  0  0  0  0  0  0  0  0  0  0
   74.4047   50.3630   60.0842 C   0  0  0  0  0  0  0  0  0  0  0  0
   75.1403   50.1476   61.3238 N   0  0  0  0  0  0  0  0  0  0  0  0
   74.9074   48.7118   61.1989 C   0  0  0  0  0  0  0  0  0  0  0  0
   68.5443   47.8098   56.3301 C   0  0  0  0  0  0  0  0  0  0  0  0
   68.9697   48.0209   54.9581 C   0  0  0  0  0  0  0  0  0  0  0  0
   69.8673   49.0266   54.7278 N   0  0  0  0  0  0  0  0  0  0  0  0
   70.3692   49.3024   53.5412 N   0  0  0  0  0  0  0  0  0  0  0  0
   70.0464   48.6202   52.4302 C   0  0  0  0  0  0  0  0  0  0  0  0
   70.5474   48.9103   51.3033 O   0  0  0  0  0  0  0  0  0  0  0  0
   69.1433   47.5870   52.5746 C   0  0  0  0  0  0  0  0  0  0  0  0
   68.7726   46.8659   51.4598 C   0  0  0  0  0  0  0  0  0  0  0  0
   67.8596   45.8502   51.6366 C   0  0  0  0  0  0  0  0  0  0  0  0
   67.3366   45.5685   52.8824 C   0  0  0  0  0  0  0  0  0  0  0  0
   67.7135   46.2975   54.0017 C   0  0  0  0  0  0  0  0  0  0  0  0
   68.6172   47.3031   53.8420 C   0  0  0  0  0  0  0  0  0  0  0  0
  8  9  2  0
  9  1  1  0
  9 10  1  0
  1  2  2  0
  1  6  1  0
  2  3  1  0
  3 17  1  0
  3  4  2  0
 17 18  1  0
 18 19  2  0
 18 28  1  0
 19 20  1  0
 20 21  1  0
 21 22  2  0
 21 23  1  0
 23 24  1  0
 23 28  2  0
 24 25  2  0
 25 26  1  0
 26 27  2  0
 27 28  1  0
  4  5  1  0
  5  6  2  0
  6  7  1  0
 10 11  1  0
 10 13  1  0
 11 12  1  0
 12 13  1  0
 13 14  1  0
 13 16  1  0
 14 15  1  0
 15 16  1  0
M  CHG  1  15   1
M  END
>  <minimizedAffinity>  (140) 
-8.94535

$$$$
data/200k_reference_output/data/smiles/12433.pdb
     RDKit          3D

 22 24  0  0  0  0  0  0  0  0999 V2000
   69.0317   47.4532   54.0113 C   0  0  0  0  0  0  0  0  0  0  0  0
   68.3441   46.3086   53.7277 C   0  0  0  0  0  0  0  0  0  0  0  0
   68.0101   45.4111   54.7237 C   0  0  0  0  0  0  0  0  0  0  0  0
   68.3864   45.6966   56.0050 N   0  0  0  0  0  0  0  0  0  0  0  0
   69.0586   46.8113   56.2983 C   0  0  0  0  0  0  0  0  0  0  0  0
   69.3607   47.6544   55.3023 N   0  0  0  0  0  0  0  0  0  0  0  0
   70.0166   47.0701   51.1151 O   0  0  0  0  0  0  0  0  0  0  0  0
   69.8500   48.1870   51.7085 C   0  0  0  0  0  0  0  0  0  0  0  0
   70.1025   49.3682   51.1158 N   0  0  0  0  0  0  0  0  0  0  0  0
   69.8383   50.3553   51.9801 N   0  0  0  0  0  0  0  0  0  0  0  0
   69.4172   49.8114   53.1263 C   0  0  0  0  0  0  0  0  0  0  0  0
   69.4127   48.4224   52.9894 C   0  0  0  0  0  0  0  0  0  0  0  0
   69.4706   47.1228   57.5907 N   0  0  0  0  0  0  0  0  0  0  0  0
   70.6543   47.8091   57.9995 C   0  0  0  0  0  0  0  0  0  0  0  0
   70.4686   49.1059   58.6955 C   0  0  0  0  0  0  0  0  0  0  0  0
   69.6740   50.0343   57.8557 C   0  0  0  0  0  0  0  0  0  0  0  0
   70.2350   50.7728   56.8399 C   0  0  0  0  0  0  0  0  0  0  0  0
   69.4714   51.6186   56.0591 C   0  0  0  0  0  0  0  0  0  0  0  0
   68.1230   51.7468   56.2733 C   0  0  0  0  0  0  0  0  0  0  0  0
   67.5129   51.0165   57.2888 C   0  0  0  0  0  0  0  0  0  0  0  0
   66.1486   51.1641   57.4804 O   0  0  0  0  0  0  0  0  0  0  0  0
   68.3014   50.1890   58.0455 C   0  0  0  0  0  0  0  0  0  0  0  0
  7  8  2  0
  8  9  1  0
  8 12  1  0
  9 10  1  0
 10 11  1  0
 11 12  2  0
 12  1  1  0
  1  2  2  0
  1  6  1  0
  2  3  1  0
  3  4  2  0
  4  5  1  0
  5 13  1  0
  5  6  2  0
 13 14  1  0
 14 15  1  0
 15 16  1  0
 16 17  2  0
 16 22  1  0
 17 18  1  0
 18 19  2  0
 19 20  1  0
 20 21  1  0
 20 22  2  0
M  END
>  <minimizedAffinity>  (141) 
-8.86944

$$$$
data/200k_reference_output/data/smiles/12592.pdb
     RDKit          3D

 23 25  0  0  0  0  0  0  0  0999 V2000
   70.4073   49.1861   52.3862 S   0  0  0  0  0  0  0  0  0  0  0  0
   70.4759   48.8031   50.9324 O   0  0  0  0  0  0  0  0  0  0  0  0
   71.8373   49.0981   52.8949 O   0  0  0  0  0  0  0  0  0  0  0  0
   68.4987   46.9186   55.1202 C   0  0  0  0  0  0  0  0  0  0  0  0
   67.8542   45.9966   54.3317 C   0  0  0  0  0  0  0  0  0  0  0  0
   67.9968   46.0645   52.9665 C   0  0  0  0  0  0  0  0  0  0  0  0
   68.7653   47.0259   52.3516 C   0  0  0  0  0  0  0  0  0  0  0  0
   69.4171   47.9601   53.1666 C   0  0  0  0  0  0  0  0  0  0  0  0
   69.2823   47.9023   54.5303 C   0  0  0  0  0  0  0  0  0  0  0  0
   69.1415   46.1875   57.2155 O   0  0  0  0  0  0  0  0  0  0  0  0
   68.3761   46.8825   56.5374 N   0  0  0  0  0  0  0  0  0  0  0  0
   67.3912   47.6342   57.1431 O   0  0  0  0  0  0  0  0  0  0  0  0
   69.7637   50.7555   52.5976 N   0  0  0  0  0  0  0  0  0  0  0  0
   69.6333   51.4313   53.8193 C   0  0  0  0  0  0  0  0  0  0  0  0
   68.4760   51.4958   54.5691 C   0  0  0  0  0  0  0  0  0  0  0  0
   68.3592   52.1545   55.7692 C   0  0  0  0  0  0  0  0  0  0  0  0
   69.4511   52.8024   56.2837 C   0  0  0  0  0  0  0  0  0  0  0  0
   70.6438   52.7768   55.5808 C   0  0  0  0  0  0  0  0  0  0  0  0
   71.7437   53.4322   56.1039 C   0  0  0  0  0  0  0  0  0  0  0  0
   72.9520   53.4234   55.4233 C   0  0  0  0  0  0  0  0  0  0  0  0
   72.9705   52.7368   54.2283 C   0  0  0  0  0  0  0  0  0  0  0  0
   71.8921   52.1054   53.7356 N   0  0  0  0  0  0  0  0  0  0  0  0
   70.7253   52.1060   54.3805 C   0  0  0  0  0  0  0  0  0  0  0  0
 10 11  2  0
 11 12  1  0
 11  4  1  0
  4  5  2  0
  4  9  1  0
  5  6  1  0
  6  7  2  0
  7  8  1  0
  8  1  1  0
  8  9  2  0
  1  2  2  0
  1  3  2  0
  1 13  1  0
 13 14  1  0
 14 15  2  0
 14 23  1  0
 15 16  1  0
 16 17  2  0
 17 18  1  0
 18 19  1  0
 18 23  2  0
 19 20  2  0
 20 21  1  0
 21 22  2  0
 22 23  1  0
M  CHG  2  11   1  12  -1
M  END
>  <minimizedAffinity>  (142) 
-8.82978

$$$$
data/200k_reference_output/data/smiles/12633.pdb
     RDKit          3D

 25 27  0  0  0  0  0  0  0  0999 V2000
   71.7510   46.5242   58.9221 C   0  0  0  0  0  0  0  0  0  0  0  0
   70.7590   45.7678   58.1193 C   0  0  0  0  0  0  0  0  0  0  0  0
   69.8001   46.3561   57.3322 C   0  0  0  0  0  0  0  0  0  0  0  0
   69.7462   47.7117   57.2755 F   0  0  0  0  0  0  0  0  0  0  0  0
   68.8884   45.6282   56.5947 C   0  0  0  0  0  0  0  0  0  0  0  0
   68.9610   44.2954   56.6645 N   0  0  0  0  0  0  0  0  0  0  0  0
   69.8885   43.6310   57.4278 C   0  0  0  0  0  0  0  0  0  0  0  0
   70.7874   44.3650   58.1541 C   0  0  0  0  0  0  0  0  0  0  0  0
   71.6985   43.7136   58.9036 F   0  0  0  0  0  0  0  0  0  0  0  0
   67.9294   46.2726   55.8057 O   0  0  0  0  0  0  0  0  0  0  0  0
   68.2112   46.4933   54.4635 C   0  0  0  0  0  0  0  0  0  0  0  0
   67.6524   45.6564   53.5185 C   0  0  0  0  0  0  0  0  0  0  0  0
   67.9037   45.8369   52.1596 C   0  0  0  0  0  0  0  0  0  0  0  0
   68.7243   46.8645   51.7299 C   0  0  0  0  0  0  0  0  0  0  0  0
   69.2896   47.7089   52.6676 C   0  0  0  0  0  0  0  0  0  0  0  0
   69.0255   47.5110   54.0156 C   0  0  0  0  0  0  0  0  0  0  0  0
   70.1504   48.7856   52.1993 C   0  0  0  0  0  0  0  0  0  0  0  0
   69.9169   49.4177   51.0999 N   0  0  0  0  0  0  0  0  0  0  0  0
   71.2919   49.1759   52.9523 N   0  0  0  0  0  0  0  0  0  0  0  0
   69.8581   42.2877   57.4147 O   0  0  0  0  0  0  0  0  0  0  0  0
   69.0277   41.3185   57.8897 C   0  0  2  0  0  0  0  0  0  0  0  0
   69.7930   40.0408   58.3058 C   0  0  0  0  0  0  0  0  0  0  0  0
   68.6142   39.0756   58.4066 C   0  0  0  0  0  0  0  0  0  0  0  0
   67.7487   39.4021   57.3041 N   0  0  0  0  0  0  0  0  0  0  0  0
   68.1728   40.6732   56.7747 C   0  0  0  0  0  0  0  0  0  0  0  0
  1  2  1  0
  2  3  2  0
  2  8  1  0
  3  4  1  0
  3  5  1  0
  5 10  1  0
  5  6  2  0
 10 11  1  0
 11 12  2  0
 11 16  1  0
 12 13  1  0
 13 14  2  0
 14 15  1  0
 15 17  1  0
 15 16  2  0
 17 18  2  0
 17 19  1  0
  6  7  1  0
  7 20  1  0
  7  8  2  0
 21 20  1  6
 21 22  1  0
 21 25  1  0
 22 23  1  0
 23 24  1  0
 24 25  1  0
  8  9  1  0
M  CHG  2  18   1  24   1
M  END
>  <minimizedAffinity>  (143) 
-9.19297

$$$$
data/200k_reference_output/data/smiles/12750.pdb
     RDKit          3D

 26 28  0  0  0  0  0  0  0  0999 V2000
   69.7495   40.8184   58.9463 O   0  0  0  0  0  0  0  0  0  0  0  0
   70.8350   34.6436   60.3309 C   0  0  0  0  0  0  0  0  0  0  0  0
   71.3737   35.5084   59.2619 C   0  0  0  0  0  0  0  0  0  0  0  0
   72.2734   35.0451   58.3284 C   0  0  0  0  0  0  0  0  0  0  0  0
   72.7139   35.9356   57.3712 C   0  0  0  0  0  0  0  0  0  0  0  0
   73.5390   35.4863   56.5269 O   0  0  0  0  0  0  0  0  0  0  0  0
   72.3213   37.1838   57.3119 O   0  0  0  0  0  0  0  0  0  0  0  0
   71.4613   37.6778   58.1812 C   0  0  0  0  0  0  0  0  0  0  0  0
   71.0622   39.0134   58.0899 C   0  0  0  0  0  0  0  0  0  0  0  0
   70.1643   39.4981   59.0111 C   0  0  0  0  0  0  0  0  0  0  0  0
   69.6926   38.6492   59.9882 C   0  0  0  0  0  0  0  0  0  0  0  0
   70.0840   37.3321   60.0802 C   0  0  0  0  0  0  0  0  0  0  0  0
   70.9811   36.8382   59.1651 C   0  0  0  0  0  0  0  0  0  0  0  0
   68.6829   41.2459   58.1225 C   0  0  0  0  0  0  0  0  0  0  0  0
   69.0174   42.4241   57.3207 C   0  0  0  0  0  0  0  0  0  0  0  0
   70.2330   42.6739   57.1177 O   0  0  0  0  0  0  0  0  0  0  0  0
   68.0759   43.3170   56.7491 N   0  0  0  0  0  0  0  0  0  0  0  0
   68.4760   44.4267   55.9914 N   0  0  0  0  0  0  0  0  0  0  0  0
   67.9406   44.7506   54.8779 C   0  0  0  0  0  0  0  0  0  0  0  0
   68.3526   45.9089   54.0816 C   0  0  0  0  0  0  0  0  0  0  0  0
   68.7944   47.0730   54.6767 C   0  0  0  0  0  0  0  0  0  0  0  0
   69.1838   48.1654   53.9299 C   0  0  0  0  0  0  0  0  0  0  0  0
   69.1487   48.1454   52.5510 C   0  0  0  0  0  0  0  0  0  0  0  0
   69.5304   49.2195   51.8052 F   0  0  0  0  0  0  0  0  0  0  0  0
   68.7085   46.9866   51.9487 C   0  0  0  0  0  0  0  0  0  0  0  0
   68.3210   45.8969   52.7026 C   0  0  0  0  0  0  0  0  0  0  0  0
  2  3  1  0
  3  4  2  0
  3 13  1  0
  4  5  1  0
  5  6  2  0
  5  7  1  0
  7  8  1  0
  8  9  1  0
  8 13  2  0
  9 10  2  0
 10  1  1  0
 10 11  1  0
  1 14  1  0
 14 15  1  0
 15 16  2  0
 15 17  1  0
 17 18  1  0
 18 19  2  0
 19 20  1  0
 20 21  2  0
 20 26  1  0
 21 22  1  0
 22 23  2  0
 23 24  1  0
 23 25  1  0
 25 26  2  0
 11 12  2  0
 12 13  1  0
M  END
>  <minimizedAffinity>  (144) 
-8.90127

$$$$
data/200k_reference_output/data/smiles/12796.pdb
     RDKit          3D

 32 35  0  0  0  0  0  0  0  0999 V2000
   70.2368   45.2747   58.2678 C   0  0  2  0  0  0  0  0  0  0  0  0
   69.6769   45.5200   56.9259 N   0  0  0  0  0  0  0  0  0  0  0  0
   69.2973   46.6305   56.3796 C   0  0  0  0  0  0  0  0  0  0  0  0
   69.2892   47.9125   57.0672 C   0  0  0  0  0  0  0  0  0  0  0  0
   68.2013   48.6560   56.6923 C   0  0  0  0  0  0  0  0  0  0  0  0
   68.0981   49.9232   57.2300 C   0  0  0  0  0  0  0  0  0  0  0  0
   69.0474   50.4055   58.1030 C   0  0  0  0  0  0  0  0  0  0  0  0
   70.1423   49.6528   58.4855 C   0  0  0  0  0  0  0  0  0  0  0  0
   70.2676   48.3887   57.9635 C   0  0  0  0  0  0  0  0  0  0  0  0
   71.3817   47.6560   58.4751 N   0  0  0  0  0  0  0  0  0  0  0  0
   71.4089   46.2057   58.4937 C   0  0  0  0  0  0  0  0  0  0  0  0
   72.5374   45.7055   58.7252 O   0  0  0  0  0  0  0  0  0  0  0  0
   68.7933   46.5151   55.0238 C   0  0  0  0  0  0  0  0  0  0  0  0
   68.0171   45.5317   54.5155 C   0  0  0  0  0  0  0  0  0  0  0  0
   67.6582   45.4776   53.1958 C   0  0  0  0  0  0  0  0  0  0  0  0
   68.0879   46.4539   52.3258 C   0  0  0  0  0  0  0  0  0  0  0  0
   68.8765   47.4667   52.8203 C   0  0  0  0  0  0  0  0  0  0  0  0
   69.2340   47.5136   54.1434 C   0  0  0  0  0  0  0  0  0  0  0  0
   69.8416   42.7843   58.2944 C   0  0  0  0  0  0  0  0  0  0  0  0
   68.6126   43.0212   58.1709 O   0  0  0  0  0  0  0  0  0  0  0  0
   70.6909   43.9200   58.3462 N   0  0  0  0  0  0  0  0  0  0  0  0
   71.4691   37.2345   58.5754 C   0  0  0  0  0  0  0  0  0  0  0  0
   71.0643   38.6758   58.5058 C   0  0  0  0  0  0  0  0  0  0  0  0
   69.7559   39.0454   58.2731 C   0  0  0  0  0  0  0  0  0  0  0  0
   69.3932   40.3738   58.2117 C   0  0  0  0  0  0  0  0  0  0  0  0
   70.3008   41.4017   58.3737 C   0  0  0  0  0  0  0  0  0  0  0  0
   71.6074   41.0360   58.6057 C   0  0  0  0  0  0  0  0  0  0  0  0
   71.9817   39.6915   58.6701 C   0  0  0  0  0  0  0  0  0  0  0  0
   73.3000   39.3225   58.9041 O   0  0  0  0  0  0  0  0  0  0  0  0
   72.4827   48.3978   58.9616 C   0  0  0  0  0  0  0  0  0  0  0  0
   73.5668   48.5904   57.9611 C   0  0  0  0  0  0  0  0  0  0  0  0
   73.2969   48.9765   56.8622 O   0  0  0  0  0  0  0  0  0  0  0  0
 22 23  1  0
 23 24  2  0
 23 28  1  0
 24 25  1  0
 25 26  2  0
 26 19  1  0
 26 27  1  0
 19 20  2  0
 19 21  1  0
  1 21  1  6
  1  2  1  0
  1 11  1  0
  2  3  2  0
  3 13  1  0
  3  4  1  0
 13 14  2  0
 13 18  1  0
 14 15  1  0
 15 16  2  0
 16 17  1  0
 17 18  2  0
  4  5  1  0
  4  9  2  0
  5  6  2  0
  6  7  1  0
  7  8  2  0
  8  9  1  0
  9 10  1  0
 10 30  1  0
 10 11  1  0
 30 31  1  0
 31 32  2  0
 11 12  2  0
 27 28  2  0
 28 29  1  0
M  END
>  <minimizedAffinity>  (145) 
-8.78909

$$$$
data/200k_reference_output/data/smiles/12801.pdb
     RDKit          3D

 19 21  0  0  0  0  0  0  0  0999 V2000
   70.5992   48.4626   50.8075 O   0  0  0  0  0  0  0  0  0  0  0  0
   70.3830   48.4583   52.0560 C   0  0  0  0  0  0  0  0  0  0  0  0
   71.0652   49.2713   52.8802 N   0  0  0  0  0  0  0  0  0  0  0  0
   70.8483   49.2763   54.1841 N   0  0  0  0  0  0  0  0  0  0  0  0
   69.9250   48.4615   54.7783 C   0  0  0  0  0  0  0  0  0  0  0  0
   69.2290   47.6319   53.9348 C   0  0  0  0  0  0  0  0  0  0  0  0
   68.2702   46.8059   54.4748 C   0  0  0  0  0  0  0  0  0  0  0  0
   67.5293   45.9631   53.6710 C   0  0  0  0  0  0  0  0  0  0  0  0
   67.7398   45.9349   52.2873 C   0  0  0  0  0  0  0  0  0  0  0  0
   68.6901   46.7550   51.7416 C   0  0  0  0  0  0  0  0  0  0  0  0
   69.4215   47.5893   52.5471 C   0  0  0  0  0  0  0  0  0  0  0  0
   69.7969   48.5119   56.2371 C   0  0  0  0  0  0  0  0  0  0  0  0
   68.7627   49.4829   56.6751 C   0  0  0  0  0  0  0  0  0  0  0  0
   68.8014   50.8340   56.4443 C   0  0  0  0  0  0  0  0  0  0  0  0
   67.8278   51.7006   56.8952 C   0  0  0  0  0  0  0  0  0  0  0  0
   66.7529   51.2427   57.6097 C   0  0  0  0  0  0  0  0  0  0  0  0
   66.6732   49.8903   57.8642 C   0  0  0  0  0  0  0  0  0  0  0  0
   67.6428   49.0311   57.4138 C   0  0  0  0  0  0  0  0  0  0  0  0
   67.5736   47.7076   57.6620 F   0  0  0  0  0  0  0  0  0  0  0  0
  1  2  2  0
  2  3  1  0
  2 11  1  0
  3  4  1  0
  4  5  2  0
  5 12  1  0
  5  6  1  0
 12 13  1  0
 13 14  2  0
 13 18  1  0
 14 15  1  0
 15 16  2  0
 16 17  1  0
 17 18  2  0
 18 19  1  0
  6  7  1  0
  6 11  2  0
  7  8  2  0
  8  9  1  0
  9 10  2  0
 10 11  1  0
M  END
>  <minimizedAffinity>  (146) 
-8.57279

$$$$
data/200k_reference_output/data/smiles/12876.pdb
     RDKit          3D

 27 30  0  0  0  0  0  0  0  0999 V2000
   68.5120   43.2106   56.4768 C   0  0  0  0  0  0  0  0  0  0  0  0
   67.4994   42.2750   56.5022 C   0  0  0  0  0  0  0  0  0  0  0  0
   67.6875   41.0551   57.1259 C   0  0  0  0  0  0  0  0  0  0  0  0
   68.8771   40.7256   57.7385 C   0  0  0  0  0  0  0  0  0  0  0  0
   69.8967   41.6474   57.7218 C   0  0  0  0  0  0  0  0  0  0  0  0
   69.6982   42.8757   57.0909 C   0  0  0  0  0  0  0  0  0  0  0  0
   71.0178   41.0443   58.4229 C   0  0  0  0  0  0  0  0  0  0  0  0
   72.1179   41.6146   58.5929 O   0  0  0  0  0  0  0  0  0  0  0  0
   70.6880   39.7173   58.8870 N   0  0  0  0  0  0  0  0  0  0  0  0
   69.3428   39.5242   58.4572 C   0  0  0  0  0  0  0  0  0  0  0  0
   68.6200   38.4973   58.6429 O   0  0  0  0  0  0  0  0  0  0  0  0
   69.6297   45.5360   57.3443 O   0  0  0  0  0  0  0  0  0  0  0  0
   68.9133   45.6309   56.3144 C   0  0  0  0  0  0  0  0  0  0  0  0
   68.2982   44.4572   55.8115 N   0  0  0  0  0  0  0  0  0  0  0  0
   68.7582   46.9892   55.6896 C   0  0  0  0  0  0  0  0  0  0  0  0
   68.6143   46.8884   54.2267 C   0  0  0  0  0  0  0  0  0  0  0  0
   69.3923   47.7571   53.4500 C   0  0  0  0  0  0  0  0  0  0  0  0
   69.3449   47.7298   52.0867 C   0  0  0  0  0  0  0  0  0  0  0  0
   68.5318   46.8466   51.4383 C   0  0  0  0  0  0  0  0  0  0  0  0
   67.7437   45.9652   52.1902 C   0  0  0  0  0  0  0  0  0  0  0  0
   67.8022   46.0053   53.5747 C   0  0  0  0  0  0  0  0  0  0  0  0
   71.5457   38.8435   59.6550 C   0  0  0  0  0  0  0  0  0  0  0  0
   72.6249   38.1536   58.8287 C   0  0  2  0  0  0  0  0  0  0  0  0
   72.0430   37.1818   57.8753 C   0  0  0  0  0  0  0  0  0  0  0  0
   72.3470   35.8197   58.5119 C   0  0  0  0  0  0  0  0  0  0  0  0
   73.6546   36.1906   59.1972 C   0  0  0  0  0  0  0  0  0  0  0  0
   73.4919   37.4606   59.6457 O   0  0  0  0  0  0  0  0  0  0  0  0
 12 13  2  0
 13 15  1  0
 13 14  1  0
 15 16  1  0
 16 17  2  0
 16 21  1  0
 17 18  1  0
 18 19  2  0
 19 20  1  0
 20 21  2  0
 14  1  1  0
  1  2  2  0
  1  6  1  0
  2  3  1  0
  3  4  2  0
  4  5  1  0
  4 10  1  0
  5  6  2  0
  5  7  1  0
  7  8  2  0
  7  9  1  0
  9 22  1  0
  9 10  1  0
 23 22  1  1
 23 24  1  0
 23 27  1  0
 24 25  1  0
 25 26  1  0
 26 27  1  0
 10 11  2  0
M  END
>  <minimizedAffinity>  (147) 
-8.60206

$$$$
data/200k_reference_output/data/smiles/12973.pdb
     RDKit          3D

 24 26  0  0  0  0  0  0  0  0999 V2000
   69.7109   50.2607   53.1000 C   0  0  0  0  0  0  0  0  0  0  0  0
   70.3422   50.5740   54.4260 C   0  0  1  0  0  0  0  0  0  0  0  0
   71.3388   49.6433   54.6727 O   0  0  0  0  0  0  0  0  0  0  0  0
   70.9640   51.9149   54.3559 C   0  0  0  0  0  0  0  0  0  0  0  0
   71.8419   52.2307   53.5149 O   0  0  0  0  0  0  0  0  0  0  0  0
   70.3723   52.6870   55.3858 N   0  0  0  0  0  0  0  0  0  0  0  0
   69.4375   51.8676   56.0911 C   0  0  0  0  0  0  0  0  0  0  0  0
   68.6527   52.2179   57.1679 C   0  0  0  0  0  0  0  0  0  0  0  0
   67.8056   51.2987   57.7454 C   0  0  0  0  0  0  0  0  0  0  0  0
   67.7829   50.0329   57.1980 C   0  0  0  0  0  0  0  0  0  0  0  0
   66.6158   48.7157   57.9690 Br  0  0  0  0  0  0  0  0  0  0  0  0
   68.5770   49.6712   56.1040 C   0  0  0  0  0  0  0  0  0  0  0  0
   69.4143   50.6020   55.5446 C   0  0  0  0  0  0  0  0  0  0  0  0
   71.1011   48.8016   51.9060 O   0  0  0  0  0  0  0  0  0  0  0  0
   70.0218   48.9405   52.5808 C   0  0  0  0  0  0  0  0  0  0  0  0
   69.2157   47.7376   52.7529 C   0  0  0  0  0  0  0  0  0  0  0  0
   68.5769   47.1762   51.6636 C   0  0  0  0  0  0  0  0  0  0  0  0
   67.8140   46.0431   51.7987 C   0  0  0  0  0  0  0  0  0  0  0  0
   67.6386   45.4035   53.0061 C   0  0  0  0  0  0  0  0  0  0  0  0
   68.2858   45.9803   54.0849 C   0  0  0  0  0  0  0  0  0  0  0  0
   69.0576   47.1183   53.9723 C   0  0  0  0  0  0  0  0  0  0  0  0
   68.1484   45.3713   55.3664 N   0  0  0  0  0  0  0  0  0  0  0  0
   68.3809   46.0340   56.4071 O   0  0  0  0  0  0  0  0  0  0  0  0
   67.7579   44.0478   55.4653 O   0  0  0  0  0  0  0  0  0  0  0  0
 14 15  2  0
 15  1  1  0
 15 16  1  0
  1  2  1  0
  2  3  1  1
  2  4  1  0
  2 13  1  0
  4  5  2  0
  4  6  1  0
  6  7  1  0
  7  8  1  0
  7 13  2  0
  8  9  2  0
  9 10  1  0
 10 11  1  0
 10 12  2  0
 12 13  1  0
 16 17  2  0
 16 21  1  0
 17 18  1  0
 18 19  2  0
 19 20  1  0
 20 22  1  0
 20 21  2  0
 22 23  2  0
 22 24  1  0
M  CHG  2  22   1  24  -1
M  END
>  <minimizedAffinity>  (148) 
-8.56209

$$$$
data/200k_reference_output/data/smiles/13015.pdb
     RDKit          3D

 31 35  0  0  0  0  0  0  0  0999 V2000
   71.0004   47.3848   58.0779 C   0  0  0  0  0  0  0  0  0  0  0  0
   70.2716   46.2006   57.5913 C   0  0  0  0  0  0  0  0  0  0  0  0
   70.4124   44.8957   58.0918 C   0  0  0  0  0  0  0  0  0  0  0  0
   69.5619   44.0896   57.3737 C   0  0  0  0  0  0  0  0  0  0  0  0
   68.9519   44.8804   56.4958 N   0  0  0  0  0  0  0  0  0  0  0  0
   69.3618   46.1432   56.6091 N   0  0  0  0  0  0  0  0  0  0  0  0
   69.4911   42.6429   57.6983 C   0  0  0  0  0  0  0  0  0  0  0  0
   68.7087   41.9151   57.0326 O   0  0  0  0  0  0  0  0  0  0  0  0
   70.2994   42.1174   58.7436 N   0  0  0  0  0  0  0  0  0  0  0  0
   70.6908   43.0719   59.7438 C   0  0  0  0  0  0  0  0  0  0  0  0
   71.2637   44.3357   59.1543 C   0  0  0  0  0  0  0  0  0  0  0  0
   70.6799   40.7719   58.7862 C   0  0  1  0  0  0  0  0  0  0  0  0
   72.1466   40.5060   58.9960 C   0  0  0  0  0  0  0  0  0  0  0  0
   72.5545   39.3554   58.2735 O   0  0  0  0  0  0  0  0  0  0  0  0
   72.1275   38.0428   58.4986 C   0  0  0  0  0  0  0  0  0  0  0  0
   72.9089   37.0875   57.8892 C   0  0  0  0  0  0  0  0  0  0  0  0
   72.5775   35.7607   58.0460 C   0  0  0  0  0  0  0  0  0  0  0  0
   71.4807   35.3702   58.8004 C   0  0  0  0  0  0  0  0  0  0  0  0
   70.6981   36.3203   59.4107 C   0  0  0  0  0  0  0  0  0  0  0  0
   71.0232   37.6463   59.2579 C   0  0  0  0  0  0  0  0  0  0  0  0
   70.1276   38.5507   59.9449 N   0  0  0  0  0  0  0  0  0  0  0  0
   69.2827   37.8997   60.9487 C   0  0  0  0  0  0  0  0  0  0  0  0
   69.9561   39.9516   59.7882 C   0  0  0  0  0  0  0  0  0  0  0  0
   69.1289   40.4727   60.5707 O   0  0  0  0  0  0  0  0  0  0  0  0
   68.9051   47.2844   55.8048 C   0  0  0  0  0  0  0  0  0  0  0  0
   68.6471   46.8655   54.4117 C   0  0  0  0  0  0  0  0  0  0  0  0
   67.8470   45.7869   54.1345 C   0  0  0  0  0  0  0  0  0  0  0  0
   67.6578   45.4646   52.8067 C   0  0  0  0  0  0  0  0  0  0  0  0
   68.2216   46.1608   51.7634 C   0  0  0  0  0  0  0  0  0  0  0  0
   69.0292   47.2503   52.0577 C   0  0  0  0  0  0  0  0  0  0  0  0
   69.2333   47.5933   53.3995 C   0  0  0  0  0  0  0  0  0  0  0  0
  1  2  1  0
  2  3  2  0
  2  6  1  0
  3  4  1  0
  3 11  1  0
  4  5  2  0
  4  7  1  0
  5  6  1  0
  6 25  1  0
 25 26  1  0
 26 27  2  0
 26 31  1  0
 27 28  1  0
 28 29  2  0
 29 30  1  0
 30 31  2  0
  7  8  2  0
  7  9  1  0
 12  9  1  1
  9 10  1  0
 12 13  1  0
 12 23  1  0
 13 14  1  0
 14 15  1  0
 15 16  1  0
 15 20  2  0
 16 17  2  0
 17 18  1  0
 18 19  2  0
 19 20  1  0
 20 21  1  0
 21 22  1  0
 21 23  1  0
 23 24  2  0
 10 11  1  0
M  END
>  <minimizedAffinity>  (149) 
-8.80480

$$$$
data/200k_reference_output/data/smiles/13118.pdb
     RDKit          3D

 31 34  0  0  0  0  0  0  0  0999 V2000
   72.7620   48.6267   57.6282 C   0  0  0  0  0  0  0  0  0  0  0  0
   71.4453   48.7925   57.1636 C   0  0  0  0  0  0  0  0  0  0  0  0
   70.3892   48.0338   57.5272 C   0  0  0  0  0  0  0  0  0  0  0  0
   70.6211   46.9946   58.4438 C   0  0  0  0  0  0  0  0  0  0  0  0
   71.8920   46.7955   58.9236 C   0  0  0  0  0  0  0  0  0  0  0  0
   72.9490   47.6057   58.5177 C   0  0  0  0  0  0  0  0  0  0  0  0
   74.1470   47.2960   59.0471 F   0  0  0  0  0  0  0  0  0  0  0  0
   74.0049   50.6089   57.8147 O   0  0  0  0  0  0  0  0  0  0  0  0
   73.7986   49.5230   57.1815 C   0  0  0  0  0  0  0  0  0  0  0  0
   74.6557   49.2938   56.0453 N   0  0  0  0  0  0  0  0  0  0  0  0
   75.6519   50.2729   55.7045 C   0  0  0  0  0  0  0  0  0  0  0  0
   77.0229   49.8871   55.8434 C   0  0  0  0  0  0  0  0  0  0  0  0
   77.5220   49.3359   54.7437 O   0  0  0  0  0  0  0  0  0  0  0  0
   77.9368   49.9682   56.8835 N   0  0  0  0  0  0  0  0  0  0  0  0
   77.7877   50.4952   58.2119 C   0  0  0  0  0  0  0  0  0  0  0  0
   79.1292   50.4347   58.9737 C   0  0  0  0  0  0  0  0  0  0  0  0
   79.6804   49.0384   59.0315 C   0  0  0  0  0  0  0  0  0  0  0  0
   79.5371   48.3544   57.6783 C   0  0  0  0  0  0  0  0  0  0  0  0
   79.3268   49.4358   56.6390 C   0  0  0  0  0  0  0  0  0  0  0  0
   68.9916   48.2257   57.0256 C   0  0  0  0  0  0  0  0  0  0  0  0
   68.6651   47.3572   55.8708 C   0  0  0  0  0  0  0  0  0  0  0  0
   68.1732   46.1092   56.0739 N   0  0  0  0  0  0  0  0  0  0  0  0
   67.8794   45.2866   55.0752 N   0  0  0  0  0  0  0  0  0  0  0  0
   68.0632   45.6677   53.7816 C   0  0  0  0  0  0  0  0  0  0  0  0
   67.7837   44.8829   52.8462 O   0  0  0  0  0  0  0  0  0  0  0  0
   68.5578   46.9191   53.5344 C   0  0  0  0  0  0  0  0  0  0  0  0
   68.8629   47.7781   54.5780 C   0  0  0  0  0  0  0  0  0  0  0  0
   69.3461   49.0749   54.2727 N   0  0  0  0  0  0  0  0  0  0  0  0
   70.1436   49.3326   53.1060 C   0  0  0  0  0  0  0  0  0  0  0  0
   70.1167   48.1790   52.1544 C   0  0  0  0  0  0  0  0  0  0  0  0
   68.7976   47.4228   52.1525 C   0  0  0  0  0  0  0  0  0  0  0  0
  8  9  2  0
  9 10  1  0
  9  1  1  0
 10 11  1  0
 11 12  1  0
 12 13  2  0
 12 14  1  0
 14 15  1  0
 14 19  1  0
 15 16  1  0
 16 17  1  0
 17 18  1  0
 18 19  1  0
  1  2  2  0
  1  6  1  0
  2  3  1  0
  3 20  1  0
  3  4  2  0
 20 21  1  0
 21 22  2  0
 21 27  1  0
 22 23  1  0
 23 24  1  0
 24 25  2  0
 24 26  1  0
 26 27  2  0
 26 31  1  0
 27 28  1  0
 28 29  1  0
 29 30  1  0
 30 31  1  0
  4  5  1  0
  5  6  2  0
  6  7  1  0
M  END
>  <minimizedAffinity>  (150) 
-8.75564

$$$$
data/200k_reference_output/data/smiles/13138.pdb
     RDKit          3D

 26 28  0  0  0  0  0  0  0  0999 V2000
   68.3919   46.0305   54.0773 C   0  0  0  0  0  0  0  0  0  0  0  0
   67.8214   45.6290   52.8896 C   0  0  0  0  0  0  0  0  0  0  0  0
   67.9609   46.4065   51.7313 C   0  0  0  0  0  0  0  0  0  0  0  0
   68.6689   47.5882   51.7504 C   0  0  0  0  0  0  0  0  0  0  0  0
   69.2449   48.0008   52.9337 C   0  0  0  0  0  0  0  0  0  0  0  0
   69.0931   47.2177   54.0578 C   0  0  0  0  0  0  0  0  0  0  0  0
   67.8590   43.9137   55.3873 N   0  0  0  0  0  0  0  0  0  0  0  0
   68.2802   45.2636   55.3110 C   0  0  0  0  0  0  0  0  0  0  0  0
   68.5764   45.8265   56.3959 O   0  0  0  0  0  0  0  0  0  0  0  0
   67.0850   41.2176   55.4448 C   0  0  0  0  0  0  0  0  0  0  0  0
   67.4163   41.9832   56.6634 C   0  0  0  0  0  0  0  0  0  0  0  0
   67.7686   43.2159   56.6157 N   0  0  0  0  0  0  0  0  0  0  0  0
   67.3374   41.3063   57.9436 C   0  0  0  0  0  0  0  0  0  0  0  0
   66.4812   41.7429   58.9476 C   0  0  0  0  0  0  0  0  0  0  0  0
   66.3949   41.1120   60.1688 C   0  0  0  0  0  0  0  0  0  0  0  0
   67.1769   39.9959   60.4413 C   0  0  0  0  0  0  0  0  0  0  0  0
   68.0354   39.5437   59.4627 C   0  0  0  0  0  0  0  0  0  0  0  0
   68.0999   40.1957   58.2498 C   0  0  0  0  0  0  0  0  0  0  0  0
   70.1423   49.4888   52.9759 S   0  0  0  0  0  0  0  0  0  0  0  0
   69.7599   50.2799   51.7510 O   0  0  0  0  0  0  0  0  0  0  0  0
   71.6070   49.1361   52.9487 O   0  0  0  0  0  0  0  0  0  0  0  0
   69.8492   50.3864   54.4155 N   0  0  0  0  0  0  0  0  0  0  0  0
   68.5918   51.1288   54.3046 C   0  0  0  0  0  0  0  0  0  0  0  0
   68.7472   52.2659   55.3046 C   0  0  0  0  0  0  0  0  0  0  0  0
   70.2245   52.3170   55.6052 C   0  0  0  0  0  0  0  0  0  0  0  0
   70.8045   51.4800   54.4703 C   0  0  0  0  0  0  0  0  0  0  0  0
 10 11  1  0
 11 12  2  0
 11 13  1  0
 12  7  1  0
  7  8  1  0
  8  9  2  0
  8  1  1  0
  1  2  2  0
  1  6  1  0
  2  3  1  0
  3  4  2  0
  4  5  1  0
  5 19  1  0
  5  6  2  0
 19 20  2  0
 19 21  2  0
 19 22  1  0
 22 23  1  0
 22 26  1  0
 23 24  1  0
 24 25  1  0
 25 26  1  0
 13 14  2  0
 13 18  1  0
 14 15  1  0
 15 16  2  0
 16 17  1  0
 17 18  2  0
M  END
>  <minimizedAffinity>  (151) 
-8.51939

$$$$
data/200k_reference_output/data/smiles/13195.pdb
     RDKit          3D

 24 26  0  0  0  0  0  0  0  0999 V2000
   69.2262   49.3030   54.1046 C   0  0  2  0  0  0  0  0  0  0  0  0
   69.1961   50.2501   55.2845 C   0  0  0  0  0  0  0  0  0  0  0  0
   69.7926   49.9145   56.4870 C   0  0  0  0  0  0  0  0  0  0  0  0
   69.7218   50.8386   57.5213 C   0  0  0  0  0  0  0  0  0  0  0  0
   69.0830   52.0554   57.3733 C   0  0  0  0  0  0  0  0  0  0  0  0
   68.4997   52.3583   56.1617 C   0  0  0  0  0  0  0  0  0  0  0  0
   68.5534   51.4566   55.1096 C   0  0  0  0  0  0  0  0  0  0  0  0
   67.9865   51.7298   53.9039 F   0  0  0  0  0  0  0  0  0  0  0  0
   68.9654   47.9171   54.5658 C   0  0  0  0  0  0  0  0  0  0  0  0
   68.4059   46.9674   53.7086 C   0  0  0  0  0  0  0  0  0  0  0  0
   68.1738   45.6725   54.1282 C   0  0  0  0  0  0  0  0  0  0  0  0
   68.4724   45.2372   55.4001 C   0  0  0  0  0  0  0  0  0  0  0  0
   69.0295   46.1875   56.2517 C   0  0  0  0  0  0  0  0  0  0  0  0
   69.2641   47.4821   55.8367 C   0  0  0  0  0  0  0  0  0  0  0  0
   68.2347   43.8736   55.8615 C   0  0  0  0  0  0  0  0  0  0  0  0
   69.0163   43.1872   56.7497 C   0  0  0  0  0  0  0  0  0  0  0  0
   68.7223   41.8902   57.1404 C   0  0  0  0  0  0  0  0  0  0  0  0
   67.6070   41.2716   56.6190 C   0  0  0  0  0  0  0  0  0  0  0  0
   66.8635   41.9762   55.7497 N   0  0  0  0  0  0  0  0  0  0  0  0
   67.1599   43.2137   55.3879 N   0  0  0  0  0  0  0  0  0  0  0  0
   70.8382   49.0698   52.3244 O   0  0  0  0  0  0  0  0  0  0  0  0
   70.5839   49.4464   53.4906 C   0  0  0  0  0  0  0  0  0  0  0  0
   71.6336   50.0283   54.2426 N   0  0  0  0  0  0  0  0  0  0  0  0
   72.8657   50.1556   53.6819 O   0  0  0  0  0  0  0  0  0  0  0  0
 21 22  2  0
 22 23  1  0
  1 22  1  1
 23 24  1  0
  1  9  1  0
  1  2  1  0
  9 10  2  0
  9 14  1  0
 10 11  1  0
 11 12  2  0
 12 15  1  0
 12 13  1  0
 15 16  2  0
 15 20  1  0
 16 17  1  0
 17 18  2  0
 18 19  1  0
 19 20  2  0
 13 14  2  0
  2  3  2  0
  2  7  1  0
  3  4  1  0
  4  5  2  0
  5  6  1  0
  6  7  2  0
  7  8  1  0
M  END
>  <minimizedAffinity>  (152) 
-8.67671

$$$$
data/200k_reference_output/data/smiles/13227.pdb
     RDKit          3D

 26 28  0  0  0  0  0  0  0  0999 V2000
   68.5816   39.7580   59.6571 N   0  0  0  0  0  0  0  0  0  0  0  0
   68.0375   39.0701   58.5716 C   0  0  0  0  0  0  0  0  0  0  0  0
   68.1591   39.8564   57.2997 C   0  0  0  0  0  0  0  0  0  0  0  0
   68.2066   41.3268   57.6416 C   0  0  0  0  0  0  0  0  0  0  0  0
   67.2382   41.5342   58.8146 C   0  0  0  0  0  0  0  0  0  0  0  0
   67.9768   40.9746   60.0377 C   0  0  0  0  0  0  0  0  0  0  0  0
   70.1347   39.4388   60.1478 S   0  0  0  0  0  0  0  0  0  0  0  0
   71.0018   40.6476   59.9408 O   0  0  0  0  0  0  0  0  0  0  0  0
   70.1425   39.1693   61.6473 O   0  0  0  0  0  0  0  0  0  0  0  0
   72.7252   34.6575   57.5187 C   0  0  0  0  0  0  0  0  0  0  0  0
   72.1002   35.8420   58.1457 C   0  0  0  0  0  0  0  0  0  0  0  0
   72.2532   37.1047   57.6133 C   0  0  0  0  0  0  0  0  0  0  0  0
   71.6563   38.2147   58.2179 C   0  0  0  0  0  0  0  0  0  0  0  0
   70.8973   38.0798   59.3626 C   0  0  0  0  0  0  0  0  0  0  0  0
   70.7649   36.7913   59.8694 C   0  0  0  0  0  0  0  0  0  0  0  0
   71.3496   35.6954   59.2810 C   0  0  0  0  0  0  0  0  0  0  0  0
   71.1381   34.0929   59.9797 Cl  0  0  0  0  0  0  0  0  0  0  0  0
   67.7846   42.1868   56.5330 C   0  0  0  0  0  0  0  0  0  0  0  0
   66.9858   41.7261   55.6781 O   0  0  0  0  0  0  0  0  0  0  0  0
   68.2156   43.5244   56.3435 N   0  0  0  0  0  0  0  0  0  0  0  0
   67.7925   44.3188   55.2722 N   0  0  0  0  0  0  0  0  0  0  0  0
   68.2926   45.6229   55.0189 C   0  0  0  0  0  0  0  0  0  0  0  0
   69.1612   46.0544   55.8211 O   0  0  0  0  0  0  0  0  0  0  0  0
   67.8485   46.4667   53.8881 C   0  0  0  0  0  0  0  0  0  0  0  0
   68.8252   46.9430   52.8752 C   0  0  0  0  0  0  0  0  0  0  0  0
   67.8460   45.8988   52.4911 C   0  0  0  0  0  0  0  0  0  0  0  0
 10 11  1  0
 11 12  2  0
 11 16  1  0
 12 13  1  0
 13 14  2  0
 14  7  1  0
 14 15  1  0
  7  8  2  0
  7  9  2  0
  7  1  1  0
  1  2  1  0
  1  6  1  0
  2  3  1  0
  3  4  1  0
  4 18  1  0
  4  5  1  0
 18 19  2  0
 18 20  1  0
 20 21  1  0
 21 22  1  0
 22 23  2  0
 22 24  1  0
 24 25  1  0
 24 26  1  0
 25 26  1  0
  5  6  1  0
 15 16  2  0
 16 17  1  0
M  END
>  <minimizedAffinity>  (153) 
-8.68972

$$$$
data/200k_reference_output/data/smiles/13293.pdb
     RDKit          3D

 27 30  0  0  0  0  0  0  0  0999 V2000
   67.9618   43.7955   55.9945 N   0  0  0  0  0  0  0  0  0  0  0  0
   68.7582   43.1231   56.9848 C   0  0  0  0  0  0  0  0  0  0  0  0
   69.5774   43.8551   57.6253 O   0  0  0  0  0  0  0  0  0  0  0  0
   68.6739   41.6966   57.2809 C   0  0  0  0  0  0  0  0  0  0  0  0
   67.6454   40.8622   57.1991 N   0  0  0  0  0  0  0  0  0  0  0  0
   68.0597   39.6740   57.6227 N   0  0  0  0  0  0  0  0  0  0  0  0
   69.3545   39.7203   57.9838 C   0  0  0  0  0  0  0  0  0  0  0  0
   69.7717   41.0038   57.7750 C   0  0  0  0  0  0  0  0  0  0  0  0
   71.1976   41.0983   58.1591 C   0  0  0  0  0  0  0  0  0  0  0  0
   71.5683   39.7657   58.6480 C   0  0  0  0  0  0  0  0  0  0  0  0
   72.7593   39.3033   59.1501 C   0  0  0  0  0  0  0  0  0  0  0  0
   72.9289   37.9798   59.5694 C   0  0  0  0  0  0  0  0  0  0  0  0
   74.1202   37.5634   60.0628 F   0  0  0  0  0  0  0  0  0  0  0  0
   71.8228   37.1664   59.4433 C   0  0  0  0  0  0  0  0  0  0  0  0
   70.6304   37.6359   58.9389 C   0  0  0  0  0  0  0  0  0  0  0  0
   70.4848   38.9402   58.5339 C   0  0  0  0  0  0  0  0  0  0  0  0
   68.4511   45.8776   54.9133 C   0  0  0  0  0  0  0  0  0  0  0  0
   68.1143   45.1745   55.7958 N   0  0  0  0  0  0  0  0  0  0  0  0
   69.5103   49.0777   53.4075 C   0  0  0  0  0  0  0  0  0  0  0  0
   69.1814   48.1010   54.2783 C   0  0  0  0  0  0  0  0  0  0  0  0
   68.8496   46.7665   53.8805 C   0  0  0  0  0  0  0  0  0  0  0  0
   68.8988   46.5800   52.5364 C   0  0  0  0  0  0  0  0  0  0  0  0
   69.2310   47.5438   51.5902 C   0  0  0  0  0  0  0  0  0  0  0  0
   69.5336   48.7897   52.0334 C   0  0  0  0  0  0  0  0  0  0  0  0
   69.8653   49.7733   51.1496 O   0  0  0  0  0  0  0  0  0  0  0  0
   68.9558   51.2936   54.3363 C   0  0  0  0  0  0  0  0  0  0  0  0
   69.8383   50.3737   53.7538 O   0  0  0  0  0  0  0  0  0  0  0  0
 26 27  1  0
 27 19  1  0
 19 20  2  0
 19 24  1  0
 20 21  1  0
 21 17  1  0
 21 22  2  0
 17 18  2  0
 18  1  1  0
  1  2  1  0
  2  3  2  0
  2  4  1  0
  4  5  2  0
  4  8  1  0
  5  6  1  0
  6  7  1  0
  7  8  2  0
  7 16  1  0
  8  9  1  0
  9 10  1  0
 10 11  1  0
 10 16  2  0
 11 12  2  0
 12 13  1  0
 12 14  1  0
 14 15  2  0
 15 16  1  0
 22 23  1  0
 23 24  2  0
 24 25  1  0
M  END
>  <minimizedAffinity>  (154) 
-8.92548

$$$$
data/200k_reference_output/data/smiles/13399.pdb
     RDKit          3D

 20 21  0  0  0  0  0  0  0  0999 V2000
   69.9585   49.1881   52.3980 S   0  0  0  0  0  0  0  0  0  0  0  0
   71.3451   48.9973   52.9540 O   0  0  0  0  0  0  0  0  0  0  0  0
   70.1368   49.3416   50.9032 O   0  0  0  0  0  0  0  0  0  0  0  0
   69.0924   47.7189   52.6785 C   0  0  0  0  0  0  0  0  0  0  0  0
   68.4712   47.0835   51.6319 C   0  0  0  0  0  0  0  0  0  0  0  0
   67.7567   45.9172   51.7607 C   0  0  0  0  0  0  0  0  0  0  0  0
   67.6511   45.3449   53.0072 C   0  0  0  0  0  0  0  0  0  0  0  0
   68.2690   45.9716   54.0676 C   0  0  0  0  0  0  0  0  0  0  0  0
   68.9816   47.1382   53.9291 C   0  0  0  0  0  0  0  0  0  0  0  0
   68.1487   45.3625   55.3586 N   0  0  0  0  0  0  0  0  0  0  0  0
   68.3749   46.0161   56.3985 O   0  0  0  0  0  0  0  0  0  0  0  0
   67.7850   44.0510   55.5087 O   0  0  0  0  0  0  0  0  0  0  0  0
   69.2694   50.5941   53.0159 N   0  0  0  0  0  0  0  0  0  0  0  0
   71.6172   54.0926   56.9021 C   0  0  0  0  0  0  0  0  0  0  0  0
   70.9693   53.1921   55.9138 C   0  0  0  0  0  0  0  0  0  0  0  0
   69.6088   52.9992   55.8641 C   0  0  0  0  0  0  0  0  0  0  0  0
   69.0261   52.1498   54.9284 C   0  0  0  0  0  0  0  0  0  0  0  0
   69.7879   51.4647   54.0084 C   0  0  0  0  0  0  0  0  0  0  0  0
   71.1355   51.6812   54.0874 N   0  0  0  0  0  0  0  0  0  0  0  0
   71.7049   52.4929   54.9803 C   0  0  0  0  0  0  0  0  0  0  0  0
 14 15  1  0
 15 16  2  0
 15 20  1  0
 16 17  1  0
 17 18  2  0
 18 13  1  0
 18 19  1  0
 13  1  1  0
  1  2  2  0
  1  3  2  0
  1  4  1  0
  4  5  2  0
  4  9  1  0
  5  6  1  0
  6  7  2  0
  7  8  1  0
  8 10  1  0
  8  9  2  0
 10 11  2  0
 10 12  1  0
 19 20  2  0
M  CHG  2  10   1  12  -1
M  END
>  <minimizedAffinity>  (155) 
-8.50658

$$$$
data/200k_reference_output/data/smiles/13496.pdb
     RDKit          3D

 22 25  0  0  0  0  0  0  0  0999 V2000
   69.2427   47.6804   52.4351 C   0  0  0  0  0  0  0  0  0  0  0  0
   68.8084   46.7996   51.4704 C   0  0  0  0  0  0  0  0  0  0  0  0
   67.9471   45.7908   51.8366 C   0  0  0  0  0  0  0  0  0  0  0  0
   67.5340   45.6724   53.1446 C   0  0  0  0  0  0  0  0  0  0  0  0
   67.9662   46.5531   54.1210 C   0  0  0  0  0  0  0  0  0  0  0  0
   67.7465   46.6934   55.4399 N   0  0  0  0  0  0  0  0  0  0  0  0
   68.4292   47.7426   55.9201 C   0  0  0  0  0  0  0  0  0  0  0  0
   69.0903   48.2718   54.8798 N   0  0  0  0  0  0  0  0  0  0  0  0
   68.8296   47.5637   53.7480 C   0  0  0  0  0  0  0  0  0  0  0  0
   68.4440   48.2240   57.3491 C   0  0  2  0  0  0  0  0  0  0  0  0
   67.2005   49.0526   57.5990 C   0  0  0  0  0  0  0  0  0  0  0  0
   67.6949   50.4479   57.9264 C   0  0  0  0  0  0  0  0  0  0  0  0
   69.0021   50.4439   57.4550 N   0  0  2  0  0  0  0  0  0  0  0  0
   69.6142   49.2101   57.4909 C   0  0  0  0  0  0  0  0  0  0  0  0
   69.6965   51.6209   57.2283 C   0  0  0  0  0  0  0  0  0  0  0  0
   68.9422   52.7372   56.5903 C   0  0  0  0  0  0  0  0  0  0  0  0
   69.1852   52.6241   55.0926 C   0  0  0  0  0  0  0  0  0  0  0  0
   70.3131   51.6259   54.9537 C   0  0  0  0  0  0  0  0  0  0  0  0
   70.9032   51.4774   56.3246 C   0  0  0  0  0  0  0  0  0  0  0  0
   69.7683   49.6444   51.0239 N   0  0  0  0  0  0  0  0  0  0  0  0
   70.1462   48.7425   52.0616 C   0  0  0  0  0  0  0  0  0  0  0  0
   71.2470   48.8620   52.6467 O   0  0  0  0  0  0  0  0  0  0  0  0
 20 21  1  0
 21 22  2  0
 21  1  1  0
  1  2  2  0
  1  9  1  0
  2  3  1  0
  3  4  2  0
  4  5  1  0
  5  6  1  0
  5  9  2  0
  6  7  1  0
 10  7  1  6
  7  8  2  0
 10 11  1  0
 10 14  1  0
 11 12  1  0
 12 13  1  0
 13 15  1  1
 13 14  1  0
 15 16  1  0
 15 19  1  0
 16 17  1  0
 17 18  1  0
 18 19  1  0
  8  9  1  0
M  CHG  2   8   1  13   1
M  END
>  <minimizedAffinity>  (156) 
-8.51823

$$$$
data/200k_reference_output/data/smiles/13537.pdb
     RDKit          3D

 27 28  0  0  0  0  0  0  0  0999 V2000
   69.1793   47.8745   56.9807 S   0  0  0  0  0  0  0  0  0  0  0  0
   67.8031   47.3547   57.2840 O   0  0  0  0  0  0  0  0  0  0  0  0
   69.4878   49.0351   57.8726 O   0  0  0  0  0  0  0  0  0  0  0  0
   70.3363   46.5962   57.3184 C   0  0  0  0  0  0  0  0  0  0  0  0
   69.9612   45.3450   57.4526 C   0  0  0  0  0  0  0  0  0  0  0  0
   70.9012   44.2740   57.7324 C   0  0  0  0  0  0  0  0  0  0  0  0
   72.2060   44.4342   58.1075 C   0  0  0  0  0  0  0  0  0  0  0  0
   73.0734   43.3789   58.3665 C   0  0  0  0  0  0  0  0  0  0  0  0
   72.6058   42.0897   58.2405 C   0  0  0  0  0  0  0  0  0  0  0  0
   71.3028   41.8910   57.8663 C   0  0  0  0  0  0  0  0  0  0  0  0
   70.4507   42.9456   57.6112 C   0  0  0  0  0  0  0  0  0  0  0  0
   69.0669   42.6788   57.2133 C   0  0  0  0  0  0  0  0  0  0  0  0
   68.9934   41.4209   56.6521 F   0  0  0  0  0  0  0  0  0  0  0  0
   68.6518   43.5674   56.2143 F   0  0  0  0  0  0  0  0  0  0  0  0
   68.1872   42.6930   58.2782 F   0  0  0  0  0  0  0  0  0  0  0  0
   69.2048   48.3293   55.3181 N   0  0  0  0  0  0  0  0  0  0  0  0
   69.0855   47.8058   52.9731 C   0  0  0  0  0  0  0  0  0  0  0  0
   68.7251   47.0210   51.9054 C   0  0  0  0  0  0  0  0  0  0  0  0
   68.0502   45.8450   52.1393 C   0  0  0  0  0  0  0  0  0  0  0  0
   67.7474   45.4737   53.4284 C   0  0  0  0  0  0  0  0  0  0  0  0
   67.0730   44.2979   53.6556 F   0  0  0  0  0  0  0  0  0  0  0  0
   68.1248   46.2862   54.4801 C   0  0  0  0  0  0  0  0  0  0  0  0
   68.8012   47.4691   54.2751 C   0  0  0  0  0  0  0  0  0  0  0  0
   69.0790   50.5503   53.5169 N   0  0  0  0  0  0  0  0  0  0  0  0
   69.9405   49.2940   52.6642 S   0  0  0  0  0  0  0  0  0  0  0  0
   69.9613   49.5832   51.1898 O   0  0  0  0  0  0  0  0  0  0  0  0
   71.3029   49.2185   53.2459 O   0  0  0  0  0  0  0  0  0  0  0  0
 24 25  1  0
 25 26  2  0
 25 27  2  0
 25 17  1  0
 17 18  2  0
 17 23  1  0
 18 19  1  0
 19 20  2  0
 20 21  1  0
 20 22  1  0
 22 23  2  0
 23 16  1  0
 16  1  1  0
  1  2  2  0
  1  3  2  0
  1  4  1  0
  4  5  2  0
  5  6  1  0
  6  7  2  0
  6 11  1  0
  7  8  1  0
  8  9  2  0
  9 10  1  0
 10 11  2  0
 11 12  1  0
 12 13  1  0
 12 14  1  0
 12 15  1  0
M  END
>  <minimizedAffinity>  (157) 
-8.53325

$$$$
data/200k_reference_output/data/smiles/13728.pdb
     RDKit          3D

 28 30  0  0  0  0  0  0  0  0999 V2000
   70.4172   53.1461   55.8650 C   0  0  0  0  0  0  0  0  0  0  0  0
   70.6461   51.9539   55.0310 N   0  0  0  0  0  0  0  0  0  0  0  0
   69.5481   51.4260   54.3524 C   0  0  0  0  0  0  0  0  0  0  0  0
   68.4146   51.9801   54.4875 O   0  0  0  0  0  0  0  0  0  0  0  0
   69.5715   50.2701   53.4760 C   0  0  0  0  0  0  0  0  0  0  0  0
   69.9707   50.3795   52.1859 N   0  0  0  0  0  0  0  0  0  0  0  0
   69.9800   49.3287   51.3894 N   0  0  0  0  0  0  0  0  0  0  0  0
   69.6058   48.1061   51.7820 C   0  0  0  0  0  0  0  0  0  0  0  0
   69.6178   47.1079   51.0149 O   0  0  0  0  0  0  0  0  0  0  0  0
   69.1857   47.9056   53.0768 C   0  0  0  0  0  0  0  0  0  0  0  0
   68.7993   46.6457   53.4835 C   0  0  0  0  0  0  0  0  0  0  0  0
   68.3859   46.4960   54.7891 C   0  0  0  0  0  0  0  0  0  0  0  0
   68.3688   47.5915   55.6428 C   0  0  0  0  0  0  0  0  0  0  0  0
   68.7575   48.8339   55.2141 C   0  0  0  0  0  0  0  0  0  0  0  0
   69.1779   49.0216   53.9169 C   0  0  0  0  0  0  0  0  0  0  0  0
   71.9912   51.4568   55.0156 C   0  0  0  0  0  0  0  0  0  0  0  0
   72.1533   50.4032   56.0395 C   0  0  0  0  0  0  0  0  0  0  0  0
   73.1393   49.5914   56.0136 O   0  0  0  0  0  0  0  0  0  0  0  0
   71.2458   50.2065   57.1202 N   0  0  0  0  0  0  0  0  0  0  0  0
   71.4771   49.1554   58.0709 C   0  0  0  0  0  0  0  0  0  0  0  0
   70.8955   47.9271   57.8363 C   0  0  0  0  0  0  0  0  0  0  0  0
   71.1231   46.8688   58.7227 C   0  0  0  0  0  0  0  0  0  0  0  0
   71.9244   47.0312   59.8343 C   0  0  0  0  0  0  0  0  0  0  0  0
   72.1470   46.0124   60.6903 F   0  0  0  0  0  0  0  0  0  0  0  0
   72.5026   48.2529   60.0679 C   0  0  0  0  0  0  0  0  0  0  0  0
   73.3057   48.4430   61.1588 F   0  0  0  0  0  0  0  0  0  0  0  0
   72.2659   49.2933   59.1804 C   0  0  0  0  0  0  0  0  0  0  0  0
   72.8437   50.4768   59.4276 F   0  0  0  0  0  0  0  0  0  0  0  0
  1  2  1  0
  2 16  1  0
  2  3  1  0
 16 17  1  0
 17 18  2  0
 17 19  1  0
 19 20  1  0
 20 21  2  0
 20 27  1  0
 21 22  1  0
 22 23  2  0
 23 24  1  0
 23 25  1  0
 25 26  1  0
 25 27  2  0
 27 28  1  0
  3  4  2  0
  3  5  1  0
  5  6  2  0
  5 15  1  0
  6  7  1  0
  7  8  1  0
  8  9  2  0
  8 10  1  0
 10 11  1  0
 10 15  2  0
 11 12  2  0
 12 13  1  0
 13 14  2  0
 14 15  1  0
M  END
>  <minimizedAffinity>  (158) 
-8.53560

$$$$
data/200k_reference_output/data/smiles/13786.pdb
     RDKit          3D

 33 36  0  0  0  0  0  0  0  0999 V2000
   65.5255   40.0126   61.0688 C   0  0  0  0  0  0  0  0  0  0  0  0
   66.2985   40.4149   60.0768 C   0  0  0  0  0  0  0  0  0  0  0  0
   66.7859   39.4895   59.2518 N   0  0  0  0  0  0  0  0  0  0  0  0
   67.5749   39.8860   58.2375 C   0  0  0  0  0  0  0  0  0  0  0  0
   68.0456   39.0311   57.4460 O   0  0  0  0  0  0  0  0  0  0  0  0
   67.8976   41.2277   58.0242 C   0  0  0  0  0  0  0  0  0  0  0  0
   68.6675   41.6158   57.0354 C   0  0  0  0  0  0  0  0  0  0  0  0
   67.4050   42.1562   58.8580 N   0  0  0  0  0  0  0  0  0  0  0  0
   66.6180   41.7457   59.8658 C   0  0  0  0  0  0  0  0  0  0  0  0
   66.1222   42.5690   60.6862 O   0  0  0  0  0  0  0  0  0  0  0  0
   68.9569   43.0337   56.8796 C   0  0  0  0  0  0  0  0  0  0  0  0
   69.9744   43.5898   57.6237 C   0  0  0  0  0  0  0  0  0  0  0  0
   70.3006   44.9317   57.5228 C   0  0  0  0  0  0  0  0  0  0  0  0
   69.6070   45.7518   56.6661 C   0  0  0  0  0  0  0  0  0  0  0  0
   68.5707   45.2191   55.8983 C   0  0  0  0  0  0  0  0  0  0  0  0
   68.2746   43.8763   56.0270 C   0  0  0  0  0  0  0  0  0  0  0  0
   67.8774   46.1117   55.0490 N   0  0  0  0  0  0  0  0  0  0  0  0
   68.5574   46.8114   54.0327 C   0  0  0  0  0  0  0  0  0  0  0  0
   68.6443   46.3050   52.7339 C   0  0  0  0  0  0  0  0  0  0  0  0
   69.2801   46.9705   51.7161 C   0  0  0  0  0  0  0  0  0  0  0  0
   69.8579   48.1903   51.9874 C   0  0  0  0  0  0  0  0  0  0  0  0
   70.5078   48.9090   51.0258 F   0  0  0  0  0  0  0  0  0  0  0  0
   69.8070   48.7428   53.2486 C   0  0  0  0  0  0  0  0  0  0  0  0
   69.1509   48.0324   54.2520 C   0  0  0  0  0  0  0  0  0  0  0  0
   65.8481   37.8159   62.2020 C   0  0  0  0  0  0  0  0  0  0  0  0
   65.3741   36.5623   62.0960 N   0  0  0  0  0  0  0  0  0  0  0  0
   64.4892   36.5674   61.0820 C   0  0  0  0  0  0  0  0  0  0  0  0
   64.4001   37.8002   60.5510 N   0  0  0  0  0  0  0  0  0  0  0  0
   65.2285   38.5733   61.2300 C   0  0  0  0  0  0  0  0  0  0  0  0
   66.5609   39.6794   63.6847 C   0  0  0  0  0  0  0  0  0  0  0  0
   66.8618   38.2747   63.2021 C   0  0  0  0  0  0  0  0  0  0  0  0
   68.2315   38.2448   62.5879 C   0  0  0  0  0  0  0  0  0  0  0  0
   66.8756   37.3787   64.4239 C   0  0  0  0  0  0  0  0  0  0  0  0
 30 31  1  0
 31 32  1  0
 31 33  1  0
 31 25  1  0
 25 26  1  0
 25 29  2  0
 26 27  1  0
 27 28  2  0
 28 29  1  0
 29  1  1  0
  1  2  2  0
  2  3  1  0
  2  9  1  0
  3  4  1  0
  4  5  2  0
  4  6  1  0
  6  7  2  0
  6  8  1  0
  7 11  1  0
 11 12  2  0
 11 16  1  0
 12 13  1  0
 13 14  2  0
 14 15  1  0
 15 17  1  0
 15 16  2  0
 17 18  1  0
 18 19  2  0
 18 24  1  0
 19 20  1  0
 20 21  2  0
 21 22  1  0
 21 23  1  0
 23 24  2  0
  8  9  1  0
  9 10  2  0
M  CHG  1  28   1
M  END
>  <minimizedAffinity>  (159) 
-9.47780

$$$$
data/200k_reference_output/data/smiles/13809.pdb
     RDKit          3D

 26 28  0  0  0  0  0  0  0  0999 V2000
   68.0025   43.3303   56.0579 C   0  0  0  0  0  0  0  0  0  0  0  0
   67.5566   41.7600   56.1500 S   0  0  0  0  0  0  0  0  0  0  0  0
   67.4839   44.1219   55.0275 N   0  0  0  0  0  0  0  0  0  0  0  0
   69.2273   47.6579   53.4221 C   0  0  0  0  0  0  0  0  0  0  0  0
   69.1630   47.4542   54.7822 C   0  0  0  0  0  0  0  0  0  0  0  0
   68.5874   46.3149   55.3361 C   0  0  0  0  0  0  0  0  0  0  0  0
   68.0537   45.3347   54.5373 C   0  0  0  0  0  0  0  0  0  0  0  0
   68.1192   45.5447   53.1600 C   0  0  0  0  0  0  0  0  0  0  0  0
   68.6879   46.6691   52.6143 C   0  0  0  0  0  0  0  0  0  0  0  0
   69.1795   50.5247   53.3128 N   0  0  0  0  0  0  0  0  0  0  0  0
   69.9608   49.0950   52.7245 S   0  0  0  0  0  0  0  0  0  0  0  0
   71.4069   49.1516   53.1232 O   0  0  0  0  0  0  0  0  0  0  0  0
   69.9118   49.0997   51.2354 O   0  0  0  0  0  0  0  0  0  0  0  0
   68.8879   43.8097   57.0219 N   0  0  0  0  0  0  0  0  0  0  0  0
   70.2000   43.3705   57.1270 N   0  0  0  0  0  0  0  0  0  0  0  0
   71.0993   44.0145   57.8275 C   0  0  0  0  0  0  0  0  0  0  0  0
   70.8809   45.2281   58.5727 C   0  0  0  0  0  0  0  0  0  0  0  0
   69.7873   45.8505   58.6896 O   0  0  0  0  0  0  0  0  0  0  0  0
   72.1416   45.5751   59.1450 N   0  0  0  0  0  0  0  0  0  0  0  0
   73.1441   44.6297   58.7902 C   0  0  0  0  0  0  0  0  0  0  0  0
   74.4952   44.5557   59.1017 C   0  0  0  0  0  0  0  0  0  0  0  0
   75.1182   45.4766   59.8754 F   0  0  0  0  0  0  0  0  0  0  0  0
   75.2606   43.5181   58.6156 C   0  0  0  0  0  0  0  0  0  0  0  0
   74.6291   42.5760   57.8220 C   0  0  0  0  0  0  0  0  0  0  0  0
   73.2865   42.6483   57.5111 C   0  0  0  0  0  0  0  0  0  0  0  0
   72.5060   43.6933   57.9977 C   0  0  0  0  0  0  0  0  0  0  0  0
 10 11  1  0
 11 12  2  0
 11 13  2  0
 11  4  1  0
  4  5  2  0
  4  9  1  0
  5  6  1  0
  6  7  2  0
  7  3  1  0
  7  8  1  0
  3  1  1  0
  1  2  2  0
  1 14  1  0
 14 15  1  0
 15 16  2  0
 16 17  1  0
 16 26  1  0
 17 18  2  0
 17 19  1  0
 19 20  1  0
 20 21  1  0
 20 26  2  0
 21 22  1  0
 21 23  2  0
 23 24  1  0
 24 25  2  0
 25 26  1  0
  8  9  2  0
M  END
>  <minimizedAffinity>  (160) 
-8.64291

$$$$
data/200k_reference_output/data/smiles/14154.pdb
     RDKit          3D

 27 29  0  0  0  0  0  0  0  0999 V2000
   71.3888   50.2664   55.8555 N   0  0  0  0  0  0  0  0  0  0  0  0
   71.0563   50.3617   54.4911 C   0  0  0  0  0  0  0  0  0  0  0  0
   71.4239   51.4243   53.9004 O   0  0  0  0  0  0  0  0  0  0  0  0
   70.3352   49.3288   53.7542 C   0  0  0  0  0  0  0  0  0  0  0  0
   70.4803   49.2457   52.3865 C   0  0  0  0  0  0  0  0  0  0  0  0
   69.8063   48.2726   51.6510 C   0  0  0  0  0  0  0  0  0  0  0  0
   68.9832   47.3801   52.3031 C   0  0  0  0  0  0  0  0  0  0  0  0
   68.3092   46.4205   51.6409 N   0  0  0  0  0  0  0  0  0  0  0  0
   67.4979   45.5354   52.2578 C   0  0  0  0  0  0  0  0  0  0  0  0
   66.8815   44.6506   51.6108 O   0  0  0  0  0  0  0  0  0  0  0  0
   67.3121   45.5695   53.6312 C   0  0  0  0  0  0  0  0  0  0  0  0
   67.9857   46.5353   54.3298 C   0  0  0  0  0  0  0  0  0  0  0  0
   67.8337   46.6101   55.6976 O   0  0  0  0  0  0  0  0  0  0  0  0
   68.8055   47.4237   53.6789 C   0  0  0  0  0  0  0  0  0  0  0  0
   69.5033   48.4161   54.3555 C   0  0  0  0  0  0  0  0  0  0  0  0
   72.1149   51.3146   56.5815 C   0  0  2  0  0  0  0  0  0  0  0  0
   75.3261   49.1643   56.9643 C   0  0  0  0  0  0  0  0  0  0  0  0
   74.0036   49.6234   56.5663 N   0  0  0  0  0  0  0  0  0  0  0  0
   73.4501   50.8573   56.9859 C   0  0  0  0  0  0  0  0  0  0  0  0
   74.1548   51.5753   57.7409 O   0  0  0  0  0  0  0  0  0  0  0  0
   71.2206   51.7153   57.7159 C   0  0  0  0  0  0  0  0  0  0  0  0
   69.8376   51.2717   57.6190 C   0  0  0  0  0  0  0  0  0  0  0  0
   69.5139   50.0168   58.0898 C   0  0  0  0  0  0  0  0  0  0  0  0
   68.2355   49.5078   58.0445 C   0  0  0  0  0  0  0  0  0  0  0  0
   67.2211   50.2658   57.5106 C   0  0  0  0  0  0  0  0  0  0  0  0
   67.5070   51.5217   57.0321 C   0  0  0  0  0  0  0  0  0  0  0  0
   68.7931   52.0127   57.0867 C   0  0  0  0  0  0  0  0  0  0  0  0
 17 18  1  0
 18 19  1  0
 19 20  2  0
 19 16  1  0
 16 21  1  1
 16  1  1  0
 21 22  1  0
 22 23  2  0
 22 27  1  0
 23 24  1  0
 24 25  2  0
 25 26  1  0
 26 27  2  0
  1  2  1  0
  2  3  2  0
  2  4  1  0
  4  5  2  0
  4 15  1  0
  5  6  1  0
  6  7  2  0
  7  8  1  0
  7 14  1  0
  8  9  1  0
  9 10  2  0
  9 11  1  0
 11 12  2  0
 12 13  1  0
 12 14  1  0
 14 15  2  0
M  END
>  <minimizedAffinity>  (161) 
-8.85103

$$$$
data/200k_reference_output/data/smiles/14182.pdb
     RDKit          3D

 26 29  0  0  0  0  0  0  0  0999 V2000
   72.2158   45.5140   59.6632 C   0  0  0  0  0  0  0  0  0  0  0  0
   72.6900   46.6786   60.2565 C   0  0  0  0  0  0  0  0  0  0  0  0
   72.1554   47.9051   59.9134 C   0  0  0  0  0  0  0  0  0  0  0  0
   71.1431   48.0261   58.9797 C   0  0  0  0  0  0  0  0  0  0  0  0
   70.6679   46.8853   58.3891 C   0  0  0  0  0  0  0  0  0  0  0  0
   69.6715   46.7010   57.4322 C   0  0  0  0  0  0  0  0  0  0  0  0
   69.6380   45.3712   57.2305 N   0  0  0  0  0  0  0  0  0  0  0  0
   70.5310   44.7564   57.9888 N   0  0  0  0  0  0  0  0  0  0  0  0
   71.2059   45.6696   58.7374 C   0  0  0  0  0  0  0  0  0  0  0  0
   68.6920   47.9285   56.6716 S   0  0  0  0  0  0  0  0  0  0  0  0
   68.8314   49.1818   57.4951 O   0  0  0  0  0  0  0  0  0  0  0  0
   67.2750   47.4473   56.6469 O   0  0  0  0  0  0  0  0  0  0  0  0
   69.2599   48.3107   55.0587 C   0  0  0  0  0  0  0  0  0  0  0  0
   70.1083   49.3716   54.8386 C   0  0  0  0  0  0  0  0  0  0  0  0
   70.5222   49.6269   53.5575 C   0  0  0  0  0  0  0  0  0  0  0  0
   70.0820   48.8230   52.5353 C   0  0  0  0  0  0  0  0  0  0  0  0
   69.2260   47.7487   52.7470 C   0  0  0  0  0  0  0  0  0  0  0  0
   68.7988   46.9561   51.7040 C   0  0  0  0  0  0  0  0  0  0  0  0
   67.9498   45.8909   51.9137 C   0  0  0  0  0  0  0  0  0  0  0  0
   67.5349   45.6378   53.2067 C   0  0  0  0  0  0  0  0  0  0  0  0
   67.9662   46.4354   54.2449 C   0  0  0  0  0  0  0  0  0  0  0  0
   68.8218   47.5108   54.0443 C   0  0  0  0  0  0  0  0  0  0  0  0
   72.7447   44.2489   59.9972 N   0  0  0  0  0  0  0  0  0  0  0  0
   72.4283   43.6229   61.2515 C   0  0  0  0  0  0  0  0  0  0  0  0
   70.2808   43.5268   62.4278 N   0  0  0  0  0  0  0  0  0  0  0  0
   71.0405   43.0566   61.2902 C   0  0  0  0  0  0  0  0  0  0  0  0
 25 26  1  0
 26 24  1  0
 24 23  1  0
 23  1  1  0
  1  2  2  0
  1  9  1  0
  2  3  1  0
  3  4  2  0
  4  5  1  0
  5  6  1  0
  5  9  2  0
  6 10  1  0
  6  7  2  0
 10 11  2  0
 10 12  2  0
 10 13  1  0
 13 14  2  0
 13 22  1  0
 14 15  1  0
 15 16  2  0
 16 17  1  0
 17 18  1  0
 17 22  2  0
 18 19  2  0
 19 20  1  0
 20 21  2  0
 21 22  1  0
  7  8  1  0
  8  9  1  0
M  CHG  1  25   1
M  END
>  <minimizedAffinity>  (162) 
-8.50060

$$$$
data/200k_reference_output/data/smiles/14231.pdb
     RDKit          3D

 27 30  0  0  0  0  0  0  0  0999 V2000
   72.1084   52.2417   57.9939 C   0  0  0  0  0  0  0  0  0  0  0  0
   73.0090   51.0149   57.7981 C   0  0  1  0  0  0  0  0  0  0  0  0
   73.9444   51.0126   58.9368 C   0  0  0  0  0  0  0  0  0  0  0  0
   74.8324   51.8732   59.2313 O   0  0  0  0  0  0  0  0  0  0  0  0
   73.7019   49.8482   59.7048 N   0  0  0  0  0  0  0  0  0  0  0  0
   74.2793   49.2823   60.9208 C   0  0  0  0  0  0  0  0  0  0  0  0
   74.1489   47.7767   60.8587 C   0  0  0  0  0  0  0  0  0  0  0  0
   72.7004   47.3478   60.7711 C   0  0  0  0  0  0  0  0  0  0  0  0
   72.1379   47.9484   59.5416 C   0  0  0  0  0  0  0  0  0  0  0  0
   71.1070   47.3878   58.8034 C   0  0  0  0  0  0  0  0  0  0  0  0
   70.6223   47.9926   57.6630 C   0  0  0  0  0  0  0  0  0  0  0  0
   71.1796   49.1831   57.2520 C   0  0  0  0  0  0  0  0  0  0  0  0
   72.2167   49.7793   57.9666 C   0  0  0  0  0  0  0  0  0  0  0  0
   72.6626   49.1390   59.0909 C   0  0  0  0  0  0  0  0  0  0  0  0
   69.3208   47.2613   56.7517 S   0  0  0  0  0  0  0  0  0  0  0  0
   69.3407   45.7730   56.7933 O   0  0  0  0  0  0  0  0  0  0  0  0
   67.9965   47.7944   57.2930 O   0  0  0  0  0  0  0  0  0  0  0  0
   69.4667   47.8841   55.1291 N   0  0  0  0  0  0  0  0  0  0  0  0
   68.9231   47.2040   54.0125 C   0  0  0  0  0  0  0  0  0  0  0  0
   68.0461   46.1287   54.2275 C   0  0  0  0  0  0  0  0  0  0  0  0
   67.5025   45.4951   53.1252 C   0  0  0  0  0  0  0  0  0  0  0  0
   67.7894   45.8773   51.8403 C   0  0  0  0  0  0  0  0  0  0  0  0
   68.6466   46.9265   51.6315 C   0  0  0  0  0  0  0  0  0  0  0  0
   69.2150   47.5917   52.7326 C   0  0  0  0  0  0  0  0  0  0  0  0
   70.1332   48.6725   52.4635 C   0  0  0  0  0  0  0  0  0  0  0  0
   69.8873   49.5061   51.3125 N   0  0  0  0  0  0  0  0  0  0  0  0
   71.1402   48.9821   53.1228 O   0  0  0  0  0  0  0  0  0  0  0  0
  2  1  1  1
  2  3  1  0
  2 13  1  0
  3  4  2  0
  3  5  1  0
  5  6  1  0
  5 14  1  0
  6  7  1  0
  7  8  1  0
  8  9  1  0
  9 10  1  0
  9 14  2  0
 10 11  2  0
 11 15  1  0
 11 12  1  0
 15 16  2  0
 15 17  2  0
 15 18  1  0
 18 19  1  0
 19 20  2  0
 19 24  1  0
 20 21  1  0
 21 22  2  0
 22 23  1  0
 23 24  2  0
 24 25  1  0
 25 26  1  0
 25 27  2  0
 12 13  2  0
 13 14  1  0
M  END
>  <minimizedAffinity>  (163) 
-9.04600

$$$$
data/200k_reference_output/data/smiles/14242.pdb
     RDKit          3D

 26 29  0  0  0  0  0  0  0  0999 V2000
   70.0396   49.3679   57.1495 C   0  0  0  0  0  0  0  0  0  0  0  0
   67.0066   45.1225   51.8783 N   0  0  0  0  0  0  0  0  0  0  0  0
   67.8295   46.0984   52.5251 C   0  0  0  0  0  0  0  0  0  0  0  0
   68.7303   46.8403   51.7953 C   0  0  0  0  0  0  0  0  0  0  0  0
   69.5290   47.7814   52.4000 C   0  0  0  0  0  0  0  0  0  0  0  0
   69.4227   47.9826   53.7599 C   0  0  0  0  0  0  0  0  0  0  0  0
   68.5350   47.2641   54.5365 C   0  0  0  0  0  0  0  0  0  0  0  0
   67.7515   46.3269   53.8811 C   0  0  0  0  0  0  0  0  0  0  0  0
   68.6555   47.6937   55.8866 N   0  0  0  0  0  0  0  0  0  0  0  0
   67.8717   47.2115   56.8869 O   0  0  0  0  0  0  0  0  0  0  0  0
   69.5464   48.6127   56.0265 C   0  0  0  0  0  0  0  0  0  0  0  0
   70.1019   48.8683   54.6626 C   0  0  0  0  0  0  0  0  0  0  0  0
   70.9940   49.6937   54.3346 O   0  0  0  0  0  0  0  0  0  0  0  0
   71.3421   49.1278   57.7616 C   0  0  0  0  0  0  0  0  0  0  0  0
   71.4498   48.1025   58.8391 C   0  0  0  0  0  0  0  0  0  0  0  0
   71.8391   46.7888   58.5572 N   0  0  0  0  0  0  0  0  0  0  0  0
   73.1464   46.3083   58.2890 C   0  0  0  0  0  0  0  0  0  0  0  0
   74.2119   47.0012   58.2251 O   0  0  0  0  0  0  0  0  0  0  0  0
   73.0568   44.8689   58.0987 C   0  0  0  0  0  0  0  0  0  0  0  0
   73.9957   43.8929   57.8167 C   0  0  0  0  0  0  0  0  0  0  0  0
   73.6903   42.5644   57.6752 C   0  0  0  0  0  0  0  0  0  0  0  0
   72.3648   42.1769   57.8229 C   0  0  0  0  0  0  0  0  0  0  0  0
   71.3993   43.1134   58.1033 C   0  0  0  0  0  0  0  0  0  0  0  0
   71.7500   44.4552   58.2397 C   0  0  0  0  0  0  0  0  0  0  0  0
   70.9824   45.6536   58.5270 C   0  0  0  0  0  0  0  0  0  0  0  0
   69.7515   45.6853   58.7196 O   0  0  0  0  0  0  0  0  0  0  0  0
  2  3  1  0
  3  4  2  0
  3  8  1  0
  4  5  1  0
  5  6  2  0
  6  7  1  0
  6 12  1  0
  7  8  2  0
  7  9  1  0
  9 10  1  0
  9 11  2  0
 11  1  1  0
 11 12  1  0
  1 14  1  0
 14 15  1  0
 15 16  1  0
 16 17  1  0
 16 25  1  0
 17 18  2  0
 17 19  1  0
 19 20  1  0
 19 24  2  0
 20 21  2  0
 21 22  1  0
 22 23  2  0
 23 24  1  0
 24 25  1  0
 25 26  2  0
 12 13  2  0
M  CHG  2   9   1  10  -1
M  END
>  <minimizedAffinity>  (164) 
-8.51944

$$$$
data/200k_reference_output/data/smiles/14300.pdb
     RDKit          3D

 26 29  0  0  0  0  0  0  0  0999 V2000
   71.0354   50.3408   54.7056 C   0  0  0  0  0  0  0  0  0  0  0  0
   70.0941   49.1951   54.6095 C   0  0  0  0  0  0  0  0  0  0  0  0
   69.6184   48.5552   55.7177 C   0  0  0  0  0  0  0  0  0  0  0  0
   68.8613   47.4348   55.4564 N   0  0  0  0  0  0  0  0  0  0  0  0
   68.3335   46.7151   56.5312 O   0  0  0  0  0  0  0  0  0  0  0  0
   68.6135   47.0180   54.2150 C   0  0  0  0  0  0  0  0  0  0  0  0
   67.8441   45.8835   53.9662 C   0  0  0  0  0  0  0  0  0  0  0  0
   67.5953   45.4646   52.6827 C   0  0  0  0  0  0  0  0  0  0  0  0
   68.1008   46.1564   51.5990 C   0  0  0  0  0  0  0  0  0  0  0  0
   68.8532   47.2662   51.8196 C   0  0  0  0  0  0  0  0  0  0  0  0
   69.1000   47.6814   53.1138 C   0  0  0  0  0  0  0  0  0  0  0  0
   69.8362   48.7665   53.3704 N   0  0  0  0  0  0  0  0  0  0  0  0
   70.3357   49.4506   52.2761 O   0  0  0  0  0  0  0  0  0  0  0  0
   69.7318   49.0085   57.0892 C   0  0  0  0  0  0  0  0  0  0  0  0
   68.6143   49.5142   57.5438 O   0  0  0  0  0  0  0  0  0  0  0  0
   70.8172   49.0129   58.0317 C   0  0  0  0  0  0  0  0  0  0  0  0
   70.8112   48.0082   59.0702 N   0  0  0  0  0  0  0  0  0  0  0  0
   70.9672   46.6092   58.7409 C   0  0  0  0  0  0  0  0  0  0  0  0
   70.0191   45.6597   58.7226 N   0  0  0  0  0  0  0  0  0  0  0  0
   70.6210   44.5035   58.3590 C   0  0  0  0  0  0  0  0  0  0  0  0
   70.1779   43.2041   58.1670 C   0  0  0  0  0  0  0  0  0  0  0  0
   71.0373   42.2050   57.7871 C   0  0  0  0  0  0  0  0  0  0  0  0
   72.3776   42.4430   57.5758 C   0  0  0  0  0  0  0  0  0  0  0  0
   72.8417   43.7290   57.7604 C   0  0  0  0  0  0  0  0  0  0  0  0
   71.9667   44.7261   58.1436 C   0  0  0  0  0  0  0  0  0  0  0  0
   72.1342   46.0460   58.3927 N   0  0  0  0  0  0  0  0  0  0  0  0
  1  2  1  0
  2  3  2  0
  2 12  1  0
  3 14  1  0
  3  4  1  0
 14 15  2  0
 14 16  1  0
 16 17  1  0
 17 18  1  0
 18 19  2  0
 18 26  1  0
 19 20  1  0
 20 21  2  0
 20 25  1  0
 21 22  1  0
 22 23  2  0
 23 24  1  0
 24 25  2  0
 25 26  1  0
  4  5  1  0
  4  6  2  0
  6  7  1  0
  6 11  1  0
  7  8  2  0
  8  9  1  0
  9 10  2  0
 10 11  1  0
 11 12  2  0
 12 13  1  0
M  CHG  5   4   1   5  -1  12   1  13  -1  19   1
M  END
>  <minimizedAffinity>  (165) 
-8.63075

$$$$
data/200k_reference_output/data/smiles/14473.pdb
     RDKit          3D

 22 23  0  0  0  0  0  0  0  0999 V2000
   67.8714   43.9784   55.7145 N   0  0  0  0  0  0  0  0  0  0  0  0
   68.4522   43.1332   56.6714 C   0  0  0  0  0  0  0  0  0  0  0  0
   69.2347   43.6588   57.5071 O   0  0  0  0  0  0  0  0  0  0  0  0
   68.1834   41.6930   56.7286 C   0  0  0  0  0  0  0  0  0  0  0  0
   67.4454   41.1588   55.8721 O   0  0  0  0  0  0  0  0  0  0  0  0
   68.7377   40.8588   57.7394 N   0  0  0  0  0  0  0  0  0  0  0  0
   68.4984   39.4921   57.8155 N   0  0  0  0  0  0  0  0  0  0  0  0
   69.3133   38.6028   58.5587 C   0  0  0  0  0  0  0  0  0  0  0  0
   68.8355   38.0143   59.7342 C   0  0  0  0  0  0  0  0  0  0  0  0
   69.6189   37.1464   60.4670 C   0  0  0  0  0  0  0  0  0  0  0  0
   70.8969   36.8277   60.0718 C   0  0  0  0  0  0  0  0  0  0  0  0
   71.3918   37.3932   58.9180 C   0  0  0  0  0  0  0  0  0  0  0  0
   72.7784   37.0787   58.4426 C   0  0  0  0  0  0  0  0  0  0  0  0
   70.5899   38.2618   58.1960 C   0  0  0  0  0  0  0  0  0  0  0  0
   68.0944   45.3481   55.6186 N   0  0  0  0  0  0  0  0  0  0  0  0
   69.9380   48.8783   52.6704 C   0  0  0  0  0  0  0  0  0  0  0  0
   69.1439   47.6469   52.8733 C   0  0  0  0  0  0  0  0  0  0  0  0
   68.5482   47.0619   51.7757 C   0  0  0  0  0  0  0  0  0  0  0  0
   67.8088   45.9164   51.9589 C   0  0  0  0  0  0  0  0  0  0  0  0
   67.6607   45.3604   53.2004 C   0  0  0  0  0  0  0  0  0  0  0  0
   68.2483   45.9239   54.3372 C   0  0  0  0  0  0  0  0  0  0  0  0
   68.9864   47.0759   54.1166 C   0  0  0  0  0  0  0  0  0  0  0  0
 16 17  1  0
 17 18  2  0
 17 22  1  0
 18 19  1  0
 19 20  2  0
 20 21  1  0
 21 15  1  0
 21 22  2  0
 15  1  1  0
  1  2  1  0
  2  3  2  0
  2  4  1  0
  4  5  2  0
  4  6  1  0
  6  7  1  0
  7  8  1  0
  8  9  2  0
  8 14  1  0
  9 10  1  0
 10 11  2  0
 11 12  1  0
 12 13  1  0
 12 14  2  0
M  END
>  <minimizedAffinity>  (166) 
-8.71443

$$$$
data/200k_reference_output/data/smiles/14503.pdb
     RDKit          3D

 28 31  0  0  0  0  0  0  0  0999 V2000
   73.1159   51.6532   55.8881 C   0  0  2  0  0  0  0  0  0  0  0  0
   72.5982   52.8213   56.6923 C   0  0  0  0  0  0  0  0  0  0  0  0
   71.3203   52.5340   57.4066 C   0  0  0  0  0  0  0  0  0  0  0  0
   70.2615   51.9121   56.5499 C   0  0  0  0  0  0  0  0  0  0  0  0
   70.9054   51.0256   55.4909 C   0  0  1  0  0  0  0  0  0  0  0  0
   71.3574   51.8952   54.3790 C   0  0  0  0  0  0  0  0  0  0  0  0
   72.8736   51.9309   54.4545 C   0  0  0  0  0  0  0  0  0  0  0  0
   72.1700   50.4923   56.1726 C   0  0  0  0  0  0  0  0  0  0  0  0
   75.2826   50.4281   55.5531 C   0  0  0  0  0  0  0  0  0  0  0  0
   74.7778   49.9179   54.5184 O   0  0  0  0  0  0  0  0  0  0  0  0
   74.4473   51.3150   56.2631 N   0  0  0  0  0  0  0  0  0  0  0  0
   79.0620   50.6452   58.7458 C   0  0  0  0  0  0  0  0  0  0  0  0
   78.4680   50.1828   57.4631 C   0  0  0  0  0  0  0  0  0  0  0  0
   79.2310   49.4088   56.6146 C   0  0  0  0  0  0  0  0  0  0  0  0
   78.7045   48.9864   55.4553 N   0  0  0  0  0  0  0  0  0  0  0  0
   77.4349   49.3244   55.1323 C   0  0  0  0  0  0  0  0  0  0  0  0
   76.6485   50.0959   55.9577 C   0  0  0  0  0  0  0  0  0  0  0  0
   77.1967   50.5052   57.1091 N   0  0  0  0  0  0  0  0  0  0  0  0
   70.0610   49.9385   55.1423 N   0  0  0  0  0  0  0  0  0  0  0  0
   70.2689   49.1261   54.0105 C   0  0  0  0  0  0  0  0  0  0  0  0
   71.2521   49.3925   53.2902 O   0  0  0  0  0  0  0  0  0  0  0  0
   69.4155   48.0067   53.6344 C   0  0  0  0  0  0  0  0  0  0  0  0
   68.8892   47.1720   54.5964 C   0  0  0  0  0  0  0  0  0  0  0  0
   68.0770   46.0985   54.3050 C   0  0  0  0  0  0  0  0  0  0  0  0
   67.7683   45.8341   53.0007 C   0  0  0  0  0  0  0  0  0  0  0  0
   68.2715   46.6415   52.0126 C   0  0  0  0  0  0  0  0  0  0  0  0
   67.9543   46.3628   50.7253 F   0  0  0  0  0  0  0  0  0  0  0  0
   69.0872   47.7158   52.3280 C   0  0  0  0  0  0  0  0  0  0  0  0
 12 13  1  0
 13 14  2  0
 13 18  1  0
 14 15  1  0
 15 16  2  0
 16 17  1  0
 17  9  1  0
 17 18  2  0
  9 10  2  0
  9 11  1  0
  1 11  1  6
  1  2  1  0
  1  7  1  0
  1  8  1  0
  2  3  1  0
  3  4  1  0
  4  5  1  0
  5 19  1  6
  5  6  1  0
  5  8  1  0
 19 20  1  0
 20 21  2  0
 20 22  1  0
 22 23  2  0
 22 28  1  0
 23 24  1  0
 24 25  2  0
 25 26  1  0
 26 27  1  0
 26 28  2  0
  6  7  1  0
M  END
>  <minimizedAffinity>  (167) 
-8.75989

$$$$
data/200k_reference_output/data/smiles/14786.pdb
     RDKit          3D

 23 25  0  0  0  0  0  0  0  0999 V2000
   68.2773   42.3245   56.8838 C   0  0  0  0  0  0  0  0  0  0  0  0
   68.7828   43.5405   56.6008 N   0  0  0  0  0  0  0  0  0  0  0  0
   68.1121   44.1135   55.5854 C   0  0  0  0  0  0  0  0  0  0  0  0
   67.1681   43.2201   55.2370 N   0  0  0  0  0  0  0  0  0  0  0  0
   67.2523   42.1450   56.0034 N   0  0  0  0  0  0  0  0  0  0  0  0
   68.3424   45.4202   54.9756 C   0  0  0  0  0  0  0  0  0  0  0  0
   68.8563   46.4740   55.7042 C   0  0  0  0  0  0  0  0  0  0  0  0
   69.0702   47.7139   55.1089 C   0  0  0  0  0  0  0  0  0  0  0  0
   68.7807   47.9427   53.7803 C   0  0  0  0  0  0  0  0  0  0  0  0
   68.9983   49.1654   53.2208 F   0  0  0  0  0  0  0  0  0  0  0  0
   68.2671   46.8888   53.0555 C   0  0  0  0  0  0  0  0  0  0  0  0
   68.0529   45.6476   53.6467 C   0  0  0  0  0  0  0  0  0  0  0  0
   67.8793   39.6155   56.7438 O   0  0  0  0  0  0  0  0  0  0  0  0
   68.4958   40.0352   57.7725 C   0  0  0  0  0  0  0  0  0  0  0  0
   68.7239   41.4321   57.8856 N   0  0  0  0  0  0  0  0  0  0  0  0
   68.9368   39.0632   58.7828 C   0  0  0  0  0  0  0  0  0  0  0  0
   70.3342   38.9706   58.7895 O   0  0  0  0  0  0  0  0  0  0  0  0
   70.9570   37.7606   58.6384 C   0  0  0  0  0  0  0  0  0  0  0  0
   71.8708   37.5454   57.6575 C   0  0  0  0  0  0  0  0  0  0  0  0
   72.4789   36.3098   57.5421 C   0  0  0  0  0  0  0  0  0  0  0  0
   72.1814   35.2684   58.4077 C   0  0  0  0  0  0  0  0  0  0  0  0
   71.2505   35.5055   59.3970 C   0  0  0  0  0  0  0  0  0  0  0  0
   70.6454   36.7384   59.5099 C   0  0  0  0  0  0  0  0  0  0  0  0
 13 14  2  0
 14 16  1  0
 14 15  1  0
 16 17  1  0
 17 18  1  0
 18 19  2  0
 18 23  1  0
 19 20  1  0
 20 21  2  0
 21 22  1  0
 22 23  2  0
 15  1  1  0
  1  2  2  0
  1  5  1  0
  2  3  1  0
  3  6  1  0
  3  4  2  0
  6  7  2  0
  6 12  1  0
  7  8  1  0
  8  9  2  0
  9 10  1  0
  9 11  1  0
 11 12  2  0
  4  5  1  0
M  END
>  <minimizedAffinity>  (168) 
-8.61519

$$$$
data/200k_reference_output/data/smiles/14933.pdb
     RDKit          3D

 28 32  0  0  0  0  0  0  0  0999 V2000
   70.6205   41.9859   57.4467 N   0  0  0  0  0  0  0  0  0  0  0  0
   69.2422   41.6831   57.5267 C   0  0  0  0  0  0  0  0  0  0  0  0
   68.2685   42.4538   57.0642 C   0  0  0  0  0  0  0  0  0  0  0  0
   67.0148   41.7678   57.3672 C   0  0  0  0  0  0  0  0  0  0  0  0
   65.9245   41.9344   56.8138 O   0  0  0  0  0  0  0  0  0  0  0  0
   67.3425   40.7975   58.5204 C   0  0  0  0  0  0  0  0  0  0  0  0
   68.6947   40.4822   58.0678 N   0  0  0  0  0  0  0  0  0  0  0  0
   68.4515   43.7390   56.3862 C   0  0  0  0  0  0  0  0  0  0  0  0
   69.0782   44.8439   56.7692 N   0  0  0  0  0  0  0  0  0  0  0  0
   68.9677   45.8194   55.8135 C   0  0  0  0  0  0  0  0  0  0  0  0
   69.4079   47.1221   55.6862 C   0  0  0  0  0  0  0  0  0  0  0  0
   69.1026   47.8566   54.5436 C   0  0  0  0  0  0  0  0  0  0  0  0
   68.3642   47.3232   53.5142 C   0  0  0  0  0  0  0  0  0  0  0  0
   67.9273   46.0361   53.6356 C   0  0  0  0  0  0  0  0  0  0  0  0
   68.2232   45.2779   54.7789 C   0  0  0  0  0  0  0  0  0  0  0  0
   67.9287   44.0261   55.1520 N   0  0  0  0  0  0  0  0  0  0  0  0
   69.2739   39.2136   58.1256 N   0  0  0  0  0  0  0  0  0  0  0  0
   69.7503   38.6914   59.3683 C   0  0  0  0  0  0  0  0  0  0  0  0
   69.6399   39.4340   60.4154 O   0  0  0  0  0  0  0  0  0  0  0  0
   70.3388   37.3756   59.4799 C   0  0  0  0  0  0  0  0  0  0  0  0
   70.0387   36.4300   60.4574 C   0  0  0  0  0  0  0  0  0  0  0  0
   70.7624   35.2947   60.2425 N   0  0  0  0  0  0  0  0  0  0  0  0
   71.5316   35.4640   59.1468 C   0  0  0  0  0  0  0  0  0  0  0  0
   72.4529   34.6093   58.5038 C   0  0  0  0  0  0  0  0  0  0  0  0
   73.1084   35.0920   57.3613 C   0  0  0  0  0  0  0  0  0  0  0  0
   72.8436   36.3519   56.9156 C   0  0  0  0  0  0  0  0  0  0  0  0
   71.9363   37.1455   57.5805 C   0  0  0  0  0  0  0  0  0  0  0  0
   71.2677   36.7305   58.6952 C   0  0  0  0  0  0  0  0  0  0  0  0
  1  2  1  0
  2  3  2  0
  2  7  1  0
  3  8  1  0
  3  4  1  0
  8  9  2  0
  8 16  1  0
  9 10  1  0
 10 11  2  0
 10 15  1  0
 11 12  1  0
 12 13  2  0
 13 14  1  0
 14 15  2  0
 15 16  1  0
  4  5  2  0
  4  6  1  0
  6  7  1  0
  7 17  1  0
 17 18  1  0
 18 19  2  0
 18 20  1  0
 20 21  2  0
 20 28  1  0
 21 22  1  0
 22 23  1  0
 23 24  1  0
 23 28  2  0
 24 25  2  0
 25 26  1  0
 26 27  2  0
 27 28  1  0
M  CHG  1   9   1
M  END
>  <minimizedAffinity>  (169) 
-8.60581

$$$$
data/200k_reference_output/data/smiles/15027.pdb
     RDKit          3D

 20 21  0  0  0  0  0  0  0  0999 V2000
   68.3917   46.5469   54.0677 C   0  0  0  0  0  0  0  0  0  0  0  0
   68.2816   46.1008   52.7402 C   0  0  0  0  0  0  0  0  0  0  0  0
   68.8594   46.8329   51.7281 C   0  0  0  0  0  0  0  0  0  0  0  0
   69.5447   47.9979   52.0013 C   0  0  0  0  0  0  0  0  0  0  0  0
   69.6694   48.4664   53.3136 C   0  0  0  0  0  0  0  0  0  0  0  0
   69.0848   47.7157   54.2954 C   0  0  0  0  0  0  0  0  0  0  0  0
   70.4070   49.6980   53.4998 C   0  0  0  0  0  0  0  0  0  0  0  0
   70.1980   50.7176   52.8033 O   0  0  0  0  0  0  0  0  0  0  0  0
   71.4089   49.8017   54.4934 N   0  0  0  0  0  0  0  0  0  0  0  0
   72.1767   51.0021   54.7259 C   0  0  0  0  0  0  0  0  0  0  0  0
   73.6513   50.7803   54.6784 C   0  0  0  0  0  0  0  0  0  0  0  0
   74.0255   50.1648   53.4874 O   0  0  0  0  0  0  0  0  0  0  0  0
   67.7916   45.7637   55.0006 O   0  0  0  0  0  0  0  0  0  0  0  0
   67.4654   41.1019   56.1590 C   0  0  0  0  0  0  0  0  0  0  0  0
   68.1017   42.4366   56.3118 C   0  0  0  0  0  0  0  0  0  0  0  0
   69.1456   42.5793   57.1982 C   0  0  0  0  0  0  0  0  0  0  0  0
   69.7249   43.8224   57.3276 C   0  0  0  0  0  0  0  0  0  0  0  0
   69.2516   44.8333   56.5914 N   0  0  0  0  0  0  0  0  0  0  0  0
   68.2443   44.7202   55.7284 C   0  0  0  0  0  0  0  0  0  0  0  0
   67.6845   43.5031   55.6076 N   0  0  0  0  0  0  0  0  0  0  0  0
 14 15  1  0
 15 16  2  0
 15 20  1  0
 16 17  1  0
 17 18  2  0
 18 19  1  0
 19 13  1  0
 19 20  2  0
 13  1  1  0
  1  2  2  0
  1  6  1  0
  2  3  1  0
  3  4  2  0
  4  5  1  0
  5  7  1  0
  5  6  2  0
  7  8  2  0
  7  9  1  0
  9 10  1  0
 10 11  1  0
 11 12  1  0
M  END
>  <minimizedAffinity>  (170) 
-8.51583

$$$$
data/200k_reference_output/data/smiles/15047.pdb
     RDKit          3D

 28 31  0  0  0  0  0  0  0  0999 V2000
   68.9665   42.3100   56.5960 O   0  0  0  0  0  0  0  0  0  0  0  0
   69.6196   42.9904   57.4303 C   0  0  0  0  0  0  0  0  0  0  0  0
   70.4266   42.3908   58.4333 N   0  0  0  0  0  0  0  0  0  0  0  0
   70.5382   40.9669   58.5447 C   0  0  1  0  0  0  0  0  0  0  0  0
   72.0024   40.5371   58.4821 C   0  0  0  0  0  0  0  0  0  0  0  0
   72.1220   39.1456   58.0631 N   0  0  0  0  0  0  0  0  0  0  0  0
   71.5776   37.9803   58.6817 C   0  0  0  0  0  0  0  0  0  0  0  0
   72.1455   36.7976   58.2346 C   0  0  0  0  0  0  0  0  0  0  0  0
   71.7220   35.5664   58.7429 C   0  0  0  0  0  0  0  0  0  0  0  0
   72.4584   34.0892   58.1590 Cl  0  0  0  0  0  0  0  0  0  0  0  0
   70.7256   35.5636   59.6971 C   0  0  0  0  0  0  0  0  0  0  0  0
   70.1688   36.7557   60.1318 C   0  0  0  0  0  0  0  0  0  0  0  0
   70.5808   37.9784   59.6363 C   0  0  0  0  0  0  0  0  0  0  0  0
   69.8894   39.0931   60.2069 N   0  0  0  0  0  0  0  0  0  0  0  0
   69.9079   40.4735   59.8029 C   0  0  0  0  0  0  0  0  0  0  0  0
   69.3562   41.2676   60.5737 O   0  0  0  0  0  0  0  0  0  0  0  0
   69.5433   44.4617   57.3638 C   0  0  0  0  0  0  0  0  0  0  0  0
   70.0352   45.3446   58.2508 N   0  0  0  0  0  0  0  0  0  0  0  0
   69.7523   46.5837   57.8187 N   0  0  0  0  0  0  0  0  0  0  0  0
   69.0772   46.4988   56.6528 C   0  0  0  0  0  0  0  0  0  0  0  0
   68.9592   45.1829   56.3909 N   0  0  0  0  0  0  0  0  0  0  0  0
   68.5492   47.5898   55.7921 C   0  0  0  0  0  0  0  0  0  0  0  0
   68.5355   47.1767   54.3644 C   0  0  0  0  0  0  0  0  0  0  0  0
   69.3495   47.8211   53.4593 C   0  0  0  0  0  0  0  0  0  0  0  0
   69.3542   47.4560   52.1326 C   0  0  0  0  0  0  0  0  0  0  0  0
   68.5481   46.4336   51.6473 C   0  0  0  0  0  0  0  0  0  0  0  0
   67.7451   45.8051   52.5637 C   0  0  0  0  0  0  0  0  0  0  0  0
   67.7326   46.1621   53.8891 C   0  0  0  0  0  0  0  0  0  0  0  0
  1  2  2  0
  2  3  1  0
  2 17  1  0
  4  3  1  1
  4  5  1  0
  4 15  1  0
  5  6  1  0
  6  7  1  0
  7  8  1  0
  7 13  2  0
  8  9  2  0
  9 10  1  0
  9 11  1  0
 11 12  2  0
 12 13  1  0
 13 14  1  0
 14 15  1  0
 15 16  2  0
 17 18  2  0
 17 21  1  0
 18 19  1  0
 19 20  2  0
 20 22  1  0
 20 21  1  0
 22 23  1  0
 23 24  2  0
 23 28  1  0
 24 25  1  0
 25 26  2  0
 26 27  1  0
 27 28  2  0
M  END
>  <minimizedAffinity>  (171) 
-8.77054

$$$$
data/200k_reference_output/data/smiles/15068.pdb
     RDKit          3D

 27 29  0  0  0  0  0  0  0  0999 V2000
   68.6255   46.1741   54.4096 C   0  0  0  0  0  0  0  0  0  0  0  0
   68.0497   45.7790   53.2062 C   0  0  0  0  0  0  0  0  0  0  0  0
   68.0963   46.5466   52.0663 C   0  0  0  0  0  0  0  0  0  0  0  0
   68.7556   47.7532   52.1756 C   0  0  0  0  0  0  0  0  0  0  0  0
   69.3341   48.1701   53.3514 C   0  0  0  0  0  0  0  0  0  0  0  0
   69.2570   47.3649   54.4522 C   0  0  0  0  0  0  0  0  0  0  0  0
   67.9577   43.9712   55.5131 N   0  0  0  0  0  0  0  0  0  0  0  0
   68.5140   45.2713   55.5643 C   0  0  0  0  0  0  0  0  0  0  0  0
   68.9409   45.6835   56.6683 O   0  0  0  0  0  0  0  0  0  0  0  0
   66.7745   41.5377   55.3443 C   0  0  0  0  0  0  0  0  0  0  0  0
   67.3343   41.9942   56.6436 C   0  0  0  0  0  0  0  0  0  0  0  0
   67.8750   43.1423   56.6558 N   0  0  0  0  0  0  0  0  0  0  0  0
   67.2259   41.1037   57.7954 C   0  0  0  0  0  0  0  0  0  0  0  0
   66.5095   41.4336   58.9276 C   0  0  0  0  0  0  0  0  0  0  0  0
   66.4151   40.5810   60.0089 C   0  0  0  0  0  0  0  0  0  0  0  0
   67.0346   39.3508   60.0162 C   0  0  0  0  0  0  0  0  0  0  0  0
   66.9296   38.4304   61.1906 C   0  0  0  0  0  0  0  0  0  0  0  0
   67.7517   39.0128   58.8898 C   0  0  0  0  0  0  0  0  0  0  0  0
   67.8423   39.8699   57.8108 C   0  0  0  0  0  0  0  0  0  0  0  0
   70.1427   49.7182   53.3770 S   0  0  0  0  0  0  0  0  0  0  0  0
   69.7473   50.4444   52.1217 O   0  0  0  0  0  0  0  0  0  0  0  0
   71.6317   49.4864   53.2785 O   0  0  0  0  0  0  0  0  0  0  0  0
   69.7615   50.6785   54.7159 N   0  0  0  0  0  0  0  0  0  0  0  0
   70.9035   51.3192   55.2967 C   0  0  0  0  0  0  0  0  0  0  0  0
   70.5570   52.7742   55.5041 C   0  0  0  0  0  0  0  0  0  0  0  0
   69.0447   52.7267   55.5558 C   0  0  0  0  0  0  0  0  0  0  0  0
   68.7490   51.6539   54.5077 C   0  0  0  0  0  0  0  0  0  0  0  0
 10 11  1  0
 11 12  2  0
 11 13  1  0
 12  7  1  0
  7  8  1  0
  8  9  2  0
  8  1  1  0
  1  2  2  0
  1  6  1  0
  2  3  1  0
  3  4  2  0
  4  5  1  0
  5 20  1  0
  5  6  2  0
 20 21  2  0
 20 22  2  0
 20 23  1  0
 23 24  1  0
 23 27  1  0
 24 25  1  0
 25 26  1  0
 26 27  1  0
 13 14  2  0
 13 19  1  0
 14 15  1  0
 15 16  2  0
 16 17  1  0
 16 18  1  0
 18 19  2  0
M  END
>  <minimizedAffinity>  (172) 
-8.68417

$$$$
data/200k_reference_output/data/smiles/15103.pdb
     RDKit          3D

 25 30  0  0  0  0  0  0  0  0999 V2000
   73.4657   50.5554   53.9039 O   0  0  0  0  0  0  0  0  0  0  0  0
   73.1089   51.6086   54.5086 C   0  0  0  0  0  0  0  0  0  0  0  0
   74.1302   52.6252   54.7904 C   0  0  0  0  0  0  0  0  0  0  0  0
   73.4897   53.9814   54.9727 C   0  0  0  0  0  0  0  0  0  0  0  0
   72.3173   53.9112   55.9172 C   0  0  0  0  0  0  0  0  0  0  0  0
   71.3560   52.8411   55.5524 C   0  0  0  0  0  0  0  0  0  0  0  0
   71.7084   51.7368   54.8826 C   0  0  0  0  0  0  0  0  0  0  0  0
   70.6945   50.6813   54.5356 C   0  0  0  0  0  0  0  0  0  0  0  0
   70.5694   49.7280   55.5708 O   0  0  0  0  0  0  0  0  0  0  0  0
   69.7554   48.6313   55.3290 C   0  0  0  0  0  0  0  0  0  0  0  0
   69.1127   47.9350   56.3286 C   0  0  0  0  0  0  0  0  0  0  0  0
   68.3115   46.8500   56.0550 C   0  0  0  0  0  0  0  0  0  0  0  0
   68.1385   46.4364   54.7504 C   0  0  0  0  0  0  0  0  0  0  0  0
   68.7629   47.1050   53.7186 C   0  0  0  0  0  0  0  0  0  0  0  0
   68.5945   46.6976   52.4146 C   0  0  0  0  0  0  0  0  0  0  0  0
   69.2404   47.3991   51.4203 C   0  0  0  0  0  0  0  0  0  0  0  0
   70.0352   48.4822   51.7334 C   0  0  0  0  0  0  0  0  0  0  0  0
   70.2229   48.9124   53.0308 C   0  0  0  0  0  0  0  0  0  0  0  0
   69.5560   48.1846   54.0246 C   0  0  0  0  0  0  0  0  0  0  0  0
   71.0289   50.0102   53.3388 O   0  0  0  0  0  0  0  0  0  0  0  0
   69.4193   51.3903   54.3704 C   0  0  1  0  0  0  0  0  0  0  0  0
   68.2600   51.3619   54.9709 O   0  0  0  0  0  0  0  0  0  0  0  0
   69.1319   51.8049   55.8409 C   0  0  2  0  0  0  0  0  0  0  0  0
   69.9473   53.0102   55.9518 C   0  0  0  0  0  0  0  0  0  0  0  0
   69.4597   54.0764   56.3544 O   0  0  0  0  0  0  0  0  0  0  0  0
  1  2  2  0
  2  3  1  0
  2  7  1  0
  3  4  1  0
  4  5  1  0
  5  6  1  0
  6  7  2  0
  6 24  1  0
  7  8  1  0
  8  9  1  0
  8 20  1  0
  8 21  1  0
  9 10  1  0
 10 11  2  0
 10 19  1  0
 11 12  1  0
 12 13  2  0
 13 14  1  0
 14 15  1  0
 14 19  2  0
 15 16  2  0
 16 17  1  0
 17 18  2  0
 18 19  1  0
 18 20  1  0
 21 22  1  1
 21 23  1  0
 23 22  1  6
 23 24  1  0
 24 25  2  0
M  END
>  <minimizedAffinity>  (173) 
-8.59083

$$$$
data/200k_reference_output/data/smiles/15268.pdb
     RDKit          3D

 29 32  0  0  0  0  0  0  0  0999 V2000
   70.1378   49.5707   55.7806 C   0  0  1  0  0  0  0  0  0  0  0  0
   68.8706   49.8907   56.4683 C   0  0  0  0  0  0  0  0  0  0  0  0
   68.4416   48.8251   57.2162 C   0  0  0  0  0  0  0  0  0  0  0  0
   67.2723   48.8568   57.9674 C   0  0  0  0  0  0  0  0  0  0  0  0
   66.5108   50.0059   57.9629 C   0  0  0  0  0  0  0  0  0  0  0  0
   66.9394   51.0858   57.2095 C   0  0  0  0  0  0  0  0  0  0  0  0
   68.0992   51.0428   56.4691 C   0  0  0  0  0  0  0  0  0  0  0  0
   68.4089   52.1794   55.7672 O   0  0  0  0  0  0  0  0  0  0  0  0
   68.8687   52.3644   54.4547 C   0  0  0  0  0  0  0  0  0  0  0  0
   69.8785   51.4205   53.9887 C   0  0  0  0  0  0  0  0  0  0  0  0
   70.5398   51.8322   52.9898 O   0  0  0  0  0  0  0  0  0  0  0  0
   70.2351   50.1309   54.4696 N   0  0  0  0  0  0  0  0  0  0  0  0
   72.4152   49.3898   56.4978 O   0  0  0  0  0  0  0  0  0  0  0  0
   71.3399   50.0259   56.5785 C   0  0  0  0  0  0  0  0  0  0  0  0
   71.2652   51.1611   57.4124 N   0  0  0  0  0  0  0  0  0  0  0  0
   72.3545   51.6707   58.2033 C   0  0  0  0  0  0  0  0  0  0  0  0
   72.9175   52.8729   57.5495 C   0  0  0  0  0  0  0  0  0  0  0  0
   73.4852   53.9360   58.2068 C   0  0  0  0  0  0  0  0  0  0  0  0
   74.0125   55.0422   57.5582 C   0  0  0  0  0  0  0  0  0  0  0  0
   73.9567   55.0623   56.1819 C   0  0  0  0  0  0  0  0  0  0  0  0
   73.3980   54.0253   55.4630 C   0  0  0  0  0  0  0  0  0  0  0  0
   72.8870   52.9474   56.1532 C   0  0  0  0  0  0  0  0  0  0  0  0
   70.7889   49.2460   53.4727 C   0  0  0  0  0  0  0  0  0  0  0  0
   69.7375   48.2386   53.0975 C   0  0  0  0  0  0  0  0  0  0  0  0
   69.0107   47.5365   54.0338 C   0  0  0  0  0  0  0  0  0  0  0  0
   68.0543   46.6260   53.6227 C   0  0  0  0  0  0  0  0  0  0  0  0
   67.7923   46.3855   52.2910 C   0  0  0  0  0  0  0  0  0  0  0  0
   68.5166   47.0856   51.4054 N   0  0  0  0  0  0  0  0  0  0  0  0
   69.4503   47.9759   51.7687 C   0  0  0  0  0  0  0  0  0  0  0  0
 13 14  2  0
 14 15  1  0
  1 14  1  1
 15 16  1  0
 16 17  1  0
 17 18  2  0
 17 22  1  0
 18 19  1  0
 19 20  2  0
 20 21  1  0
 21 22  2  0
  1  2  1  0
  1 12  1  0
  2  3  2  0
  2  7  1  0
  3  4  1  0
  4  5  2  0
  5  6  1  0
  6  7  2  0
  7  8  1  0
  8  9  1  0
  9 10  1  0
 10 11  2  0
 10 12  1  0
 12 23  1  0
 23 24  1  0
 24 25  2  0
 24 29  1  0
 25 26  1  0
 26 27  2  0
 27 28  1  0
 28 29  2  0
M  END
>  <minimizedAffinity>  (174) 
-8.50085

$$$$
data/200k_reference_output/data/smiles/15277.pdb
     RDKit          3D

 28 31  0  0  0  0  0  0  0  0999 V2000
   68.0794   40.1614   57.7830 C   0  0  0  0  0  0  0  0  0  0  0  0
   69.3546   40.2178   58.5897 C   0  0  1  0  0  0  0  0  0  0  0  0
   70.0822   38.9247   58.4001 C   0  0  0  0  0  0  0  0  0  0  0  0
   71.3661   38.8907   59.2223 C   0  0  0  0  0  0  0  0  0  0  0  0
   72.0989   40.1791   59.0183 C   0  0  0  0  0  0  0  0  0  0  0  0
   73.4525   40.1481   59.2449 C   0  0  0  0  0  0  0  0  0  0  0  0
   74.2167   41.3054   59.0586 C   0  0  0  0  0  0  0  0  0  0  0  0
   75.5543   41.2793   59.2818 F   0  0  0  0  0  0  0  0  0  0  0  0
   73.6305   42.4758   58.6498 C   0  0  0  0  0  0  0  0  0  0  0  0
   72.2587   42.4901   58.4251 C   0  0  0  0  0  0  0  0  0  0  0  0
   71.6719   43.6592   58.0176 C   0  0  0  0  0  0  0  0  0  0  0  0
   72.3986   44.8269   57.8215 O   0  0  0  0  0  0  0  0  0  0  0  0
   70.2913   43.7133   57.7823 C   0  0  0  0  0  0  0  0  0  0  0  0
   69.6123   42.5524   57.9850 C   0  0  0  0  0  0  0  0  0  0  0  0
   68.3833   42.5132   57.7999 O   0  0  0  0  0  0  0  0  0  0  0  0
   70.1597   41.3669   58.3901 N   0  0  0  0  0  0  0  0  0  0  0  0
   71.4798   41.3382   58.6075 C   0  0  0  0  0  0  0  0  0  0  0  0
   69.7045   44.9799   57.3494 C   0  0  0  0  0  0  0  0  0  0  0  0
   69.7205   45.9856   58.1480 O   0  0  0  0  0  0  0  0  0  0  0  0
   69.0967   45.2434   56.1036 N   0  0  0  0  0  0  0  0  0  0  0  0
   68.5427   46.5386   55.7674 C   0  0  0  0  0  0  0  0  0  0  0  0
   67.9937   46.5251   54.3682 C   0  0  0  0  0  0  0  0  0  0  0  0
   68.7884   47.2967   53.3928 C   0  0  0  0  0  0  0  0  0  0  0  0
   69.2893   48.5619   53.6046 C   0  0  0  0  0  0  0  0  0  0  0  0
   70.0129   49.2162   52.6234 C   0  0  0  0  0  0  0  0  0  0  0  0
   70.2220   48.5707   51.4262 C   0  0  0  0  0  0  0  0  0  0  0  0
   69.7392   47.3450   51.2165 N   0  0  0  0  0  0  0  0  0  0  0  0
   69.0374   46.6994   52.1564 C   0  0  0  0  0  0  0  0  0  0  0  0
  2  1  1  6
  2  3  1  0
  2 16  1  0
  3  4  1  0
  4  5  1  0
  5  6  1  0
  5 17  2  0
  6  7  2  0
  7  8  1  0
  7  9  1  0
  9 10  2  0
 10 11  1  0
 10 17  1  0
 11 12  1  0
 11 13  2  0
 13 18  1  0
 13 14  1  0
 18 19  2  0
 18 20  1  0
 20 21  1  0
 21 22  1  0
 22 23  1  0
 23 24  2  0
 23 28  1  0
 24 25  1  0
 25 26  2  0
 26 27  1  0
 27 28  2  0
 14 15  2  0
 14 16  1  0
 16 17  1  0
M  END
>  <minimizedAffinity>  (175) 
-8.50333

$$$$
data/200k_reference_output/data/smiles/15353.pdb
     RDKit          3D

 28 31  0  0  0  0  0  0  0  0999 V2000
   68.9785   42.8141   57.1146 C   0  0  0  0  0  0  0  0  0  0  0  0
   68.0613   42.0217   56.4491 C   0  0  0  0  0  0  0  0  0  0  0  0
   67.9286   40.6759   56.7200 C   0  0  0  0  0  0  0  0  0  0  0  0
   68.7112   40.0395   57.6778 C   0  0  0  0  0  0  0  0  0  0  0  0
   69.6195   40.8228   58.3374 C   0  0  0  0  0  0  0  0  0  0  0  0
   69.7479   42.1762   58.0607 C   0  0  0  0  0  0  0  0  0  0  0  0
   69.9446   44.8979   57.4432 O   0  0  0  0  0  0  0  0  0  0  0  0
   69.1190   44.2310   56.7884 C   0  0  0  0  0  0  0  0  0  0  0  0
   68.3787   44.8828   55.7834 N   0  0  0  0  0  0  0  0  0  0  0  0
   68.4891   46.3006   55.4498 C   0  0  0  0  0  0  0  0  0  0  0  0
   68.3874   46.4215   53.9664 C   0  0  0  0  0  0  0  0  0  0  0  0
   67.6464   45.5936   53.1645 C   0  0  0  0  0  0  0  0  0  0  0  0
   67.6332   45.7800   51.7791 C   0  0  0  0  0  0  0  0  0  0  0  0
   68.3382   46.7633   51.2143 N   0  0  0  0  0  0  0  0  0  0  0  0
   69.0825   47.6016   51.9785 C   0  0  0  0  0  0  0  0  0  0  0  0
   69.1174   47.4447   53.3477 C   0  0  0  0  0  0  0  0  0  0  0  0
   70.6706   40.0904   59.5504 S   0  0  0  0  0  0  0  0  0  0  0  0
   72.1060   40.3384   59.1831 O   0  0  0  0  0  0  0  0  0  0  0  0
   70.4453   40.6459   60.9066 O   0  0  0  0  0  0  0  0  0  0  0  0
   70.4374   38.3555   59.5438 N   0  0  0  0  0  0  0  0  0  0  0  0
   69.4086   37.6277   60.2624 C   0  0  0  0  0  0  0  0  0  0  0  0
   70.0343   36.2912   60.5053 C   0  0  0  0  0  0  0  0  0  0  0  0
   70.9865   36.1225   59.3704 C   0  0  0  0  0  0  0  0  0  0  0  0
   71.5907   34.9856   58.8766 C   0  0  0  0  0  0  0  0  0  0  0  0
   72.4465   35.0999   57.7934 C   0  0  0  0  0  0  0  0  0  0  0  0
   72.6496   36.3592   57.2665 C   0  0  0  0  0  0  0  0  0  0  0  0
   72.0498   37.4982   57.7543 C   0  0  0  0  0  0  0  0  0  0  0  0
   71.1908   37.3749   58.8408 C   0  0  0  0  0  0  0  0  0  0  0  0
  7  8  2  0
  8  9  1  0
  8  1  1  0
  9 10  1  0
 10 11  1  0
 11 12  2  0
 11 16  1  0
 12 13  1  0
 13 14  2  0
 14 15  1  0
 15 16  2  0
  1  2  2  0
  1  6  1  0
  2  3  1  0
  3  4  2  0
  4  5  1  0
  5 17  1  0
  5  6  2  0
 17 18  2  0
 17 19  2  0
 17 20  1  0
 20 21  1  0
 20 28  1  0
 21 22  1  0
 22 23  1  0
 23 24  1  0
 23 28  2  0
 24 25  2  0
 25 26  1  0
 26 27  2  0
 27 28  1  0
M  END
>  <minimizedAffinity>  (176) 
-9.60296

$$$$
data/200k_reference_output/data/smiles/15379.pdb
     RDKit          3D

 23 25  0  0  0  0  0  0  0  0999 V2000
   70.2094   49.1533   53.6310 C   0  0  0  0  0  0  0  0  0  0  0  0
   69.6332   48.2583   54.3994 C   0  0  0  0  0  0  0  0  0  0  0  0
   68.8620   47.1378   53.9203 C   0  0  0  0  0  0  0  0  0  0  0  0
   68.2892   46.2013   54.7750 C   0  0  0  0  0  0  0  0  0  0  0  0
   67.5723   45.1262   54.3133 C   0  0  0  0  0  0  0  0  0  0  0  0
   67.4118   44.9667   52.9388 C   0  0  0  0  0  0  0  0  0  0  0  0
   67.9641   45.8712   52.0668 C   0  0  0  0  0  0  0  0  0  0  0  0
   68.6954   46.9672   52.5737 C   0  0  0  0  0  0  0  0  0  0  0  0
   69.2683   47.9481   51.6351 C   0  0  0  0  0  0  0  0  0  0  0  0
   70.1004   49.0245   52.1711 C   0  0  0  0  0  0  0  0  0  0  0  0
   72.2423   50.4151   53.9488 N   0  0  0  0  0  0  0  0  0  0  0  0
   70.9830   50.2804   54.1689 C   0  0  0  0  0  0  0  0  0  0  0  0
   73.0010   51.4781   54.4490 N   0  0  0  0  0  0  0  0  0  0  0  0
   75.0400   52.2269   55.2570 N   0  0  0  0  0  0  0  0  0  0  0  0
   74.3514   51.2164   54.8163 C   0  0  0  0  0  0  0  0  0  0  0  0
   74.9373   49.9230   54.7155 N   0  0  0  0  0  0  0  0  0  0  0  0
   69.7792   48.4057   55.7728 O   0  0  0  0  0  0  0  0  0  0  0  0
   68.7533   49.0299   56.4845 C   0  0  0  0  0  0  0  0  0  0  0  0
   67.8437   48.3008   57.2128 C   0  0  0  0  0  0  0  0  0  0  0  0
   66.8187   48.9006   57.9268 C   0  0  0  0  0  0  0  0  0  0  0  0
   66.6775   50.2723   57.9275 C   0  0  0  0  0  0  0  0  0  0  0  0
   67.5815   51.0128   57.2022 C   0  0  0  0  0  0  0  0  0  0  0  0
   68.6034   50.4032   56.4923 C   0  0  0  0  0  0  0  0  0  0  0  0
 14 15  2  0
 15 16  1  0
 15 13  1  0
 13 11  1  0
 11 12  2  0
 12  1  1  0
  1  2  2  0
  1 10  1  0
  2 17  1  0
  2  3  1  0
 17 18  1  0
 18 19  2  0
 18 23  1  0
 19 20  1  0
 20 21  2  0
 21 22  1  0
 22 23  2  0
  3  4  1  0
  3  8  2  0
  4  5  2  0
  5  6  1  0
  6  7  2  0
  7  8  1  0
  8  9  1  0
  9 10  1  0
M  CHG  1  14   1
M  END
>  <minimizedAffinity>  (177) 
-8.59398

$$$$
data/200k_reference_output/data/smiles/15774.pdb
     RDKit          3D

 29 33  0  0  0  0  0  0  0  0999 V2000
   69.5650   43.1054   57.0679 C   0  0  0  0  0  0  0  0  0  0  0  0
   68.2879   42.7885   56.3855 C   0  0  0  0  0  0  0  0  0  0  0  0
   67.5702   41.6145   56.5170 C   0  0  0  0  0  0  0  0  0  0  0  0
   66.4703   41.8060   55.6881 C   0  0  0  0  0  0  0  0  0  0  0  0
   66.5869   43.0269   55.1350 N   0  0  0  0  0  0  0  0  0  0  0  0
   67.6786   43.6452   55.5385 N   0  0  0  0  0  0  0  0  0  0  0  0
   67.8986   40.4529   57.3348 C   0  0  0  0  0  0  0  0  0  0  0  0
   68.1613   39.3730   56.7540 O   0  0  0  0  0  0  0  0  0  0  0  0
   67.9266   40.5114   58.7554 N   0  0  0  0  0  0  0  0  0  0  0  0
   68.2495   39.3687   59.5798 C   0  0  0  0  0  0  0  0  0  0  0  0
   69.3861   39.8161   60.5087 C   0  0  0  0  0  0  0  0  0  0  0  0
   68.8185   40.8581   61.4051 C   0  0  0  0  0  0  0  0  0  0  0  0
   69.1149   40.9221   62.7532 C   0  0  0  0  0  0  0  0  0  0  0  0
   68.5488   41.9245   63.5381 C   0  0  0  0  0  0  0  0  0  0  0  0
   67.6932   42.8617   62.9914 C   0  0  0  0  0  0  0  0  0  0  0  0
   67.4235   42.7612   61.6337 C   0  0  0  0  0  0  0  0  0  0  0  0
   67.9684   41.7808   60.8358 C   0  0  0  0  0  0  0  0  0  0  0  0
   67.6231   41.7568   59.4126 C   0  0  0  0  0  0  0  0  0  0  0  0
   68.1283   44.9509   55.1623 C   0  0  0  0  0  0  0  0  0  0  0  0
   68.3480   45.2936   53.8904 N   0  0  0  0  0  0  0  0  0  0  0  0
   68.7751   46.5339   53.5281 C   0  0  0  0  0  0  0  0  0  0  0  0
   68.9970   46.8731   52.2103 C   0  0  0  0  0  0  0  0  0  0  0  0
   69.4296   48.1249   51.8220 C   0  0  0  0  0  0  0  0  0  0  0  0
   69.6473   49.0723   52.8036 C   0  0  0  0  0  0  0  0  0  0  0  0
   69.4314   48.7533   54.1314 C   0  0  0  0  0  0  0  0  0  0  0  0
   68.9980   47.4947   54.4913 C   0  0  0  0  0  0  0  0  0  0  0  0
   68.7698   47.1335   55.8029 C   0  0  0  0  0  0  0  0  0  0  0  0
   68.9757   48.0141   56.6774 O   0  0  0  0  0  0  0  0  0  0  0  0
   68.3456   45.8865   56.1037 N   0  0  0  0  0  0  0  0  0  0  0  0
  1  2  1  0
  2  3  2  0
  2  6  1  0
  3  7  1  0
  3  4  1  0
  7  8  2  0
  7  9  1  0
  9 10  1  0
  9 18  1  0
 10 11  1  0
 11 12  1  0
 12 13  2  0
 12 17  1  0
 13 14  1  0
 14 15  2  0
 15 16  1  0
 16 17  2  0
 17 18  1  0
  4  5  2  0
  5  6  1  0
  6 19  1  0
 19 20  2  0
 19 29  1  0
 20 21  1  0
 21 22  2  0
 21 26  1  0
 22 23  1  0
 23 24  2  0
 24 25  1  0
 25 26  2  0
 26 27  1  0
 27 28  2  0
 27 29  1  0
M  END
>  <minimizedAffinity>  (178) 
-8.59627

$$$$
data/200k_reference_output/data/smiles/15943.pdb
     RDKit          3D

 26 29  0  0  0  0  0  0  0  0999 V2000
   71.5304   47.3432   58.8963 C   0  0  0  0  0  0  0  0  0  0  0  0
   71.5723   45.9505   58.7978 C   0  0  0  0  0  0  0  0  0  0  0  0
   70.7358   45.3078   57.9105 C   0  0  0  0  0  0  0  0  0  0  0  0
   69.8402   46.0091   57.1006 C   0  0  0  0  0  0  0  0  0  0  0  0
   69.7980   47.3744   57.1957 C   0  0  0  0  0  0  0  0  0  0  0  0
   70.6489   48.0310   58.0984 C   0  0  0  0  0  0  0  0  0  0  0  0
   72.1423   47.8430   61.0676 O   0  0  0  0  0  0  0  0  0  0  0  0
   72.4202   48.0068   59.8397 C   0  0  0  0  0  0  0  0  0  0  0  0
   73.5260   48.7861   59.4220 N   0  0  0  0  0  0  0  0  0  0  0  0
   73.8028   48.9431   58.0279 C   0  0  0  0  0  0  0  0  0  0  0  0
   75.2528   49.1477   57.7066 C   0  0  0  0  0  0  0  0  0  0  0  0
   75.9760   49.7564   58.7093 O   0  0  0  0  0  0  0  0  0  0  0  0
   75.1776   50.4700   59.5980 C   0  0  0  0  0  0  0  0  0  0  0  0
   74.3897   49.4307   60.3809 C   0  0  0  0  0  0  0  0  0  0  0  0
   68.8915   48.2059   56.3692 C   0  0  0  0  0  0  0  0  0  0  0  0
   69.2976   48.2980   54.9591 C   0  0  0  0  0  0  0  0  0  0  0  0
   70.2547   49.2155   54.6147 N   0  0  0  0  0  0  0  0  0  0  0  0
   70.7169   49.3505   53.4052 N   0  0  0  0  0  0  0  0  0  0  0  0
   70.2862   48.5912   52.3918 C   0  0  0  0  0  0  0  0  0  0  0  0
   70.7144   48.6993   51.2209 O   0  0  0  0  0  0  0  0  0  0  0  0
   69.3199   47.6353   52.6366 C   0  0  0  0  0  0  0  0  0  0  0  0
   68.8620   46.8578   51.5952 C   0  0  0  0  0  0  0  0  0  0  0  0
   67.8885   45.9246   51.8675 C   0  0  0  0  0  0  0  0  0  0  0  0
   67.3922   45.7766   53.1356 C   0  0  0  0  0  0  0  0  0  0  0  0
   67.8808   46.5792   54.1612 C   0  0  0  0  0  0  0  0  0  0  0  0
   68.8451   47.5147   53.9353 C   0  0  0  0  0  0  0  0  0  0  0  0
  7  8  2  0
  8  1  1  0
  8  9  1  0
  1  2  2  0
  1  6  1  0
  2  3  1  0
  3  4  2  0
  4  5  1  0
  5 15  1  0
  5  6  2  0
 15 16  1  0
 16 17  2  0
 16 26  1  0
 17 18  1  0
 18 19  1  0
 19 20  2  0
 19 21  1  0
 21 22  1  0
 21 26  2  0
 22 23  2  0
 23 24  1  0
 24 25  2  0
 25 26  1  0
  9 10  1  0
  9 14  1  0
 10 11  1  0
 11 12  1  0
 12 13  1  0
 13 14  1  0
M  END
>  <minimizedAffinity>  (179) 
-8.99172

$$$$
data/200k_reference_output/data/smiles/16068.pdb
     RDKit          3D

 26 27  0  0  0  0  0  0  0  0999 V2000
   69.1526   41.9203   57.5260 C   0  0  0  0  0  0  0  0  0  0  0  0
   68.0314   41.1042   57.2706 C   0  0  0  0  0  0  0  0  0  0  0  0
   68.1358   39.7627   57.5483 C   0  0  0  0  0  0  0  0  0  0  0  0
   69.2941   39.2205   58.0605 C   0  0  0  0  0  0  0  0  0  0  0  0
   70.3591   39.9967   58.3031 N   0  0  0  0  0  0  0  0  0  0  0  0
   70.2651   41.3339   58.0296 C   0  0  0  0  0  0  0  0  0  0  0  0
   71.2878   41.9742   58.2818 O   0  0  0  0  0  0  0  0  0  0  0  0
   68.4373   43.9761   56.1666 N   0  0  0  0  0  0  0  0  0  0  0  0
   69.0668   43.3315   57.2424 C   0  0  0  0  0  0  0  0  0  0  0  0
   69.6431   44.1326   58.0794 O   0  0  0  0  0  0  0  0  0  0  0  0
   68.4383   45.3794   56.0234 N   0  0  0  0  0  0  0  0  0  0  0  0
   67.6916   45.6922   52.4250 C   0  0  0  0  0  0  0  0  0  0  0  0
   67.8447   45.2100   53.7846 N   0  0  0  0  0  0  0  0  0  0  0  0
   68.3355   45.9529   54.7346 C   0  0  0  0  0  0  0  0  0  0  0  0
   68.8601   47.6458   54.4072 S   0  0  0  0  0  0  0  0  0  0  0  0
   71.5318   39.3875   58.8352 C   0  0  0  0  0  0  0  0  0  0  0  0
   71.6222   37.9435   58.7168 C   0  0  0  0  0  0  0  0  0  0  0  0
   71.0163   37.1328   59.6443 C   0  0  0  0  0  0  0  0  0  0  0  0
   71.0533   35.7589   59.6033 C   0  0  0  0  0  0  0  0  0  0  0  0
   71.7490   35.1995   58.5526 C   0  0  0  0  0  0  0  0  0  0  0  0
   72.3691   35.9831   57.6021 C   0  0  0  0  0  0  0  0  0  0  0  0
   72.3049   37.3579   57.6858 C   0  0  0  0  0  0  0  0  0  0  0  0
   73.1176   35.3151   56.4725 C   0  0  0  0  0  0  0  0  0  0  0  0
   74.4633   35.5590   56.6552 F   0  0  0  0  0  0  0  0  0  0  0  0
   72.8376   33.9652   56.4540 F   0  0  0  0  0  0  0  0  0  0  0  0
   72.7386   35.8923   55.3001 F   0  0  0  0  0  0  0  0  0  0  0  0
 12 13  1  0
 13 14  2  0
 14 15  1  0
 14 11  1  0
 11  8  1  0
  8  9  1  0
  9 10  2  0
  9  1  1  0
  1  2  2  0
  1  6  1  0
  2  3  1  0
  3  4  2  0
  4  5  1  0
  5 16  1  0
  5  6  1  0
 16 17  1  0
 17 18  2  0
 17 22  1  0
 18 19  1  0
 19 20  2  0
 20 21  1  0
 21 23  1  0
 21 22  2  0
 23 24  1  0
 23 25  1  0
 23 26  1  0
  6  7  2  0
M  CHG  1  13   1
M  END
>  <minimizedAffinity>  (180) 
-8.61596

$$$$
data/200k_reference_output/data/smiles/16093.pdb
     RDKit          3D

 31 35  0  0  0  0  0  0  0  0999 V2000
   70.7583   51.8520   55.7525 N   0  0  0  0  0  0  0  0  0  0  0  0
   69.9836   52.2841   54.6575 C   0  0  0  0  0  0  0  0  0  0  0  0
   69.1372   51.0719   54.2102 C   0  0  0  0  0  0  0  0  0  0  0  0
   70.0980   50.0749   53.6997 C   0  0  0  0  0  0  0  0  0  0  0  0
   70.9951   49.6369   54.8296 C   0  0  0  0  0  0  0  0  0  0  0  0
   70.7358   50.4853   56.0500 C   0  0  0  0  0  0  0  0  0  0  0  0
   69.5922   48.9306   53.0288 N   0  0  0  0  0  0  0  0  0  0  0  0
   69.5893   48.7505   51.6807 C   0  0  0  0  0  0  0  0  0  0  0  0
   70.0419   49.5937   50.8635 O   0  0  0  0  0  0  0  0  0  0  0  0
   69.0464   47.5706   51.3609 N   0  0  0  0  0  0  0  0  0  0  0  0
   68.6809   46.9519   52.5213 C   0  0  0  0  0  0  0  0  0  0  0  0
   68.0797   45.7177   52.7559 C   0  0  0  0  0  0  0  0  0  0  0  0
   67.8369   45.3749   54.0685 C   0  0  0  0  0  0  0  0  0  0  0  0
   68.1918   46.2527   55.0989 C   0  0  0  0  0  0  0  0  0  0  0  0
   68.7747   47.4456   54.8469 C   0  0  0  0  0  0  0  0  0  0  0  0
   69.0306   47.8153   53.5298 C   0  0  0  0  0  0  0  0  0  0  0  0
   71.8695   52.6263   56.0844 C   0  0  0  0  0  0  0  0  0  0  0  0
   73.0278   52.4135   55.1485 C   0  0  0  0  0  0  0  0  0  0  0  0
   74.3182   50.2656   54.1508 O   0  0  0  0  0  0  0  0  0  0  0  0
   74.7565   50.6315   55.2696 C   0  0  0  0  0  0  0  0  0  0  0  0
   74.1161   51.7602   55.8478 N   0  0  0  0  0  0  0  0  0  0  0  0
   75.8413   49.9666   55.9576 C   0  0  0  0  0  0  0  0  0  0  0  0
   75.6598   49.4365   57.2200 C   0  0  0  0  0  0  0  0  0  0  0  0
   76.6709   48.7943   57.9232 C   0  0  0  0  0  0  0  0  0  0  0  0
   77.9025   48.6874   57.3249 C   0  0  0  0  0  0  0  0  0  0  0  0
   78.8772   48.0536   58.0430 N   0  0  0  0  0  0  0  0  0  0  0  0
   80.1186   47.9103   57.5238 C   0  0  0  0  0  0  0  0  0  0  0  0
   80.3692   48.4146   56.2703 C   0  0  0  0  0  0  0  0  0  0  0  0
   79.3851   49.0521   55.5503 C   0  0  0  0  0  0  0  0  0  0  0  0
   78.1216   49.2029   56.0687 C   0  0  0  0  0  0  0  0  0  0  0  0
   77.0835   49.8460   55.3790 C   0  0  0  0  0  0  0  0  0  0  0  0
 19 20  2  0
 20 21  1  0
 20 22  1  0
 21 18  1  0
 18 17  1  0
 17  1  1  0
  1  2  1  0
  1  6  1  0
  2  3  1  0
  3  4  1  0
  4  7  1  0
  4  5  1  0
  7  8  1  0
  7 16  1  0
  8  9  2  0
  8 10  1  0
 10 11  1  0
 11 12  1  0
 11 16  2  0
 12 13  2  0
 13 14  1  0
 14 15  2  0
 15 16  1  0
  5  6  1  0
 22 23  2  0
 22 31  1  0
 23 24  1  0
 24 25  2  0
 25 26  1  0
 25 30  1  0
 26 27  2  0
 27 28  1  0
 28 29  2  0
 29 30  1  0
 30 31  2  0
M  CHG  1   1   1
M  END
>  <minimizedAffinity>  (181) 
-8.92140

$$$$
data/200k_reference_output/data/smiles/16116.pdb
     RDKit          3D

 23 24  0  0  0  0  0  0  0  0999 V2000
   72.8927   42.3345   58.1239 C   0  0  0  0  0  0  0  0  0  0  0  0
   71.7741   43.2756   58.1008 N   0  0  0  0  0  0  0  0  0  0  0  0
   71.9439   44.5879   58.0680 C   0  0  0  0  0  0  0  0  0  0  0  0
   70.6869   45.1953   58.0554 C   0  0  0  0  0  0  0  0  0  0  0  0
   69.7980   44.1261   58.0802 C   0  0  0  0  0  0  0  0  0  0  0  0
   70.4540   42.9315   58.1099 C   0  0  0  0  0  0  0  0  0  0  0  0
   70.4063   46.6020   57.8908 C   0  0  0  0  0  0  0  0  0  0  0  0
   69.6770   47.3539   57.1812 C   0  0  0  0  0  0  0  0  0  0  0  0
   68.6994   47.2993   56.1537 C   0  0  0  0  0  0  0  0  0  0  0  0
   67.4512   47.4052   56.6068 O   0  0  0  0  0  0  0  0  0  0  0  0
   68.7241   47.1467   54.7276 C   0  0  0  0  0  0  0  0  0  0  0  0
   69.3414   47.9818   53.8405 C   0  0  0  0  0  0  0  0  0  0  0  0
   69.2600   47.7944   52.4904 C   0  0  0  0  0  0  0  0  0  0  0  0
   68.5506   46.7496   51.9407 C   0  0  0  0  0  0  0  0  0  0  0  0
   67.9208   45.8941   52.8143 C   0  0  0  0  0  0  0  0  0  0  0  0
   67.1983   44.8342   52.3384 F   0  0  0  0  0  0  0  0  0  0  0  0
   68.0017   46.0820   54.1563 C   0  0  0  0  0  0  0  0  0  0  0  0
   69.9441   41.5907   58.1374 C   0  0  0  0  0  0  0  0  0  0  0  0
   68.9951   40.9599   57.5511 C   0  0  0  0  0  0  0  0  0  0  0  0
   67.9893   41.2554   56.6009 C   0  0  0  0  0  0  0  0  0  0  0  0
   67.2753   42.2719   56.4791 O   0  0  0  0  0  0  0  0  0  0  0  0
   67.6654   40.2756   55.5608 N   0  0  0  0  0  0  0  0  0  0  0  0
   66.7112   40.5192   54.6337 O   0  0  0  0  0  0  0  0  0  0  0  0
  1  2  1  0
  2  3  1  0
  2  6  1  0
  3  4  2  0
  4  7  1  0
  4  5  1  0
  7  8  2  0
  8  9  1  0
  9 10  2  0
  9 11  1  0
 11 12  2  0
 11 17  1  0
 12 13  1  0
 13 14  2  0
 14 15  1  0
 15 16  1  0
 15 17  2  0
  5  6  2  0
  6 18  1  0
 18 19  2  0
 19 20  1  0
 20 21  2  0
 20 22  1  0
 22 23  1  0
M  END
>  <minimizedAffinity>  (182) 
-8.90641

$$$$
data/200k_reference_output/data/smiles/16151.pdb
     RDKit          3D

 22 24  0  0  0  0  0  0  0  0999 V2000
   69.5984   46.3307   57.5986 C   0  0  0  0  0  0  0  0  0  0  0  0
   69.8672   46.0982   58.7960 O   0  0  0  0  0  0  0  0  0  0  0  0
   69.6882   45.1412   56.7425 N   0  0  0  0  0  0  0  0  0  0  0  0
   70.0560   43.9130   57.3600 C   0  0  0  0  0  0  0  0  0  0  0  0
   71.1835   43.7987   58.1498 C   0  0  0  0  0  0  0  0  0  0  0  0
   71.5185   42.5766   58.7427 C   0  0  0  0  0  0  0  0  0  0  0  0
   70.7597   41.4783   58.5668 N   0  0  0  0  0  0  0  0  0  0  0  0
   69.6583   41.5654   57.8030 C   0  0  0  0  0  0  0  0  0  0  0  0
   68.8876   40.4385   57.6278 C   0  0  0  0  0  0  0  0  0  0  0  0
   67.7601   40.5398   56.8428 C   0  0  0  0  0  0  0  0  0  0  0  0
   67.3716   41.7102   56.2285 C   0  0  0  0  0  0  0  0  0  0  0  0
   68.1692   42.8355   56.4223 C   0  0  0  0  0  0  0  0  0  0  0  0
   69.2953   42.7653   57.1972 C   0  0  0  0  0  0  0  0  0  0  0  0
   68.9044   47.9961   55.8823 C   0  0  0  0  0  0  0  0  0  0  0  0
   69.2362   47.5827   57.0317 C   0  0  0  0  0  0  0  0  0  0  0  0
   70.2302   48.0050   51.2001 N   0  0  0  0  0  0  0  0  0  0  0  0
   69.4112   47.4824   52.2465 C   0  0  0  0  0  0  0  0  0  0  0  0
   68.5322   46.4831   51.9438 C   0  0  0  0  0  0  0  0  0  0  0  0
   67.7460   45.9764   52.9328 C   0  0  0  0  0  0  0  0  0  0  0  0
   67.8421   46.4792   54.2428 C   0  0  0  0  0  0  0  0  0  0  0  0
   68.7110   47.4760   54.5833 C   0  0  0  0  0  0  0  0  0  0  0  0
   69.5107   47.9732   53.5122 C   0  0  0  0  0  0  0  0  0  0  0  0
 16 17  1  0
 17 18  2  0
 17 22  1  0
 18 19  1  0
 19 20  2  0
 20 21  1  0
 21 14  1  0
 21 22  2  0
 14 15  2  0
 15  1  1  0
  1  2  2  0
  1  3  1  0
  3  4  1  0
  4  5  2  0
  4 13  1  0
  5  6  1  0
  6  7  2  0
  7  8  1  0
  8  9  1  0
  8 13  2  0
  9 10  2  0
 10 11  1  0
 11 12  2  0
 12 13  1  0
M  END
>  <minimizedAffinity>  (183) 
-8.60279

$$$$
data/200k_reference_output/data/smiles/16265.pdb
     RDKit          3D

 23 24  0  0  0  0  0  0  0  0999 V2000
   69.9485   51.1668   54.5779 C   0  0  0  0  0  0  0  0  0  0  0  0
   69.5076   50.2144   53.9241 N   0  0  0  0  0  0  0  0  0  0  0  0
   70.0364   49.2363   52.6756 S   0  0  0  0  0  0  0  0  0  0  0  0
   71.4937   48.9249   52.6290 O   0  0  0  0  0  0  0  0  0  0  0  0
   69.7263   49.8346   51.3031 O   0  0  0  0  0  0  0  0  0  0  0  0
   69.0899   47.7325   52.7088 C   0  0  0  0  0  0  0  0  0  0  0  0
   68.7714   47.2411   53.9514 C   0  0  0  0  0  0  0  0  0  0  0  0
   68.0386   46.0690   54.0974 C   0  0  0  0  0  0  0  0  0  0  0  0
   67.6429   45.4182   52.9644 C   0  0  0  0  0  0  0  0  0  0  0  0
   67.9631   45.9165   51.7230 C   0  0  0  0  0  0  0  0  0  0  0  0
   68.6991   47.0929   51.5760 C   0  0  0  0  0  0  0  0  0  0  0  0
   71.3088   51.8270   54.4124 C   0  0  0  0  0  0  0  0  0  0  0  0
   72.5256   51.1746   55.5188 S   0  0  0  0  0  0  0  0  0  0  0  0
   75.3205   51.2717   55.3629 N   0  0  0  0  0  0  0  0  0  0  0  0
   74.1016   50.8487   54.7960 C   0  0  0  0  0  0  0  0  0  0  0  0
   74.1955   50.1918   53.6976 O   0  0  0  0  0  0  0  0  0  0  0  0
   69.1253   51.6693   55.6369 N   0  0  0  0  0  0  0  0  0  0  0  0
   68.3009   50.9310   56.4713 C   0  0  0  0  0  0  0  0  0  0  0  0
   67.1816   51.3644   57.0992 C   0  0  0  0  0  0  0  0  0  0  0  0
   66.4242   50.5005   57.8936 C   0  0  0  0  0  0  0  0  0  0  0  0
   66.7686   49.1859   58.0807 C   0  0  0  0  0  0  0  0  0  0  0  0
   67.9085   48.7313   57.4469 C   0  0  0  0  0  0  0  0  0  0  0  0
   68.6555   49.5660   56.6669 C   0  0  0  0  0  0  0  0  0  0  0  0
 14 15  1  0
 15 16  2  0
 15 13  1  0
 13 12  1  0
 12  1  1  0
  1  2  2  0
  1 17  1  0
  2  3  1  0
  3  4  2  0
  3  5  2  0
  3  6  1  0
  6  7  2  0
  6 11  1  0
  7  8  1  0
  8  9  2  0
  9 10  1  0
 10 11  2  0
 17 18  1  0
 18 19  2  0
 18 23  1  0
 19 20  1  0
 20 21  2  0
 21 22  1  0
 22 23  2  0
M  CHG  1   2   1
M  END
>  <minimizedAffinity>  (184) 
-8.82302

$$$$
data/200k_reference_output/data/smiles/16341.pdb
     RDKit          3D

 30 33  0  0  0  0  0  0  0  0999 V2000
   72.7809   34.8410   57.2103 C   0  0  0  0  0  0  0  0  0  0  0  0
   72.7310   33.5945   57.7873 C   0  0  0  0  0  0  0  0  0  0  0  0
   72.0586   33.3438   58.9622 C   0  0  0  0  0  0  0  0  0  0  0  0
   71.4089   34.3825   59.5852 C   0  0  0  0  0  0  0  0  0  0  0  0
   70.7328   34.1861   60.7212 N   0  0  0  0  0  0  0  0  0  0  0  0
   70.0790   35.1686   61.3522 C   0  0  0  0  0  0  0  0  0  0  0  0
   70.1084   36.4255   60.8068 C   0  0  0  0  0  0  0  0  0  0  0  0
   70.7929   36.7200   59.6172 C   0  0  0  0  0  0  0  0  0  0  0  0
   71.4434   35.6593   59.0205 C   0  0  0  0  0  0  0  0  0  0  0  0
   72.1196   35.8939   57.8460 C   0  0  0  0  0  0  0  0  0  0  0  0
   75.5746   35.1757   54.7254 C   0  0  0  0  0  0  0  0  0  0  0  0
   74.8712   35.5933   53.5921 C   0  0  0  0  0  0  0  0  0  0  0  0
   73.5035   35.7625   53.6408 C   0  0  0  0  0  0  0  0  0  0  0  0
   72.8358   35.5141   54.8245 C   0  0  0  0  0  0  0  0  0  0  0  0
   73.4958   35.1005   55.9626 C   0  0  0  0  0  0  0  0  0  0  0  0
   74.8587   34.9390   55.8908 C   0  0  0  0  0  0  0  0  0  0  0  0
   77.7344   33.5249   53.8033 N   0  0  0  0  0  0  0  0  0  0  0  0
   77.3045   34.9744   54.6182 S   0  0  0  0  0  0  0  0  0  0  0  0
   77.9321   34.9137   55.9930 O   0  0  0  0  0  0  0  0  0  0  0  0
   77.8787   36.1323   53.8521 O   0  0  0  0  0  0  0  0  0  0  0  0
   70.8100   38.0856   59.1188 C   0  0  0  0  0  0  0  0  0  0  0  0
   71.9430   38.8533   59.2199 C   0  0  0  0  0  0  0  0  0  0  0  0
   71.9934   40.1580   58.7432 C   0  0  0  0  0  0  0  0  0  0  0  0
   70.8781   40.7076   58.1508 C   0  0  0  0  0  0  0  0  0  0  0  0
   69.7272   39.9681   58.0341 C   0  0  0  0  0  0  0  0  0  0  0  0
   69.7155   38.6873   58.5144 C   0  0  0  0  0  0  0  0  0  0  0  0
   68.2975   40.6775   57.2721 S   0  0  0  0  0  0  0  0  0  0  0  0
   68.6647   42.3196   56.9296 N   0  0  0  0  0  0  0  0  0  0  0  0
   67.8798   39.9004   56.0808 O   0  0  0  0  0  0  0  0  0  0  0  0
   67.1806   40.6717   58.2879 O   0  0  0  0  0  0  0  0  0  0  0  0
 17 18  1  0
 18 19  2  0
 18 20  2  0
 18 11  1  0
 11 12  2  0
 11 16  1  0
 12 13  1  0
 13 14  2  0
 14 15  1  0
 15  1  1  0
 15 16  2  0
  1  2  2  0
  1 10  1  0
  2  3  1  0
  3  4  2  0
  4  5  1  0
  4  9  1  0
  5  6  2  0
  6  7  1  0
  7  8  2  0
  8 21  1  0
  8  9  1  0
 21 22  2  0
 21 26  1  0
 22 23  1  0
 23 24  2  0
 24 25  1  0
 25 27  1  0
 25 26  2  0
 27 28  1  0
 27 29  2  0
 27 30  2  0
  9 10  2  0
M  END
>  <minimizedAffinity>  (185) 
-8.54465

$$$$
data/200k_reference_output/data/smiles/16380.pdb
     RDKit          3D

 28 31  0  0  0  0  0  0  0  0999 V2000
   71.9790   45.2006   59.4542 N   0  0  0  0  0  0  0  0  0  0  0  0
   71.1075   44.3478   58.7087 C   0  0  0  0  0  0  0  0  0  0  0  0
   71.2449   42.9910   58.8469 N   0  0  0  0  0  0  0  0  0  0  0  0
   70.4634   42.1276   58.1818 C   0  0  0  0  0  0  0  0  0  0  0  0
   69.5133   42.6742   57.3507 C   0  0  0  0  0  0  0  0  0  0  0  0
   69.3671   44.0036   57.2052 N   0  0  0  0  0  0  0  0  0  0  0  0
   70.1606   44.8844   57.8803 C   0  0  0  0  0  0  0  0  0  0  0  0
   69.9465   46.3265   57.6766 C   0  0  0  0  0  0  0  0  0  0  0  0
   70.6155   47.2526   58.2473 N   0  0  0  0  0  0  0  0  0  0  0  0
   71.8856   46.9108   59.3545 S   0  0  0  0  0  0  0  0  0  0  0  0
   73.1873   47.4282   58.7596 O   0  0  0  0  0  0  0  0  0  0  0  0
   71.6354   47.5400   60.6942 O   0  0  0  0  0  0  0  0  0  0  0  0
   70.6362   40.6814   58.3534 C   0  0  0  0  0  0  0  0  0  0  0  0
   69.5021   39.8802   58.4132 C   0  0  0  0  0  0  0  0  0  0  0  0
   69.5979   38.5140   58.5749 C   0  0  0  0  0  0  0  0  0  0  0  0
   70.8199   37.8850   58.6833 C   0  0  0  0  0  0  0  0  0  0  0  0
   71.9500   38.6674   58.6252 C   0  0  0  0  0  0  0  0  0  0  0  0
   71.8495   40.0548   58.4620 C   0  0  0  0  0  0  0  0  0  0  0  0
   72.3893   44.2428   61.6833 C   0  0  0  0  0  0  0  0  0  0  0  0
   72.9612   44.5951   60.3115 C   0  0  0  0  0  0  0  0  0  0  0  0
   68.9271   46.7743   56.7889 N   0  0  0  0  0  0  0  0  0  0  0  0
   69.0681   47.8789   55.8641 C   0  0  0  0  0  0  0  0  0  0  0  0
   68.8267   47.3818   54.4936 C   0  0  0  0  0  0  0  0  0  0  0  0
   69.3521   47.9793   53.3810 C   0  0  0  0  0  0  0  0  0  0  0  0
   69.1141   47.4794   52.0962 C   0  0  0  0  0  0  0  0  0  0  0  0
   68.3333   46.3593   51.9196 C   0  0  0  0  0  0  0  0  0  0  0  0
   67.8056   45.7589   53.0402 C   0  0  0  0  0  0  0  0  0  0  0  0
   68.0384   46.2480   54.3079 C   0  0  0  0  0  0  0  0  0  0  0  0
 19 20  1  0
 20  1  1  0
  1  2  1  0
  1 10  1  0
  2  3  1  0
  2  7  2  0
  3  4  2  0
  4 13  1  0
  4  5  1  0
 13 14  2  0
 13 18  1  0
 14 15  1  0
 15 16  2  0
 16 17  1  0
 17 18  2  0
  5  6  2  0
  6  7  1  0
  7  8  1  0
  8 21  1  0
  8  9  2  0
 21 22  1  0
 22 23  1  0
 23 24  2  0
 23 28  1  0
 24 25  1  0
 25 26  2  0
 26 27  1  0
 27 28  2  0
  9 10  1  0
 10 11  2  0
 10 12  2  0
M  CHG  1   9   1
M  END
>  <minimizedAffinity>  (186) 
-8.70935

$$$$
data/200k_reference_output/data/smiles/16405.pdb
     RDKit          3D

 24 26  0  0  0  0  0  0  0  0999 V2000
   69.9937   41.6249   58.1552 C   0  0  0  0  0  0  0  0  0  0  0  0
   70.4274   40.5404   58.8908 C   0  0  0  0  0  0  0  0  0  0  0  0
   69.7749   39.3194   58.8351 C   0  0  0  0  0  0  0  0  0  0  0  0
   68.6682   39.2081   58.0203 C   0  0  0  0  0  0  0  0  0  0  0  0
   68.2288   40.2831   57.2841 C   0  0  0  0  0  0  0  0  0  0  0  0
   68.8986   41.4952   57.3565 C   0  0  0  0  0  0  0  0  0  0  0  0
   68.2283   42.4564   56.4893 C   0  0  0  0  0  0  0  0  0  0  0  0
   68.5026   43.7033   56.2492 N   0  0  0  0  0  0  0  0  0  0  0  0
   67.0988   41.7469   55.8791 C   0  0  0  0  0  0  0  0  0  0  0  0
   66.2834   42.2267   55.0754 O   0  0  0  0  0  0  0  0  0  0  0  0
   67.1188   40.4021   56.3857 N   0  0  0  0  0  0  0  0  0  0  0  0
   72.1620   42.6587   57.7970 C   0  0  0  0  0  0  0  0  0  0  0  0
   70.7465   42.8956   58.2566 C   0  0  0  0  0  0  0  0  0  0  0  0
   67.6928   44.4439   55.3538 N   0  0  0  0  0  0  0  0  0  0  0  0
   68.2286   45.6138   54.7362 C   0  0  0  0  0  0  0  0  0  0  0  0
   68.1904   45.7966   53.3700 C   0  0  0  0  0  0  0  0  0  0  0  0
   68.7090   46.9379   52.7611 C   0  0  0  0  0  0  0  0  0  0  0  0
   69.2879   47.9392   53.5171 C   0  0  0  0  0  0  0  0  0  0  0  0
   69.3201   47.7460   54.8816 C   0  0  0  0  0  0  0  0  0  0  0  0
   68.8068   46.6172   55.4824 C   0  0  0  0  0  0  0  0  0  0  0  0
   69.9477   49.3876   52.7784 S   0  0  0  0  0  0  0  0  0  0  0  0
   71.5241   49.6583   53.4646 N   0  0  0  0  0  0  0  0  0  0  0  0
   69.1269   50.5975   53.0629 O   0  0  0  0  0  0  0  0  0  0  0  0
   70.0444   49.2316   51.2873 O   0  0  0  0  0  0  0  0  0  0  0  0
 12 13  1  0
 13  1  1  0
  1  2  2  0
  1  6  1  0
  2  3  1  0
  3  4  2  0
  4  5  1  0
  5  6  2  0
  5 11  1  0
  6  7  1  0
  7  8  2  0
  7  9  1  0
  8 14  1  0
 14 15  1  0
 15 16  2  0
 15 20  1  0
 16 17  1  0
 17 18  2  0
 18 21  1  0
 18 19  1  0
 21 22  1  0
 21 23  2  0
 21 24  2  0
 19 20  2  0
  9 10  2  0
  9 11  1  0
M  END
>  <minimizedAffinity>  (187) 
-9.09859

$$$$
data/200k_reference_output/data/smiles/16415.pdb
     RDKit          3D

 28 31  0  0  0  0  0  0  0  0999 V2000
   70.9038   44.5348   58.4777 C   0  0  2  0  0  0  0  0  0  0  0  0
   70.8747   44.4772   59.8698 O   0  0  0  0  0  0  0  0  0  0  0  0
   70.3673   43.2870   57.8798 C   0  0  0  0  0  0  0  0  0  0  0  0
   71.5093   42.2996   57.8400 C   0  0  0  0  0  0  0  0  0  0  0  0
   72.6871   43.0632   58.2223 N   0  0  0  0  0  0  0  0  0  0  0  0
   72.3626   44.4418   58.1202 C   0  0  0  0  0  0  0  0  0  0  0  0
   73.1676   45.3334   57.7976 O   0  0  0  0  0  0  0  0  0  0  0  0
   73.9296   42.4885   58.6272 C   0  0  0  0  0  0  0  0  0  0  0  0
   74.0050   41.5209   59.6098 C   0  0  0  0  0  0  0  0  0  0  0  0
   75.2177   40.9750   59.9969 C   0  0  0  0  0  0  0  0  0  0  0  0
   76.4051   41.3708   59.4187 C   0  0  0  0  0  0  0  0  0  0  0  0
   77.7025   41.0114   59.6027 N   0  0  0  0  0  0  0  0  0  0  0  0
   78.5010   41.7171   58.7612 C   0  0  0  0  0  0  0  0  0  0  0  0
   77.6636   42.5395   58.0368 C   0  0  0  0  0  0  0  0  0  0  0  0
   76.3530   42.3340   58.4358 C   0  0  0  0  0  0  0  0  0  0  0  0
   75.1331   42.8724   58.0588 C   0  0  0  0  0  0  0  0  0  0  0  0
   70.5504   46.8263   58.5532 O   0  0  0  0  0  0  0  0  0  0  0  0
   70.2751   45.7676   57.9432 C   0  0  0  0  0  0  0  0  0  0  0  0
   69.4237   45.7691   56.8272 N   0  0  0  0  0  0  0  0  0  0  0  0
   68.8119   46.9486   56.3007 C   0  0  0  0  0  0  0  0  0  0  0  0
   68.6915   46.8724   54.8317 C   0  0  0  0  0  0  0  0  0  0  0  0
   67.9857   45.8647   54.2470 C   0  0  0  0  0  0  0  0  0  0  0  0
   67.8810   45.8299   52.8796 C   0  0  0  0  0  0  0  0  0  0  0  0
   67.1772   44.8222   52.3183 F   0  0  0  0  0  0  0  0  0  0  0  0
   68.4677   46.7817   52.0976 C   0  0  0  0  0  0  0  0  0  0  0  0
   69.1864   47.8046   52.7220 C   0  0  0  0  0  0  0  0  0  0  0  0
   69.9272   49.0071   51.7064 Cl  0  0  0  0  0  0  0  0  0  0  0  0
   69.3016   47.8555   54.0929 C   0  0  0  0  0  0  0  0  0  0  0  0
 17 18  2  0
 18 19  1  0
 19 20  1  0
 20 21  1  0
 21 22  2  0
 21 28  1  0
 22 23  1  0
 23 24  1  0
 23 25  2  0
 25 26  1  0
 26 27  1  0
 26 28  2  0
  1 18  1  0
  1  2  1  1
  1  3  1  0
  1  6  1  0
  3  4  1  0
  4  5  1  0
  5  8  1  0
  5  6  1  0
  8  9  2  0
  8 16  1  0
  9 10  1  0
 10 11  2  0
 11 12  1  0
 11 15  1  0
 12 13  1  0
 13 14  2  0
 14 15  1  0
 15 16  2  0
  6  7  2  0
M  END
>  <minimizedAffinity>  (188) 
-8.85050

$$$$
data/200k_reference_output/data/smiles/16523.pdb
     RDKit          3D

 25 28  0  0  0  0  0  0  0  0999 V2000
   69.7017   43.2368   57.2299 C   0  0  1  0  0  0  0  0  0  0  0  0
   70.5497   42.7494   58.3634 C   0  0  0  0  0  0  0  0  0  0  0  0
   70.4430   41.3127   58.3922 N   0  0  0  0  0  0  0  0  0  0  0  0
   71.2931   40.2736   58.4611 C   0  0  0  0  0  0  0  0  0  0  0  0
   70.5645   39.1025   58.4589 C   0  0  0  0  0  0  0  0  0  0  0  0
   69.2871   39.4995   58.3857 N   0  0  0  0  0  0  0  0  0  0  0  0
   69.1852   40.8194   58.3441 C   0  0  0  0  0  0  0  0  0  0  0  0
   68.1108   41.8644   58.2550 C   0  0  0  0  0  0  0  0  0  0  0  0
   68.4137   42.8047   57.2799 O   0  0  0  0  0  0  0  0  0  0  0  0
   71.0778   37.7493   58.5219 C   0  0  0  0  0  0  0  0  0  0  0  0
   70.6664   36.8439   59.4887 C   0  0  0  0  0  0  0  0  0  0  0  0
   71.1538   35.5499   59.5476 C   0  0  0  0  0  0  0  0  0  0  0  0
   72.0827   35.1049   58.6336 C   0  0  0  0  0  0  0  0  0  0  0  0
   72.5003   36.0021   57.6619 C   0  0  0  0  0  0  0  0  0  0  0  0
   72.0098   37.2949   57.6081 C   0  0  0  0  0  0  0  0  0  0  0  0
   69.6952   44.7304   57.0586 C   0  0  0  0  0  0  0  0  0  0  0  0
   68.5314   45.1998   56.3415 N   0  0  0  0  0  0  0  0  0  0  0  0
   68.7688   46.4977   55.7279 C   0  0  0  0  0  0  0  0  0  0  0  0
   69.7248   48.6844   54.0284 C   0  0  0  0  0  0  0  0  0  0  0  0
   69.0000   47.5247   53.5278 C   0  0  0  0  0  0  0  0  0  0  0  0
   68.7610   47.4762   52.1582 C   0  0  0  0  0  0  0  0  0  0  0  0
   68.0886   46.4318   51.5576 C   0  0  0  0  0  0  0  0  0  0  0  0
   67.6492   45.4114   52.3875 C   0  0  0  0  0  0  0  0  0  0  0  0
   67.8926   45.4849   53.7044 N   0  0  0  0  0  0  0  0  0  0  0  0
   68.5504   46.5048   54.2923 C   0  0  0  0  0  0  0  0  0  0  0  0
 19 20  1  0
 20 21  2  0
 20 25  1  0
 21 22  1  0
 22 23  2  0
 23 24  1  0
 24 25  2  0
 25 18  1  0
 18 17  1  0
 17 16  1  0
  1 16  1  1
  1  2  1  0
  1  9  1  0
  2  3  1  0
  3  4  1  0
  3  7  1  0
  4  5  2  0
  5 10  1  0
  5  6  1  0
 10 11  2  0
 10 15  1  0
 11 12  1  0
 12 13  2  0
 13 14  1  0
 14 15  2  0
  6  7  2  0
  7  8  1  0
  8  9  1  0
M  CHG  1  17   1
M  END
>  <minimizedAffinity>  (189) 
-8.65442

$$$$
data/200k_reference_output/data/smiles/16557.pdb
     RDKit          3D

 33 37  0  0  0  0  0  0  0  0999 V2000
   70.9159   49.4854   58.5049 C   0  0  0  0  0  0  0  0  0  0  0  0
   70.8280   48.1662   58.5851 C   0  0  0  0  0  0  0  0  0  0  0  0
   70.1342   47.4819   57.6607 N   0  0  0  0  0  0  0  0  0  0  0  0
   70.0585   46.1628   57.7626 C   0  0  0  0  0  0  0  0  0  0  0  0
   69.4085   45.5202   56.8967 O   0  0  0  0  0  0  0  0  0  0  0  0
   70.6753   45.4682   58.7952 C   0  0  0  0  0  0  0  0  0  0  0  0
   70.5706   44.1446   58.8530 C   0  0  0  0  0  0  0  0  0  0  0  0
   71.3716   46.1522   59.7221 N   0  0  0  0  0  0  0  0  0  0  0  0
   71.4531   47.4763   59.6290 C   0  0  0  0  0  0  0  0  0  0  0  0
   72.1036   48.1730   60.4847 O   0  0  0  0  0  0  0  0  0  0  0  0
   69.7383   50.2593   55.0376 C   0  0  0  0  0  0  0  0  0  0  0  0
   69.0658   51.4684   55.2801 C   0  0  0  0  0  0  0  0  0  0  0  0
   69.0014   52.0174   56.5446 C   0  0  0  0  0  0  0  0  0  0  0  0
   69.5991   51.3946   57.6170 C   0  0  0  0  0  0  0  0  0  0  0  0
   70.2661   50.2121   57.4226 C   0  0  0  0  0  0  0  0  0  0  0  0
   70.3188   49.6764   56.1395 C   0  0  0  0  0  0  0  0  0  0  0  0
   70.4196   50.3427   52.8032 O   0  0  0  0  0  0  0  0  0  0  0  0
   69.8060   49.7130   53.6922 C   0  0  0  0  0  0  0  0  0  0  0  0
   69.1838   48.4590   53.3499 C   0  0  0  0  0  0  0  0  0  0  0  0
   68.5158   47.6511   54.2375 C   0  0  0  0  0  0  0  0  0  0  0  0
   67.9437   46.4387   53.8811 C   0  0  0  0  0  0  0  0  0  0  0  0
   68.0384   46.0071   52.5771 C   0  0  0  0  0  0  0  0  0  0  0  0
   67.4709   44.8049   52.2307 F   0  0  0  0  0  0  0  0  0  0  0  0
   68.6986   46.7891   51.6670 C   0  0  0  0  0  0  0  0  0  0  0  0
   69.2616   47.9919   52.0359 C   0  0  0  0  0  0  0  0  0  0  0  0
   71.2157   43.4182   59.9333 C   0  0  0  0  0  0  0  0  0  0  0  0
   70.9100   43.4923   61.2614 N   0  0  0  0  0  0  0  0  0  0  0  0
   71.7522   42.6706   61.8936 C   0  0  0  0  0  0  0  0  0  0  0  0
   72.5677   42.0905   61.0018 N   0  0  0  0  0  0  0  0  0  0  0  0
   72.2455   42.5492   59.7564 C   0  0  0  0  0  0  0  0  0  0  0  0
   72.9716   42.0894   58.5558 C   0  0  0  0  0  0  0  0  0  0  0  0
   74.4603   42.3774   58.4599 C   0  0  0  0  0  0  0  0  0  0  0  0
   73.4494   42.9607   57.4893 C   0  0  0  0  0  0  0  0  0  0  0  0
 17 18  2  0
 18 19  1  0
 18 11  1  0
 19 20  2  0
 19 25  1  0
 20 21  1  0
 21 22  2  0
 22 23  1  0
 22 24  1  0
 24 25  2  0
 11 12  2  0
 11 16  1  0
 12 13  1  0
 13 14  2  0
 14 15  1  0
 15  1  1  0
 15 16  2  0
  1  2  2  0
  2  3  1  0
  2  9  1  0
  3  4  1  0
  4  5  2  0
  4  6  1  0
  6  7  2  0
  6  8  1  0
  7 26  1  0
 26 27  1  0
 26 30  2  0
 27 28  2  0
 28 29  1  0
 29 30  1  0
 30 31  1  0
 31 32  1  0
 31 33  1  0
 32 33  1  0
  8  9  1  0
  9 10  2  0
M  CHG  1  27   1
M  END
>  <minimizedAffinity>  (190) 
-9.87300

$$$$
data/200k_reference_output/data/smiles/16579.pdb
     RDKit          3D

 26 29  0  0  0  0  0  0  0  0999 V2000
   67.5823   44.2108   55.1497 N   0  0  0  0  0  0  0  0  0  0  0  0
   68.2122   43.4472   56.1644 C   0  0  0  0  0  0  0  0  0  0  0  0
   69.3580   43.8618   56.5414 O   0  0  0  0  0  0  0  0  0  0  0  0
   67.6513   42.2909   56.7570 N   0  0  0  0  0  0  0  0  0  0  0  0
   69.7574   48.7407   52.6970 C   0  0  0  0  0  0  0  0  0  0  0  0
   69.5504   48.3560   51.4169 N   0  0  0  0  0  0  0  0  0  0  0  0
   68.9700   47.1680   51.3872 N   0  0  0  0  0  0  0  0  0  0  0  0
   68.7625   46.7061   52.6366 C   0  0  0  0  0  0  0  0  0  0  0  0
   68.2086   45.5551   53.1797 C   0  0  0  0  0  0  0  0  0  0  0  0
   68.1416   45.3749   54.5479 C   0  0  0  0  0  0  0  0  0  0  0  0
   68.6380   46.3673   55.3115 N   0  0  0  0  0  0  0  0  0  0  0  0
   69.1756   47.4853   54.8198 C   0  0  0  0  0  0  0  0  0  0  0  0
   69.2621   47.7034   53.4627 C   0  0  0  0  0  0  0  0  0  0  0  0
   69.4790   50.9256   53.6687 C   0  0  0  0  0  0  0  0  0  0  0  0
   70.3416   49.9240   53.1590 O   0  0  0  0  0  0  0  0  0  0  0  0
   68.3338   41.5361   57.7981 C   0  0  1  0  0  0  0  0  0  0  0  0
   67.7991   41.8392   59.1377 C   0  0  0  0  0  0  0  0  0  0  0  0
   66.4577   41.6386   59.4585 C   0  0  0  0  0  0  0  0  0  0  0  0
   65.9603   41.9230   60.7134 C   0  0  0  0  0  0  0  0  0  0  0  0
   66.8342   42.4165   61.6546 C   0  0  0  0  0  0  0  0  0  0  0  0
   68.1738   42.6254   61.3598 C   0  0  0  0  0  0  0  0  0  0  0  0
   68.6445   42.3328   60.0994 C   0  0  0  0  0  0  0  0  0  0  0  0
   68.3337   40.0561   57.5003 C   0  0  0  0  0  0  0  0  0  0  0  0
   67.9161   39.7387   56.2090 O   0  0  0  0  0  0  0  0  0  0  0  0
   69.3119   39.1471   58.1113 C   0  0  0  0  0  0  0  0  0  0  0  0
   67.8691   39.0954   58.5592 C   0  0  0  0  0  0  0  0  0  0  0  0
 14 15  1  0
 15  5  1  0
  5  6  2  0
  5 13  1  0
  6  7  1  0
  7  8  1  0
  8  9  1  0
  8 13  2  0
  9 10  2  0
 10  1  1  0
 10 11  1  0
  1  2  1  0
  2  3  2  0
  2  4  1  0
 16  4  1  6
 16 17  1  0
 16 23  1  0
 17 18  2  0
 17 22  1  0
 18 19  1  0
 19 20  2  0
 20 21  1  0
 21 22  2  0
 23 24  1  0
 23 25  1  0
 23 26  1  0
 25 26  1  0
 11 12  2  0
 12 13  1  0
M  END
>  <minimizedAffinity>  (191) 
-8.59314

$$$$
data/200k_reference_output/data/smiles/16618.pdb
     RDKit          3D

 28 30  0  0  0  0  0  0  0  0999 V2000
   68.2967   43.8800   55.9662 C   0  0  0  0  0  0  0  0  0  0  0  0
   69.3430   44.5572   56.5943 C   0  0  0  0  0  0  0  0  0  0  0  0
   70.0956   43.9875   57.5778 C   0  0  0  0  0  0  0  0  0  0  0  0
   69.8732   42.7122   58.0121 C   0  0  0  0  0  0  0  0  0  0  0  0
   68.8294   41.9930   57.4053 C   0  0  0  0  0  0  0  0  0  0  0  0
   68.0964   42.5921   56.4265 C   0  0  0  0  0  0  0  0  0  0  0  0
   67.5449   44.4796   54.9713 O   0  0  0  0  0  0  0  0  0  0  0  0
   69.5956   48.9979   54.7754 C   0  0  0  0  0  0  0  0  0  0  0  0
   69.0576   47.7531   54.1213 C   0  0  0  0  0  0  0  0  0  0  0  0
   68.5573   46.7122   54.8978 C   0  0  0  0  0  0  0  0  0  0  0  0
   68.0645   45.5626   54.2806 C   0  0  0  0  0  0  0  0  0  0  0  0
   68.1011   45.5187   52.9131 C   0  0  0  0  0  0  0  0  0  0  0  0
   68.5908   46.5345   52.1022 C   0  0  0  0  0  0  0  0  0  0  0  0
   69.0787   47.6756   52.7569 C   0  0  0  0  0  0  0  0  0  0  0  0
   69.5846   48.7391   51.9200 C   0  0  0  0  0  0  0  0  0  0  0  0
   69.9910   49.5969   51.2305 N   0  0  0  0  0  0  0  0  0  0  0  0
   70.6400   42.0942   59.1049 C   0  0  0  0  0  0  0  0  0  0  0  0
   70.3176   42.4114   60.4781 C   0  0  0  0  0  0  0  0  0  0  0  0
   70.3129   43.6915   60.7597 O   0  0  0  0  0  0  0  0  0  0  0  0
   70.0096   41.5971   61.5720 N   0  0  0  0  0  0  0  0  0  0  0  0
   70.0002   40.1802   61.5299 C   0  0  0  0  0  0  0  0  0  0  0  0
   69.9545   39.4773   62.8551 C   0  0  0  0  0  0  0  0  0  0  0  0
   69.8757   40.2451   63.9694 O   0  0  0  0  0  0  0  0  0  0  0  0
   70.4638   41.5031   63.8827 C   0  0  0  0  0  0  0  0  0  0  0  0
   69.6462   42.2393   62.8390 C   0  0  2  0  0  0  0  0  0  0  0  0
   68.2148   41.9611   63.1642 C   0  0  0  0  0  0  0  0  0  0  0  0
   67.8358   41.7814   64.3312 O   0  0  0  0  0  0  0  0  0  0  0  0
   67.3088   41.9072   62.1294 O   0  0  0  0  0  0  0  0  0  0  0  0
  8  9  1  0
  9 10  2  0
  9 14  1  0
 10 11  1  0
 11  7  1  0
 11 12  2  0
  7  1  1  0
  1  2  2  0
  1  6  1  0
  2  3  1  0
  3  4  2  0
  4 17  1  0
  4  5  1  0
 17 18  1  0
 18 19  2  0
 18 20  1  0
 20 21  1  0
 20 25  1  0
 21 22  1  0
 22 23  1  0
 23 24  1  0
 24 25  1  0
 25 26  1  1
 26 27  2  0
 26 28  1  0
  5  6  2  0
 12 13  1  0
 13 14  2  0
 14 15  1  0
 15 16  3  0
M  END
>  <minimizedAffinity>  (192) 
-8.53125

$$$$
data/200k_reference_output/data/smiles/16631.pdb
     RDKit          3D

 27 29  0  0  0  0  0  0  0  0999 V2000
   72.7342   35.2796   54.9719 C   0  0  0  0  0  0  0  0  0  0  0  0
   73.8402   35.2259   54.2495 C   0  0  0  0  0  0  0  0  0  0  0  0
   75.0002   35.1401   54.9054 N   0  0  0  0  0  0  0  0  0  0  0  0
   76.1433   35.0840   54.1941 C   0  0  0  0  0  0  0  0  0  0  0  0
   77.2509   35.0027   54.7518 O   0  0  0  0  0  0  0  0  0  0  0  0
   76.1375   35.1139   52.7977 C   0  0  0  0  0  0  0  0  0  0  0  0
   77.2469   35.0610   52.0888 C   0  0  0  0  0  0  0  0  0  0  0  0
   74.9776   35.2010   52.1369 N   0  0  0  0  0  0  0  0  0  0  0  0
   73.8470   35.2556   52.8687 C   0  0  0  0  0  0  0  0  0  0  0  0
   72.7245   35.3381   52.2762 O   0  0  0  0  0  0  0  0  0  0  0  0
   72.5713   36.5088   58.5107 C   0  0  0  0  0  0  0  0  0  0  0  0
   72.8515   35.3485   59.2072 C   0  0  0  0  0  0  0  0  0  0  0  0
   73.0972   34.1504   58.5376 C   0  0  0  0  0  0  0  0  0  0  0  0
   73.0623   34.1134   57.1546 C   0  0  0  0  0  0  0  0  0  0  0  0
   73.3024   32.9383   56.4522 O   0  0  0  0  0  0  0  0  0  0  0  0
   72.7883   35.2441   56.4509 C   0  0  0  0  0  0  0  0  0  0  0  0
   72.5471   36.4224   57.1338 C   0  0  0  0  0  0  0  0  0  0  0  0
   73.5046   38.6308   59.4087 C   0  0  0  0  0  0  0  0  0  0  0  0
   72.3028   37.8004   59.1396 C   0  0  0  0  0  0  0  0  0  0  0  0
   71.5749   37.5426   60.4504 C   0  0  0  0  0  0  0  0  0  0  0  0
   71.2997   38.5384   58.2436 C   0  0  0  0  0  0  0  0  0  0  0  0
   77.2713   35.0903   50.6290 C   0  0  0  0  0  0  0  0  0  0  0  0
   78.0103   35.9573   49.8903 C   0  0  0  0  0  0  0  0  0  0  0  0
   77.9694   35.9106   48.5132 C   0  0  0  0  0  0  0  0  0  0  0  0
   77.1957   35.0017   47.8233 C   0  0  0  0  0  0  0  0  0  0  0  0
   76.4495   34.1257   48.5839 C   0  0  0  0  0  0  0  0  0  0  0  0
   76.4842   34.1660   49.9718 C   0  0  0  0  0  0  0  0  0  0  0  0
 18 19  1  0
 19 20  1  0
 19 21  1  0
 19 11  1  0
 11 12  2  0
 11 17  1  0
 12 13  1  0
 13 14  2  0
 14 15  1  0
 14 16  1  0
 16  1  1  0
 16 17  2  0
  1  2  2  0
  2  3  1  0
  2  9  1  0
  3  4  1  0
  4  5  2  0
  4  6  1  0
  6  7  2  0
  6  8  1  0
  7 22  1  0
 22 23  2  0
 22 27  1  0
 23 24  1  0
 24 25  2  0
 25 26  1  0
 26 27  2  0
  8  9  1  0
  9 10  2  0
M  END
>  <minimizedAffinity>  (193) 
-8.50329

$$$$
data/200k_reference_output/data/smiles/16642.pdb
     RDKit          3D

 25 26  0  0  0  0  0  0  0  0999 V2000
   69.9993   49.0852   52.4735 S   0  0  0  0  0  0  0  0  0  0  0  0
   70.6467   48.6806   51.1763 O   0  0  0  0  0  0  0  0  0  0  0  0
   68.8937   50.0792   52.1752 O   0  0  0  0  0  0  0  0  0  0  0  0
   69.2624   47.7013   53.2616 C   0  0  0  0  0  0  0  0  0  0  0  0
   69.2879   47.4542   54.5949 C   0  0  0  0  0  0  0  0  0  0  0  0
   69.9430   48.2846   55.4121 F   0  0  0  0  0  0  0  0  0  0  0  0
   68.6294   46.3143   55.0635 C   0  0  0  0  0  0  0  0  0  0  0  0
   68.6618   46.0796   56.3952 F   0  0  0  0  0  0  0  0  0  0  0  0
   67.9704   45.4562   54.2116 C   0  0  0  0  0  0  0  0  0  0  0  0
   67.3458   44.3668   54.6821 F   0  0  0  0  0  0  0  0  0  0  0  0
   67.9435   45.7020   52.8592 C   0  0  0  0  0  0  0  0  0  0  0  0
   67.3009   44.8705   51.9982 F   0  0  0  0  0  0  0  0  0  0  0  0
   68.5922   46.8257   52.4068 C   0  0  0  0  0  0  0  0  0  0  0  0
   68.5459   47.0416   51.0511 F   0  0  0  0  0  0  0  0  0  0  0  0
   71.1315   49.7563   53.5689 N   0  0  0  0  0  0  0  0  0  0  0  0
   71.7863   51.5465   55.0759 C   0  0  0  0  0  0  0  0  0  0  0  0
   71.5305   52.6732   55.8084 C   0  0  0  0  0  0  0  0  0  0  0  0
   70.2726   53.2527   55.7941 C   0  0  0  0  0  0  0  0  0  0  0  0
   69.2953   52.6664   55.0291 C   0  0  0  0  0  0  0  0  0  0  0  0
   69.5808   51.5229   54.2945 C   0  0  0  0  0  0  0  0  0  0  0  0
   70.8195   50.9248   54.2877 C   0  0  0  0  0  0  0  0  0  0  0  0
   73.9340   50.3616   53.5617 N   0  0  0  0  0  0  0  0  0  0  0  0
   73.3755   50.8339   55.1096 S   0  0  0  0  0  0  0  0  0  0  0  0
   73.4301   49.6474   56.0242 O   0  0  0  0  0  0  0  0  0  0  0  0
   74.3483   51.8505   55.6765 O   0  0  0  0  0  0  0  0  0  0  0  0
 22 23  1  0
 23 24  2  0
 23 25  2  0
 23 16  1  0
 16 17  2  0
 16 21  1  0
 17 18  1  0
 18 19  2  0
 19 20  1  0
 20 21  2  0
 21 15  1  0
 15  1  1  0
  1  2  2  0
  1  3  2  0
  1  4  1  0
  4  5  2  0
  4 13  1  0
  5  6  1  0
  5  7  1  0
  7  8  1  0
  7  9  2  0
  9 10  1  0
  9 11  1  0
 11 12  1  0
 11 13  2  0
 13 14  1  0
M  END
>  <minimizedAffinity>  (194) 
-9.31579

$$$$
data/200k_reference_output/data/smiles/16676.pdb
     RDKit          3D

 29 31  0  0  0  0  0  0  0  0999 V2000
   68.8977   47.0365   54.3648 C   0  0  0  0  0  0  0  0  0  0  0  0
   68.8409   46.7118   53.0253 C   0  0  0  0  0  0  0  0  0  0  0  0
   69.1071   47.6273   52.0101 C   0  0  0  0  0  0  0  0  0  0  0  0
   69.4396   48.9027   52.3410 C   0  0  0  0  0  0  0  0  0  0  0  0
   69.7067   49.8242   51.3861 F   0  0  0  0  0  0  0  0  0  0  0  0
   69.4998   49.2392   53.6771 C   0  0  0  0  0  0  0  0  0  0  0  0
   69.2337   48.3227   54.6767 C   0  0  0  0  0  0  0  0  0  0  0  0
   68.3786   46.3768   56.5521 O   0  0  0  0  0  0  0  0  0  0  0  0
   68.5988   46.0001   55.3814 C   0  0  0  0  0  0  0  0  0  0  0  0
   68.5547   44.6342   55.0825 N   0  0  0  0  0  0  0  0  0  0  0  0
   68.2813   43.5554   55.9610 C   0  0  0  0  0  0  0  0  0  0  0  0
   67.1492   42.7796   55.6672 C   0  0  0  0  0  0  0  0  0  0  0  0
   66.8202   41.7160   56.4750 C   0  0  0  0  0  0  0  0  0  0  0  0
   67.5733   41.3743   57.5830 C   0  0  0  0  0  0  0  0  0  0  0  0
   67.2590   40.3364   58.3773 F   0  0  0  0  0  0  0  0  0  0  0  0
   68.6862   42.1245   57.8832 C   0  0  0  0  0  0  0  0  0  0  0  0
   69.6967   41.7653   59.2639 Cl  0  0  0  0  0  0  0  0  0  0  0  0
   69.0135   43.2064   57.0554 C   0  0  0  0  0  0  0  0  0  0  0  0
   69.9345   50.9037   54.0543 S   0  0  0  0  0  0  0  0  0  0  0  0
   68.8027   51.6181   54.7077 O   0  0  0  0  0  0  0  0  0  0  0  0
   70.3484   51.5374   52.7528 O   0  0  0  0  0  0  0  0  0  0  0  0
   71.3099   50.8504   55.0714 N   0  0  0  0  0  0  0  0  0  0  0  0
   70.9772   50.8920   56.4751 C   0  0  0  0  0  0  0  0  0  0  0  0
   72.1139   50.2300   57.2274 C   0  0  0  0  0  0  0  0  0  0  0  0
   72.9839   49.5517   56.3755 O   0  0  0  0  0  0  0  0  0  0  0  0
   74.0119   50.3236   55.9027 C   0  0  0  0  0  0  0  0  0  0  0  0
   73.6950   51.0816   54.6469 C   0  0  1  0  0  0  0  0  0  0  0  0
   73.7960   50.3009   53.5047 O   0  0  0  0  0  0  0  0  0  0  0  0
   72.3434   51.7598   54.7023 C   0  0  0  0  0  0  0  0  0  0  0  0
  8  9  2  0
  9 10  1  0
  9  1  1  0
 10 11  1  0
 11 12  2  0
 11 18  1  0
 12 13  1  0
 13 14  2  0
 14 15  1  0
 14 16  1  0
 16 17  1  0
 16 18  2  0
  1  2  2  0
  1  7  1  0
  2  3  1  0
  3  4  2  0
  4  5  1  0
  4  6  1  0
  6 19  1  0
  6  7  2  0
 19 20  2  0
 19 21  2  0
 19 22  1  0
 22 23  1  0
 22 29  1  0
 23 24  1  0
 24 25  1  0
 25 26  1  0
 26 27  1  0
 27 28  1  6
 27 29  1  0
M  END
>  <minimizedAffinity>  (195) 
-8.58649

$$$$
data/200k_reference_output/data/smiles/16866.pdb
     RDKit          3D

 28 31  0  0  0  0  0  0  0  0999 V2000
   71.5603   50.5695   56.4572 O   0  0  0  0  0  0  0  0  0  0  0  0
   71.1911   50.3771   55.2705 C   0  0  0  0  0  0  0  0  0  0  0  0
   71.6296   51.2675   54.2073 N   0  0  0  0  0  0  0  0  0  0  0  0
   70.3139   49.2642   54.9006 C   0  0  0  0  0  0  0  0  0  0  0  0
   70.1517   48.8759   53.6245 N   0  0  0  0  0  0  0  0  0  0  0  0
   69.3381   47.8448   53.2915 C   0  0  0  0  0  0  0  0  0  0  0  0
   69.1710   47.4452   51.9815 C   0  0  0  0  0  0  0  0  0  0  0  0
   68.3390   46.3922   51.6494 C   0  0  0  0  0  0  0  0  0  0  0  0
   67.6391   45.6948   52.6141 C   0  0  0  0  0  0  0  0  0  0  0  0
   67.8071   46.0940   53.9241 C   0  0  0  0  0  0  0  0  0  0  0  0
   68.6409   47.1506   54.2581 C   0  0  0  0  0  0  0  0  0  0  0  0
   68.8188   47.5613   55.5624 C   0  0  0  0  0  0  0  0  0  0  0  0
   68.1878   46.9348   56.4502 O   0  0  0  0  0  0  0  0  0  0  0  0
   69.6379   48.5913   55.8464 N   0  0  0  0  0  0  0  0  0  0  0  0
   72.4641   52.3166   54.5938 C   0  0  0  0  0  0  0  0  0  0  0  0
   73.9057   52.3402   54.3626 C   0  0  0  0  0  0  0  0  0  0  0  0
   74.8328   51.8121   55.2804 N   0  0  0  0  0  0  0  0  0  0  0  0
   75.4072   50.5303   55.3649 C   0  0  0  0  0  0  0  0  0  0  0  0
   75.1109   49.6689   54.5252 O   0  0  0  0  0  0  0  0  0  0  0  0
   76.3688   50.1740   56.4411 C   0  0  0  0  0  0  0  0  0  0  0  0
   76.4200   48.9729   57.1156 C   0  0  0  0  0  0  0  0  0  0  0  0
   77.4412   49.0091   58.0433 C   0  0  0  0  0  0  0  0  0  0  0  0
   77.9851   48.1677   58.9868 C   0  0  0  0  0  0  0  0  0  0  0  0
   79.0494   48.5306   59.7825 C   0  0  0  0  0  0  0  0  0  0  0  0
   79.5887   49.7976   59.6199 C   0  0  0  0  0  0  0  0  0  0  0  0
   79.0535   50.6468   58.6804 C   0  0  0  0  0  0  0  0  0  0  0  0
   77.9892   50.2867   57.8832 C   0  0  0  0  0  0  0  0  0  0  0  0
   77.3153   50.9143   56.9313 O   0  0  0  0  0  0  0  0  0  0  0  0
  1  2  2  0
  2  3  1  0
  2  4  1  0
  3 15  1  0
 15 16  1  0
 16 17  1  0
 17 18  1  0
 18 19  2  0
 18 20  1  0
 20 21  2  0
 20 28  1  0
 21 22  1  0
 22 23  2  0
 22 27  1  0
 23 24  1  0
 24 25  2  0
 25 26  1  0
 26 27  2  0
 27 28  1  0
  4  5  2  0
  4 14  1  0
  5  6  1  0
  6  7  2  0
  6 11  1  0
  7  8  1  0
  8  9  2  0
  9 10  1  0
 10 11  2  0
 11 12  1  0
 12 13  2  0
 12 14  1  0
M  END
>  <minimizedAffinity>  (196) 
-8.61184

$$$$
data/200k_reference_output/data/smiles/16948.pdb
     RDKit          3D

 23 25  0  0  0  0  0  0  0  0999 V2000
   68.9376   47.4687   56.8081 C   0  0  2  0  0  0  0  0  0  0  0  0
   70.0230   50.6152   52.3253 N   0  0  0  0  0  0  0  0  0  0  0  0
   69.5539   49.2926   52.6294 C   0  0  0  0  0  0  0  0  0  0  0  0
   69.4205   48.9038   53.8917 N   0  0  0  0  0  0  0  0  0  0  0  0
   68.9876   47.6789   54.2054 C   0  0  0  0  0  0  0  0  0  0  0  0
   68.7527   47.0537   55.4087 C   0  0  0  0  0  0  0  0  0  0  0  0
   68.2890   45.7810   55.0267 C   0  0  0  0  0  0  0  0  0  0  0  0
   68.2583   45.6765   53.6879 N   0  0  0  0  0  0  0  0  0  0  0  0
   68.6808   46.8245   53.1370 C   0  0  0  0  0  0  0  0  0  0  0  0
   68.8199   47.2258   51.8262 C   0  0  0  0  0  0  0  0  0  0  0  0
   68.5555   46.4864   50.8582 O   0  0  0  0  0  0  0  0  0  0  0  0
   69.2622   48.4758   51.5792 N   0  0  0  0  0  0  0  0  0  0  0  0
   68.1993   48.7309   57.1382 C   0  0  0  0  0  0  0  0  0  0  0  0
   66.9773   48.6998   57.7235 C   0  0  0  0  0  0  0  0  0  0  0  0
   66.3385   49.8938   58.0245 C   0  0  0  0  0  0  0  0  0  0  0  0
   66.9397   51.0931   57.7319 C   0  0  0  0  0  0  0  0  0  0  0  0
   68.1878   51.1069   57.1336 C   0  0  0  0  0  0  0  0  0  0  0  0
   68.9269   52.6651   56.7722 Cl  0  0  0  0  0  0  0  0  0  0  0  0
   68.8193   49.9233   56.8357 C   0  0  0  0  0  0  0  0  0  0  0  0
   70.2611   47.3085   57.4222 C   0  0  0  0  0  0  0  0  0  0  0  0
   70.6249   46.1236   58.1471 C   0  0  0  0  0  0  0  0  0  0  0  0
   69.7581   45.6097   58.9477 O   0  0  0  0  0  0  0  0  0  0  0  0
   71.8106   45.4713   58.0759 O   0  0  0  0  0  0  0  0  0  0  0  0
  2  3  1  0
  3  4  2  0
  3 12  1  0
  4  5  1  0
  5  6  1  0
  5  9  2  0
  6  1  1  0
  6  7  2  0
  1 20  1  6
  1 13  1  0
 20 21  1  0
 21 22  2  0
 21 23  1  0
 13 14  2  0
 13 19  1  0
 14 15  1  0
 15 16  2  0
 16 17  1  0
 17 18  1  0
 17 19  2  0
  7  8  1  0
  8  9  1  0
  9 10  1  0
 10 11  2  0
 10 12  1  0
M  END
>  <minimizedAffinity>  (197) 
-8.93816

$$$$
data/200k_reference_output/data/smiles/17041.pdb
     RDKit          3D

 23 24  0  0  0  0  0  0  0  0999 V2000
   68.1769   46.1617   55.8960 N   0  0  0  0  0  0  0  0  0  0  0  0
   68.2086   46.3432   54.4939 C   0  0  0  0  0  0  0  0  0  0  0  0
   69.0176   47.3137   54.0119 N   0  0  0  0  0  0  0  0  0  0  0  0
   69.1431   47.5814   52.7057 C   0  0  0  0  0  0  0  0  0  0  0  0
   68.4253   46.8481   51.7823 C   0  0  0  0  0  0  0  0  0  0  0  0
   67.6018   45.8616   52.2639 C   0  0  0  0  0  0  0  0  0  0  0  0
   66.9507   45.1950   51.4299 O   0  0  0  0  0  0  0  0  0  0  0  0
   67.5181   45.6390   53.5972 N   0  0  0  0  0  0  0  0  0  0  0  0
   70.0473   48.6610   52.2188 C   0  0  0  0  0  0  0  0  0  0  0  0
   70.9873   49.0110   53.1662 F   0  0  0  0  0  0  0  0  0  0  0  0
   70.7002   48.2516   51.0899 F   0  0  0  0  0  0  0  0  0  0  0  0
   69.2309   49.7382   51.9060 F   0  0  0  0  0  0  0  0  0  0  0  0
   69.2260   46.5068   56.7865 C   0  0  0  0  0  0  0  0  0  0  0  0
   69.7882   45.5790   57.4446 N   0  0  0  0  0  0  0  0  0  0  0  0
   69.6649   47.8325   56.9931 N   0  0  0  0  0  0  0  0  0  0  0  0
   68.2186   51.2539   56.5123 C   0  0  0  0  0  0  0  0  0  0  0  0
   67.0686   51.1534   57.2583 C   0  0  0  0  0  0  0  0  0  0  0  0
   66.7704   49.9756   57.9173 C   0  0  0  0  0  0  0  0  0  0  0  0
   67.6246   48.8979   57.8297 C   0  0  0  0  0  0  0  0  0  0  0  0
   68.8012   48.9567   57.0856 C   0  0  0  0  0  0  0  0  0  0  0  0
   69.0417   50.1526   56.4532 C   0  0  0  0  0  0  0  0  0  0  0  0
   69.4936   53.3472   56.3334 C   0  0  0  0  0  0  0  0  0  0  0  0
   68.5572   52.4190   55.8334 O   0  0  0  0  0  0  0  0  0  0  0  0
 22 23  1  0
 23 16  1  0
 16 17  2  0
 16 21  1  0
 17 18  1  0
 18 19  2  0
 19 20  1  0
 20 15  1  0
 20 21  2  0
 15 13  1  0
 13 14  2  0
 13  1  1  0
  1  2  1  0
  2  3  2  0
  2  8  1  0
  3  4  1  0
  4  9  1  0
  4  5  2  0
  9 10  1  0
  9 11  1  0
  9 12  1  0
  5  6  1  0
  6  7  2  0
  6  8  1  0
M  CHG  1  14   1
M  END
>  <minimizedAffinity>  (198) 
-8.54171

$$$$
data/200k_reference_output/data/smiles/17082.pdb
     RDKit          3D

 24 26  0  0  0  0  0  0  0  0999 V2000
   68.1058   46.1884   53.9220 C   0  0  0  0  0  0  0  0  0  0  0  0
   68.0621   45.8685   52.5760 C   0  0  0  0  0  0  0  0  0  0  0  0
   68.6993   46.6800   51.6722 C   0  0  0  0  0  0  0  0  0  0  0  0
   69.3781   47.8085   52.1064 C   0  0  0  0  0  0  0  0  0  0  0  0
   69.4402   48.1552   53.4416 C   0  0  0  0  0  0  0  0  0  0  0  0
   68.7921   47.3204   54.3139 C   0  0  0  0  0  0  0  0  0  0  0  0
   70.1764   49.3672   53.8492 C   0  0  0  0  0  0  0  0  0  0  0  0
   71.3493   49.5189   53.4353 O   0  0  0  0  0  0  0  0  0  0  0  0
   69.6346   50.3542   54.6716 N   0  0  0  0  0  0  0  0  0  0  0  0
   70.2259   51.5480   55.1308 C   0  0  0  0  0  0  0  0  0  0  0  0
   71.5290   51.9198   54.9605 C   0  0  0  0  0  0  0  0  0  0  0  0
   72.0390   53.1361   55.4539 C   0  0  0  0  0  0  0  0  0  0  0  0
   71.2377   54.0149   56.1381 C   0  0  0  0  0  0  0  0  0  0  0  0
   69.9204   53.6567   56.3181 C   0  0  0  0  0  0  0  0  0  0  0  0
   69.4326   52.4656   55.8313 C   0  0  0  0  0  0  0  0  0  0  0  0
   67.4561   45.3517   54.7996 O   0  0  0  0  0  0  0  0  0  0  0  0
   68.4369   42.3040   56.6747 C   0  0  0  0  0  0  0  0  0  0  0  0
   67.7831   43.1780   55.8217 C   0  0  0  0  0  0  0  0  0  0  0  0
   68.1437   44.5005   55.6744 C   0  0  0  0  0  0  0  0  0  0  0  0
   69.1813   44.9489   56.3996 N   0  0  0  0  0  0  0  0  0  0  0  0
   69.8254   44.1116   57.2319 C   0  0  0  0  0  0  0  0  0  0  0  0
   69.4673   42.8096   57.3754 N   0  0  0  0  0  0  0  0  0  0  0  0
   67.6608   40.3045   55.5343 N   0  0  0  0  0  0  0  0  0  0  0  0
   68.0229   40.8891   56.8084 C   0  0  0  0  0  0  0  0  0  0  0  0
 23 24  1  0
 24 17  1  0
 17 18  2  0
 17 22  1  0
 18 19  1  0
 19 16  1  0
 19 20  2  0
 16  1  1  0
  1  2  2  0
  1  6  1  0
  2  3  1  0
  3  4  2  0
  4  5  1  0
  5  7  1  0
  5  6  2  0
  7  8  2  0
  7  9  1  0
  9 10  1  0
 10 11  2  0
 10 15  1  0
 11 12  1  0
 12 13  2  0
 13 14  1  0
 14 15  2  0
 20 21  1  0
 21 22  2  0
M  CHG  1  23   1
M  END
>  <minimizedAffinity>  (199) 
-8.69577

$$$$
data/200k_reference_output/data/smiles/17158.pdb
     RDKit          3D

 29 32  0  0  0  0  0  0  0  0999 V2000
   72.4763   52.3033   53.8057 N   0  0  0  0  0  0  0  0  0  0  0  0
   71.4615   51.9430   54.7425 C   0  0  0  0  0  0  0  0  0  0  0  0
   71.8694   51.7475   55.9215 O   0  0  0  0  0  0  0  0  0  0  0  0
   70.0562   51.8130   54.3361 C   0  0  2  0  0  0  0  0  0  0  0  0
   69.0565   52.2057   55.3842 C   0  0  0  0  0  0  0  0  0  0  0  0
   68.3703   50.5796   55.9223 S   0  0  0  0  0  0  0  0  0  0  0  0
   69.6166   49.5631   55.0274 C   0  0  1  0  0  0  0  0  0  0  0  0
   69.0923   48.3201   54.4873 C   0  0  0  0  0  0  0  0  0  0  0  0
   68.6070   47.2030   55.1756 C   0  0  0  0  0  0  0  0  0  0  0  0
   68.2482   46.1167   54.4299 C   0  0  0  0  0  0  0  0  0  0  0  0
   68.3487   46.0944   53.0439 C   0  0  0  0  0  0  0  0  0  0  0  0
   68.8323   47.2184   52.3888 C   0  0  0  0  0  0  0  0  0  0  0  0
   69.2000   48.3247   53.1210 C   0  0  0  0  0  0  0  0  0  0  0  0
   69.6625   49.6742   52.7244 C   0  0  0  0  0  0  0  0  0  0  0  0
   69.8838   50.0497   51.5396 O   0  0  0  0  0  0  0  0  0  0  0  0
   69.8118   50.4565   53.9110 N   0  0  0  0  0  0  0  0  0  0  0  0
   73.8661   52.4384   54.2016 C   0  0  1  0  0  0  0  0  0  0  0  0
   73.9663   53.3843   55.3914 C   0  0  0  0  0  0  0  0  0  0  0  0
   75.2739   51.0237   55.7408 N   0  0  0  0  0  0  0  0  0  0  0  0
   74.4820   51.1611   54.5858 C   0  0  0  0  0  0  0  0  0  0  0  0
   74.3404   50.0996   53.8978 O   0  0  0  0  0  0  0  0  0  0  0  0
   75.5212   49.3073   57.5098 C   0  0  0  0  0  0  0  0  0  0  0  0
   75.9078   49.7961   56.1748 C   0  0  2  0  0  0  0  0  0  0  0  0
   77.3715   49.9394   56.0643 C   0  0  0  0  0  0  0  0  0  0  0  0
   78.1062   49.0189   55.3609 C   0  0  0  0  0  0  0  0  0  0  0  0
   79.4799   49.1556   55.2779 C   0  0  0  0  0  0  0  0  0  0  0  0
   80.1220   50.2167   55.9024 C   0  0  0  0  0  0  0  0  0  0  0  0
   79.3542   51.1356   56.6087 C   0  0  0  0  0  0  0  0  0  0  0  0
   77.9937   50.9922   56.6841 C   0  0  0  0  0  0  0  0  0  0  0  0
 23 22  1  1
 23 19  1  0
 23 24  1  0
 19 20  1  0
 20 21  2  0
 20 17  1  0
 17 18  1  1
 17  1  1  0
  1  2  1  0
  2  3  2  0
  4  2  1  1
  4  5  1  0
  4 16  1  0
  5  6  1  0
  7  6  1  1
  7  8  1  0
  7 16  1  0
  8  9  1  0
  8 13  2  0
  9 10  2  0
 10 11  1  0
 11 12  2  0
 12 13  1  0
 13 14  1  0
 14 15  2  0
 14 16  1  0
 24 25  2  0
 24 29  1  0
 25 26  1  0
 26 27  2  0
 27 28  1  0
 28 29  2  0
M  END
>  <minimizedAffinity>  (200) 
-8.69855

$$$$
data/200k_reference_output/data/smiles/17176.pdb
     RDKit          3D

 25 28  0  0  0  0  0  0  0  0999 V2000
   69.5826   50.7166   57.0492 C   0  0  0  0  0  0  0  0  0  0  0  0
   69.9801   49.3851   56.8637 C   0  0  0  0  0  0  0  0  0  0  0  0
   69.0332   48.3763   57.0494 C   0  0  0  0  0  0  0  0  0  0  0  0
   67.7353   48.6468   57.4052 C   0  0  0  0  0  0  0  0  0  0  0  0
   67.3685   49.9703   57.5815 C   0  0  0  0  0  0  0  0  0  0  0  0
   68.3048   50.9889   57.3983 C   0  0  0  0  0  0  0  0  0  0  0  0
   67.8989   52.2647   57.5703 F   0  0  0  0  0  0  0  0  0  0  0  0
   72.2598   51.4800   58.5235 O   0  0  0  0  0  0  0  0  0  0  0  0
   71.5957   52.1354   57.7125 C   0  0  0  0  0  0  0  0  0  0  0  0
   71.8054   53.6114   57.5078 C   0  0  0  0  0  0  0  0  0  0  0  0
   70.8449   53.9227   56.3939 C   0  0  0  0  0  0  0  0  0  0  0  0
   70.7559   52.5729   55.6647 C   0  0  0  0  0  0  0  0  0  0  0  0
   70.5552   51.7008   56.8386 N   0  0  0  0  0  0  0  0  0  0  0  0
   69.5506   46.9930   56.8446 C   0  0  0  0  0  0  0  0  0  0  0  0
   68.8638   46.4492   55.6185 C   0  0  0  0  0  0  0  0  0  0  0  0
   68.1493   45.3047   55.6902 N   0  0  0  0  0  0  0  0  0  0  0  0
   67.5442   44.7435   54.6708 N   0  0  0  0  0  0  0  0  0  0  0  0
   67.6013   45.2963   53.4410 C   0  0  0  0  0  0  0  0  0  0  0  0
   67.0144   44.7365   52.4900 O   0  0  0  0  0  0  0  0  0  0  0  0
   68.3050   46.4482   53.3077 C   0  0  0  0  0  0  0  0  0  0  0  0
   68.9541   47.0568   54.3904 C   0  0  0  0  0  0  0  0  0  0  0  0
   69.6445   48.2732   54.2134 N   0  0  0  0  0  0  0  0  0  0  0  0
   70.1563   48.6595   52.9361 C   0  0  0  0  0  0  0  0  0  0  0  0
   69.8748   47.6138   51.9089 C   0  0  0  0  0  0  0  0  0  0  0  0
   68.4336   47.1182   51.9799 C   0  0  0  0  0  0  0  0  0  0  0  0
  8  9  2  0
  9 10  1  0
  9 13  1  0
 10 11  1  0
 11 12  1  0
 12 13  1  0
 13  1  1  0
  1  2  2  0
  1  6  1  0
  2  3  1  0
  3 14  1  0
  3  4  2  0
 14 15  1  0
 15 16  2  0
 15 21  1  0
 16 17  1  0
 17 18  1  0
 18 19  2  0
 18 20  1  0
 20 21  2  0
 20 25  1  0
 21 22  1  0
 22 23  1  0
 23 24  1  0
 24 25  1  0
  4  5  1  0
  5  6  2  0
  6  7  1  0
M  END
>  <minimizedAffinity>  (201) 
-8.50005

$$$$
data/200k_reference_output/data/smiles/17221.pdb
     RDKit          3D

 25 27  0  0  0  0  0  0  0  0999 V2000
   70.3839   41.6183   58.1021 C   0  0  0  0  0  0  0  0  0  0  0  0
   70.9024   40.5393   58.7887 C   0  0  0  0  0  0  0  0  0  0  0  0
   70.2602   39.3256   58.7931 C   0  0  0  0  0  0  0  0  0  0  0  0
   69.0801   39.1951   58.0965 C   0  0  0  0  0  0  0  0  0  0  0  0
   68.5606   40.2733   57.4103 C   0  0  0  0  0  0  0  0  0  0  0  0
   69.1856   41.5093   57.3887 C   0  0  0  0  0  0  0  0  0  0  0  0
   68.4023   42.4471   56.5956 C   0  0  0  0  0  0  0  0  0  0  0  0
   68.6543   43.6897   56.3530 N   0  0  0  0  0  0  0  0  0  0  0  0
   67.2414   41.7052   56.1213 C   0  0  0  0  0  0  0  0  0  0  0  0
   66.3335   42.1755   55.4045 O   0  0  0  0  0  0  0  0  0  0  0  0
   67.3604   40.3905   56.6292 N   0  0  0  0  0  0  0  0  0  0  0  0
   72.5658   42.7777   57.7024 C   0  0  0  0  0  0  0  0  0  0  0  0
   71.1089   42.9173   58.0879 C   0  0  0  0  0  0  0  0  0  0  0  0
   70.8469   43.7998   59.2571 C   0  0  0  0  0  0  0  0  0  0  0  0
   67.8196   44.4914   55.5720 N   0  0  0  0  0  0  0  0  0  0  0  0
   68.3215   45.6685   54.9513 C   0  0  0  0  0  0  0  0  0  0  0  0
   68.9091   46.6877   55.6691 C   0  0  0  0  0  0  0  0  0  0  0  0
   69.3922   47.8250   55.0561 C   0  0  0  0  0  0  0  0  0  0  0  0
   69.3085   47.9896   53.6937 C   0  0  0  0  0  0  0  0  0  0  0  0
   68.7235   46.9814   52.9558 C   0  0  0  0  0  0  0  0  0  0  0  0
   68.2423   45.8477   53.5757 C   0  0  0  0  0  0  0  0  0  0  0  0
   69.9326   49.4509   52.9352 S   0  0  0  0  0  0  0  0  0  0  0  0
   71.5235   49.7635   53.5269 N   0  0  0  0  0  0  0  0  0  0  0  0
   70.0314   49.2182   51.4546 O   0  0  0  0  0  0  0  0  0  0  0  0
   69.0115   50.5911   53.2564 O   0  0  0  0  0  0  0  0  0  0  0  0
 12 13  1  0
 13 14  1  0
 13  1  1  0
  1  2  2  0
  1  6  1  0
  2  3  1  0
  3  4  2  0
  4  5  1  0
  5  6  2  0
  5 11  1  0
  6  7  1  0
  7  8  2  0
  7  9  1  0
  8 15  1  0
 15 16  1  0
 16 17  2  0
 16 21  1  0
 17 18  1  0
 18 19  2  0
 19 22  1  0
 19 20  1  0
 22 23  1  0
 22 24  2  0
 22 25  2  0
 20 21  2  0
  9 10  2  0
  9 11  1  0
M  END
>  <minimizedAffinity>  (202) 
-9.23854

$$$$
data/200k_reference_output/data/smiles/17482.pdb
     RDKit          3D

 27 29  0  0  0  0  0  0  0  0999 V2000
   70.6256   44.8984   58.2329 C   0  0  0  0  0  0  0  0  0  0  0  0
   69.7726   45.0912   59.1753 O   0  0  0  0  0  0  0  0  0  0  0  0
   70.6772   45.8086   57.1468 N   0  0  0  0  0  0  0  0  0  0  0  0
   75.3031   43.2561   58.3861 C   0  0  0  0  0  0  0  0  0  0  0  0
   73.8273   42.9714   58.3681 C   0  0  0  0  0  0  0  0  0  0  0  0
   72.9020   43.9922   58.3116 C   0  0  0  0  0  0  0  0  0  0  0  0
   71.5225   43.7555   58.2934 C   0  0  0  0  0  0  0  0  0  0  0  0
   71.1077   42.4616   58.3339 C   0  0  0  0  0  0  0  0  0  0  0  0
   71.9978   41.3810   58.3924 C   0  0  0  0  0  0  0  0  0  0  0  0
   73.3382   41.6922   58.4071 C   0  0  0  0  0  0  0  0  0  0  0  0
   71.4849   40.0557   58.4324 N   0  0  0  0  0  0  0  0  0  0  0  0
   70.1880   39.7338   58.5917 C   0  0  0  0  0  0  0  0  0  0  0  0
   70.0442   38.3630   58.5850 C   0  0  0  0  0  0  0  0  0  0  0  0
   71.3108   37.8523   58.4138 C   0  0  0  0  0  0  0  0  0  0  0  0
   72.1308   38.9091   58.3296 N   0  0  0  0  0  0  0  0  0  0  0  0
   69.8299   46.9088   57.0664 N   0  0  0  0  0  0  0  0  0  0  0  0
   68.5275   46.6578   55.9718 S   0  0  0  0  0  0  0  0  0  0  0  0
   67.2868   47.3837   56.4136 O   0  0  0  0  0  0  0  0  0  0  0  0
   68.2102   45.1863   55.9662 O   0  0  0  0  0  0  0  0  0  0  0  0
   68.9143   47.1864   54.3713 C   0  0  0  0  0  0  0  0  0  0  0  0
   69.6274   48.3560   54.1856 C   0  0  0  0  0  0  0  0  0  0  0  0
   70.0429   49.1155   55.2285 F   0  0  0  0  0  0  0  0  0  0  0  0
   69.9624   48.8225   52.9195 C   0  0  0  0  0  0  0  0  0  0  0  0
   69.5645   48.0875   51.8264 C   0  0  0  0  0  0  0  0  0  0  0  0
   68.8493   46.9164   52.0011 C   0  0  0  0  0  0  0  0  0  0  0  0
   68.5217   46.4605   53.2647 C   0  0  0  0  0  0  0  0  0  0  0  0
   67.8112   45.2934   53.3932 F   0  0  0  0  0  0  0  0  0  0  0  0
  4  5  1  0
  5  6  2  0
  5 10  1  0
  6  7  1  0
  7  1  1  0
  7  8  2  0
  1  2  2  0
  1  3  1  0
  3 16  1  0
 16 17  1  0
 17 18  2  0
 17 19  2  0
 17 20  1  0
 20 21  2  0
 20 26  1  0
 21 22  1  0
 21 23  1  0
 23 24  2  0
 24 25  1  0
 25 26  2  0
 26 27  1  0
  8  9  1  0
  9 11  1  0
  9 10  2  0
 11 12  1  0
 11 15  1  0
 12 13  2  0
 13 14  1  0
 14 15  2  0
M  END
>  <minimizedAffinity>  (203) 
-8.78999

$$$$
data/200k_reference_output/data/smiles/17491.pdb
     RDKit          3D

 28 31  0  0  0  0  0  0  0  0999 V2000
   69.0204   42.2258   57.4586 C   0  0  0  0  0  0  0  0  0  0  0  0
   67.8406   41.4698   57.4814 C   0  0  0  0  0  0  0  0  0  0  0  0
   66.7907   41.8058   56.6581 C   0  0  0  0  0  0  0  0  0  0  0  0
   66.8967   42.8653   55.8267 N   0  0  0  0  0  0  0  0  0  0  0  0
   68.0075   43.6165   55.7737 C   0  0  0  0  0  0  0  0  0  0  0  0
   69.0751   43.2953   56.5941 C   0  0  0  0  0  0  0  0  0  0  0  0
   68.1022   44.7406   54.8838 N   0  0  0  0  0  0  0  0  0  0  0  0
   67.6536   44.8232   53.6436 N   0  0  0  0  0  0  0  0  0  0  0  0
   67.9152   46.0185   53.1101 C   0  0  0  0  0  0  0  0  0  0  0  0
   68.5792   46.7764   54.0573 C   0  0  0  0  0  0  0  0  0  0  0  0
   68.6740   45.9269   55.1608 C   0  0  0  0  0  0  0  0  0  0  0  0
   69.2051   46.2125   56.2438 O   0  0  0  0  0  0  0  0  0  0  0  0
   69.0669   48.1465   53.9299 C   0  0  0  0  0  0  0  0  0  0  0  0
   68.8541   49.1262   54.8802 C   0  0  0  0  0  0  0  0  0  0  0  0
   69.3259   50.4167   54.7402 C   0  0  0  0  0  0  0  0  0  0  0  0
   70.0473   50.7449   53.5936 C   0  0  0  0  0  0  0  0  0  0  0  0
   70.2526   49.7802   52.6648 N   0  0  0  0  0  0  0  0  0  0  0  0
   69.7876   48.5268   52.8123 C   0  0  0  0  0  0  0  0  0  0  0  0
   70.1314   41.8546   58.3622 C   0  0  0  0  0  0  0  0  0  0  0  0
   69.6834   39.7195   60.0572 O   0  0  0  0  0  0  0  0  0  0  0  0
   70.4074   39.4671   59.0510 C   0  0  0  0  0  0  0  0  0  0  0  0
   70.6546   40.5356   58.1660 N   0  0  0  0  0  0  0  0  0  0  0  0
   70.9209   38.1292   58.8827 C   0  0  0  0  0  0  0  0  0  0  0  0
   70.5358   37.0841   59.6670 C   0  0  0  0  0  0  0  0  0  0  0  0
   71.0473   35.7929   59.4909 C   0  0  0  0  0  0  0  0  0  0  0  0
   71.9666   35.5801   58.4936 C   0  0  0  0  0  0  0  0  0  0  0  0
   72.3784   36.6142   57.6827 C   0  0  0  0  0  0  0  0  0  0  0  0
   71.8447   37.8838   57.8910 C   0  0  0  0  0  0  0  0  0  0  0  0
 20 21  2  0
 21 22  1  0
 21 23  1  0
 22 19  1  0
 19  1  1  0
  1  2  2  0
  1  6  1  0
  2  3  1  0
  3  4  2  0
  4  5  1  0
  5  7  1  0
  5  6  2  0
  7  8  1  0
  7 11  1  0
  8  9  1  0
  9 10  2  0
 10 13  1  0
 10 11  1  0
 13 14  2  0
 13 18  1  0
 14 15  1  0
 15 16  2  0
 16 17  1  0
 17 18  2  0
 11 12  2  0
 23 24  2  0
 23 28  1  0
 24 25  1  0
 25 26  2  0
 26 27  1  0
 27 28  2  0
M  END
>  <minimizedAffinity>  (204) 
-9.20861

$$$$
data/200k_reference_output/data/smiles/17538.pdb
     RDKit          3D

 29 32  0  0  0  0  0  0  0  0999 V2000
   71.5088   47.1825   58.9312 C   0  0  0  0  0  0  0  0  0  0  0  0
   70.5240   47.8230   58.1982 C   0  0  0  0  0  0  0  0  0  0  0  0
   69.7039   47.1489   57.3371 C   0  0  0  0  0  0  0  0  0  0  0  0
   69.8656   45.7793   57.1943 C   0  0  0  0  0  0  0  0  0  0  0  0
   70.8338   45.1345   57.9113 C   0  0  0  0  0  0  0  0  0  0  0  0
   71.6396   45.8206   58.7635 C   0  0  0  0  0  0  0  0  0  0  0  0
   72.5908   45.1511   59.4603 F   0  0  0  0  0  0  0  0  0  0  0  0
   75.9183   47.5843   59.1780 C   0  0  0  0  0  0  0  0  0  0  0  0
   75.4335   48.2800   57.9250 C   0  0  0  0  0  0  0  0  0  0  0  0
   73.9565   48.6066   58.0053 C   0  0  0  0  0  0  0  0  0  0  0  0
   73.5817   48.5274   59.4252 N   0  0  0  0  0  0  0  0  0  0  0  0
   72.4085   47.8416   59.8551 C   0  0  0  0  0  0  0  0  0  0  0  0
   72.1810   47.8318   61.0933 O   0  0  0  0  0  0  0  0  0  0  0  0
   74.4787   49.1920   60.3444 C   0  0  0  0  0  0  0  0  0  0  0  0
   75.7385   48.3933   60.4234 C   0  0  0  0  0  0  0  0  0  0  0  0
   77.8592   48.4160   58.3634 C   0  0  0  0  0  0  0  0  0  0  0  0
   77.2734   47.3361   59.0047 O   0  0  0  0  0  0  0  0  0  0  0  0
   68.6354   47.8617   56.5616 C   0  0  0  0  0  0  0  0  0  0  0  0
   69.0984   48.0561   55.2129 C   0  0  0  0  0  0  0  0  0  0  0  0
   70.0559   49.0246   55.0407 N   0  0  0  0  0  0  0  0  0  0  0  0
   70.6231   49.3037   53.9058 N   0  0  0  0  0  0  0  0  0  0  0  0
   70.3151   48.6582   52.7791 C   0  0  0  0  0  0  0  0  0  0  0  0
   70.8598   48.9294   51.6986 O   0  0  0  0  0  0  0  0  0  0  0  0
   69.3612   47.6649   52.8416 C   0  0  0  0  0  0  0  0  0  0  0  0
   68.9588   46.9483   51.7505 C   0  0  0  0  0  0  0  0  0  0  0  0
   67.9961   45.9625   51.7925 C   0  0  0  0  0  0  0  0  0  0  0  0
   67.4324   45.7181   53.0283 C   0  0  0  0  0  0  0  0  0  0  0  0
   67.8089   46.4161   54.1567 C   0  0  0  0  0  0  0  0  0  0  0  0
   68.7676   47.3840   54.0737 C   0  0  0  0  0  0  0  0  0  0  0  0
 16 17  1  0
 17  8  1  0
  8  9  1  0
  8 15  1  0
  9 10  1  0
 10 11  1  0
 11 12  1  0
 11 14  1  0
 12 13  2  0
 12  1  1  0
  1  2  2  0
  1  6  1  0
  2  3  1  0
  3 18  1  0
  3  4  2  0
 18 19  1  0
 19 20  2  0
 19 29  1  0
 20 21  1  0
 21 22  1  0
 22 23  2  0
 22 24  1  0
 24 25  1  0
 24 29  2  0
 25 26  2  0
 26 27  1  0
 27 28  2  0
 28 29  1  0
  4  5  1  0
  5  6  2  0
  6  7  1  0
 14 15  1  0
M  END
>  <minimizedAffinity>  (205) 
-8.68319

$$$$
data/200k_reference_output/data/smiles/17545.pdb
     RDKit          3D

 23 26  0  0  0  0  0  0  0  0999 V2000
   69.0890   48.4978   55.5412 O   0  0  0  0  0  0  0  0  0  0  0  0
   68.1086   46.1851   52.8474 C   0  0  0  0  0  0  0  0  0  0  0  0
   68.7492   46.7199   51.7510 C   0  0  0  0  0  0  0  0  0  0  0  0
   69.4971   47.8546   51.9642 C   0  0  0  0  0  0  0  0  0  0  0  0
   69.5929   48.4201   53.2188 C   0  0  0  0  0  0  0  0  0  0  0  0
   68.9362   47.8668   54.3251 C   0  0  0  0  0  0  0  0  0  0  0  0
   68.1876   46.7316   54.1165 C   0  0  0  0  0  0  0  0  0  0  0  0
   70.3925   49.6293   53.4347 C   0  0  0  0  0  0  0  0  0  0  0  0
   71.6264   49.7300   53.9560 N   0  0  0  0  0  0  0  0  0  0  0  0
   71.9977   51.0052   53.9805 N   0  0  0  0  0  0  0  0  0  0  0  0
   71.0119   51.7252   53.4786 N   0  0  0  0  0  0  0  0  0  0  0  0
   70.0397   50.8937   53.1478 N   0  0  0  0  0  0  0  0  0  0  0  0
   68.5304   47.9382   56.6976 C   0  0  0  0  0  0  0  0  0  0  0  0
   69.4951   46.8977   57.2218 C   0  0  0  0  0  0  0  0  0  0  0  0
   70.6288   47.2708   57.8976 C   0  0  0  0  0  0  0  0  0  0  0  0
   71.5105   46.3320   58.3665 C   0  0  0  0  0  0  0  0  0  0  0  0
   71.2338   44.9996   58.1431 C   0  0  0  0  0  0  0  0  0  0  0  0
   72.1006   44.0065   58.6006 C   0  0  0  0  0  0  0  0  0  0  0  0
   71.7977   42.6945   58.3630 C   0  0  0  0  0  0  0  0  0  0  0  0
   70.6638   42.3049   57.6866 C   0  0  0  0  0  0  0  0  0  0  0  0
   69.8103   43.2858   57.2368 C   0  0  0  0  0  0  0  0  0  0  0  0
   70.0913   44.6419   57.4627 C   0  0  0  0  0  0  0  0  0  0  0  0
   69.2540   45.5941   57.0211 N   0  0  0  0  0  0  0  0  0  0  0  0
  2  3  2  0
  2  7  1  0
  3  4  1  0
  4  5  2  0
  5  8  1  0
  5  6  1  0
  8  9  1  0
  8 12  2  0
  9 10  2  0
 10 11  1  0
 11 12  1  0
  6  1  1  0
  6  7  2  0
  1 13  1  0
 13 14  1  0
 14 15  2  0
 14 23  1  0
 15 16  1  0
 16 17  2  0
 17 18  1  0
 17 22  1  0
 18 19  2  0
 19 20  1  0
 20 21  2  0
 21 22  1  0
 22 23  2  0
M  END
>  <minimizedAffinity>  (206) 
-8.69923

$$$$
data/200k_reference_output/data/smiles/17576.pdb
     RDKit          3D

 27 29  0  0  0  0  0  0  0  0999 V2000
   70.8862   43.0190   57.2613 O   0  0  0  0  0  0  0  0  0  0  0  0
   69.6685   42.6999   57.4938 C   0  0  0  0  0  0  0  0  0  0  0  0
   68.7196   43.6412   57.0444 N   0  0  0  0  0  0  0  0  0  0  0  0
   69.0768   44.8300   56.3841 N   0  0  0  0  0  0  0  0  0  0  0  0
   68.4145   45.2701   55.2067 C   0  0  0  0  0  0  0  0  0  0  0  0
   67.4862   44.5266   54.7919 O   0  0  0  0  0  0  0  0  0  0  0  0
   68.7509   46.4951   54.4903 C   0  0  0  0  0  0  0  0  0  0  0  0
   68.7988   46.4769   53.1198 C   0  0  0  0  0  0  0  0  0  0  0  0
   69.1081   47.5874   52.3744 C   0  0  0  0  0  0  0  0  0  0  0  0
   69.3819   48.7701   53.0298 C   0  0  0  0  0  0  0  0  0  0  0  0
   69.3435   48.8268   54.4237 C   0  0  0  0  0  0  0  0  0  0  0  0
   69.0269   47.6815   55.1297 C   0  0  0  0  0  0  0  0  0  0  0  0
   69.7032   49.9260   52.2616 N   0  0  0  0  0  0  0  0  0  0  0  0
   70.0355   50.9770   52.8327 O   0  0  0  0  0  0  0  0  0  0  0  0
   69.6480   49.8857   50.8947 O   0  0  0  0  0  0  0  0  0  0  0  0
   69.3991   41.4282   58.1873 C   0  0  0  0  0  0  0  0  0  0  0  0
   70.5214   40.6408   58.3737 O   0  0  0  0  0  0  0  0  0  0  0  0
   70.5857   39.3271   58.7500 C   0  0  0  0  0  0  0  0  0  0  0  0
   69.8517   38.7877   59.7890 C   0  0  0  0  0  0  0  0  0  0  0  0
   69.9637   37.4545   60.1180 C   0  0  0  0  0  0  0  0  0  0  0  0
   70.8006   36.6022   59.4374 C   0  0  0  0  0  0  0  0  0  0  0  0
   70.9170   35.2656   59.7621 C   0  0  0  0  0  0  0  0  0  0  0  0
   71.7702   34.4171   59.0625 C   0  0  0  0  0  0  0  0  0  0  0  0
   72.5011   34.9497   58.0308 C   0  0  0  0  0  0  0  0  0  0  0  0
   72.3789   36.2915   57.7112 C   0  0  0  0  0  0  0  0  0  0  0  0
   71.5343   37.1458   58.3984 C   0  0  0  0  0  0  0  0  0  0  0  0
   71.4288   38.4797   58.0628 C   0  0  0  0  0  0  0  0  0  0  0  0
  1  2  2  0
  2 16  1  0
  2  3  1  0
 16 17  1  0
 17 18  1  0
 18 19  2  0
 18 27  1  0
 19 20  1  0
 20 21  2  0
 21 22  1  0
 21 26  1  0
 22 23  2  0
 23 24  1  0
 24 25  2  0
 25 26  1  0
 26 27  2  0
  3  4  1  0
  4  5  1  0
  5  6  2  0
  5  7  1  0
  7  8  2  0
  7 12  1  0
  8  9  1  0
  9 10  2  0
 10 13  1  0
 10 11  1  0
 13 14  2  0
 13 15  1  0
 11 12  2  0
M  CHG  2  13   1  15  -1
M  END
>  <minimizedAffinity>  (207) 
-9.40769

$$$$
data/200k_reference_output/data/smiles/17647.pdb
     RDKit          3D

 23 25  0  0  0  0  0  0  0  0999 V2000
   68.8267   47.2234   56.1240 C   0  0  0  0  0  0  0  0  0  0  0  0
   69.1555   47.7869   54.8148 C   0  0  0  0  0  0  0  0  0  0  0  0
   69.9397   48.9281   54.7134 C   0  0  0  0  0  0  0  0  0  0  0  0
   70.2516   49.4343   53.4875 C   0  0  0  0  0  0  0  0  0  0  0  0
   69.8088   48.8435   52.3421 C   0  0  0  0  0  0  0  0  0  0  0  0
   70.0990   49.3216   51.0703 O   0  0  0  0  0  0  0  0  0  0  0  0
   69.0186   47.6939   52.4419 C   0  0  0  0  0  0  0  0  0  0  0  0
   68.5658   47.0815   51.3243 N   0  0  0  0  0  0  0  0  0  0  0  0
   67.8068   45.9744   51.3620 C   0  0  0  0  0  0  0  0  0  0  0  0
   67.4643   45.4254   52.5775 C   0  0  0  0  0  0  0  0  0  0  0  0
   67.9106   46.0258   53.7341 C   0  0  0  0  0  0  0  0  0  0  0  0
   68.6937   47.1689   53.6619 C   0  0  0  0  0  0  0  0  0  0  0  0
   69.6693   47.4820   57.1908 N   0  0  0  0  0  0  0  0  0  0  0  0
   70.5002   46.5551   57.7833 C   0  0  0  0  0  0  0  0  0  0  0  0
   69.7374   44.7503   59.1570 O   0  0  0  0  0  0  0  0  0  0  0  0
   70.0568   45.1910   58.0362 C   0  0  0  0  0  0  0  0  0  0  0  0
   69.9508   44.2148   56.9666 N   0  0  0  0  0  0  0  0  0  0  0  0
   69.5181   42.8954   57.2344 C   0  0  0  0  0  0  0  0  0  0  0  0
   70.2520   41.9668   57.9275 C   0  0  0  0  0  0  0  0  0  0  0  0
   69.7692   40.6825   58.1682 C   0  0  0  0  0  0  0  0  0  0  0  0
   68.5297   40.2902   57.7205 C   0  0  0  0  0  0  0  0  0  0  0  0
   67.7780   41.2056   57.0228 C   0  0  0  0  0  0  0  0  0  0  0  0
   68.2603   42.4851   56.7836 C   0  0  0  0  0  0  0  0  0  0  0  0
 15 16  2  0
 16 14  1  0
 16 17  1  0
 14 13  1  0
 13  1  1  0
  1  2  1  0
  2  3  2  0
  2 12  1  0
  3  4  1  0
  4  5  2  0
  5  6  1  0
  5  7  1  0
  7  8  1  0
  7 12  2  0
  8  9  2  0
  9 10  1  0
 10 11  2  0
 11 12  1  0
 17 18  1  0
 18 19  2  0
 18 23  1  0
 19 20  1  0
 20 21  2  0
 21 22  1  0
 22 23  2  0
M  CHG  1  13   1
M  END
>  <minimizedAffinity>  (208) 
-8.85132

$$$$
data/200k_reference_output/data/smiles/17715.pdb
     RDKit          3D

 26 29  0  0  0  0  0  0  0  0999 V2000
   68.7078   41.1324   58.3190 C   0  0  0  0  0  0  0  0  0  0  0  0
   68.4485   38.8430   57.8676 O   0  0  0  0  0  0  0  0  0  0  0  0
   69.2447   39.7491   58.2225 C   0  0  0  0  0  0  0  0  0  0  0  0
   70.5773   39.4149   58.5028 N   0  0  0  0  0  0  0  0  0  0  0  0
   71.0955   38.0835   58.4096 C   0  0  0  0  0  0  0  0  0  0  0  0
   70.7730   37.0975   59.2656 N   0  0  0  0  0  0  0  0  0  0  0  0
   71.4253   35.9528   58.9141 C   0  0  0  0  0  0  0  0  0  0  0  0
   71.4412   34.6822   59.4527 C   0  0  0  0  0  0  0  0  0  0  0  0
   72.2080   33.6880   58.8854 C   0  0  0  0  0  0  0  0  0  0  0  0
   72.9626   33.9750   57.7692 C   0  0  0  0  0  0  0  0  0  0  0  0
   72.9380   35.2496   57.2412 C   0  0  0  0  0  0  0  0  0  0  0  0
   72.1802   36.2570   57.7907 C   0  0  0  0  0  0  0  0  0  0  0  0
   71.9436   37.5513   57.5320 N   0  0  0  0  0  0  0  0  0  0  0  0
   67.7914   41.4739   57.1909 C   0  0  0  0  0  0  0  0  0  0  0  0
   68.2444   42.7260   56.5479 C   0  0  0  0  0  0  0  0  0  0  0  0
   69.3844   43.1693   56.8259 O   0  0  0  0  0  0  0  0  0  0  0  0
   67.4567   43.4633   55.6247 N   0  0  0  0  0  0  0  0  0  0  0  0
   67.9095   44.6686   55.0138 C   0  0  0  0  0  0  0  0  0  0  0  0
   68.3467   45.7844   55.6055 N   0  0  0  0  0  0  0  0  0  0  0  0
   68.6904   46.7160   54.6852 C   0  0  0  0  0  0  0  0  0  0  0  0
   69.1850   48.0030   54.7409 C   0  0  0  0  0  0  0  0  0  0  0  0
   69.4580   48.7572   53.6205 C   0  0  0  0  0  0  0  0  0  0  0  0
   69.2135   48.1685   52.3768 C   0  0  0  0  0  0  0  0  0  0  0  0
   68.7191   46.8811   52.3171 C   0  0  0  0  0  0  0  0  0  0  0  0
   68.4484   46.1318   53.4443 C   0  0  0  0  0  0  0  0  0  0  0  0
   67.9774   44.8963   53.6879 N   0  0  0  0  0  0  0  0  0  0  0  0
  2  3  2  0
  3  1  1  0
  3  4  1  0
  1 14  1  0
 14 15  1  0
 15 16  2  0
 15 17  1  0
 17 18  1  0
 18 19  2  0
 18 26  1  0
 19 20  1  0
 20 21  2  0
 20 25  1  0
 21 22  1  0
 22 23  2  0
 23 24  1  0
 24 25  2  0
 25 26  1  0
  4  5  1  0
  5  6  2  0
  5 13  1  0
  6  7  1  0
  7  8  2  0
  7 12  1  0
  8  9  1  0
  9 10  2  0
 10 11  1  0
 11 12  2  0
 12 13  1  0
M  CHG  2   6   1  19   1
M  END
>  <minimizedAffinity>  (209) 
-9.21431

$$$$
data/200k_reference_output/data/smiles/17768.pdb
     RDKit          3D

 26 28  0  0  0  0  0  0  0  0999 V2000
   70.1730   44.0427   57.6826 C   0  0  0  0  0  0  0  0  0  0  0  0
   69.0545   43.3606   56.9718 C   0  0  0  0  0  0  0  0  0  0  0  0
   68.8126   42.1060   57.3079 C   0  0  0  0  0  0  0  0  0  0  0  0
   67.7157   41.3926   56.6322 C   0  0  0  0  0  0  0  0  0  0  0  0
   67.0454   41.9832   55.7652 O   0  0  0  0  0  0  0  0  0  0  0  0
   67.4668   40.0441   57.0034 N   0  0  0  0  0  0  0  0  0  0  0  0
   68.2538   39.3698   58.0141 C   0  0  0  0  0  0  0  0  0  0  0  0
   67.9602   38.1795   58.2805 O   0  0  0  0  0  0  0  0  0  0  0  0
   69.3107   40.0256   58.6780 N   0  0  0  0  0  0  0  0  0  0  0  0
   69.5627   41.3809   58.3062 C   0  0  0  0  0  0  0  0  0  0  0  0
   70.5098   41.9392   58.9114 O   0  0  0  0  0  0  0  0  0  0  0  0
   68.2935   44.0238   55.9635 N   0  0  0  0  0  0  0  0  0  0  0  0
   68.2746   45.4267   55.8747 N   0  0  0  0  0  0  0  0  0  0  0  0
   68.4166   46.0719   54.5934 C   0  0  0  0  0  0  0  0  0  0  0  0
   69.0531   47.2855   54.5360 C   0  0  0  0  0  0  0  0  0  0  0  0
   69.2007   47.9189   53.3336 C   0  0  0  0  0  0  0  0  0  0  0  0
   68.7128   47.3391   52.1841 C   0  0  0  0  0  0  0  0  0  0  0  0
   68.0706   46.1132   52.2324 C   0  0  0  0  0  0  0  0  0  0  0  0
   67.9330   45.4967   53.4507 C   0  0  0  0  0  0  0  0  0  0  0  0
   70.0903   39.3769   59.7039 C   0  0  0  0  0  0  0  0  0  0  0  0
   70.7858   38.1685   59.1927 C   0  0  0  0  0  0  0  0  0  0  0  0
   70.6055   36.9507   59.7625 C   0  0  0  0  0  0  0  0  0  0  0  0
   71.2204   35.7924   59.2914 C   0  0  0  0  0  0  0  0  0  0  0  0
   72.0422   35.9128   58.1980 C   0  0  0  0  0  0  0  0  0  0  0  0
   72.2567   37.1121   57.5906 C   0  0  0  0  0  0  0  0  0  0  0  0
   71.6278   38.2543   58.0851 C   0  0  0  0  0  0  0  0  0  0  0  0
  1  2  1  0
  2 12  1  0
  2  3  2  0
 12 13  1  0
 13 14  1  0
 14 15  2  0
 14 19  1  0
 15 16  1  0
 16 17  2  0
 17 18  1  0
 18 19  2  0
  3  4  1  0
  3 10  1  0
  4  5  2  0
  4  6  1  0
  6  7  1  0
  7  8  2  0
  7  9  1  0
  9 20  1  0
  9 10  1  0
 20 21  1  0
 21 22  2  0
 21 26  1  0
 22 23  1  0
 23 24  2  0
 24 25  1  0
 25 26  2  0
 10 11  2  0
M  END
>  <minimizedAffinity>  (210) 
-9.08851

$$$$
data/200k_reference_output/data/smiles/17796.pdb
     RDKit          3D

 28 30  0  0  0  0  0  0  0  0999 V2000
   69.3555   40.0072   59.2323 N   0  0  0  0  0  0  0  0  0  0  0  0
   68.3582   39.1855   58.6813 C   0  0  0  0  0  0  0  0  0  0  0  0
   67.9518   39.7897   57.3547 C   0  0  0  0  0  0  0  0  0  0  0  0
   67.2606   41.1052   57.6612 C   0  0  0  0  0  0  0  0  0  0  0  0
   67.5682   41.6552   59.0219 C   0  0  0  0  0  0  0  0  0  0  0  0
   68.8933   41.2799   59.6049 C   0  0  0  0  0  0  0  0  0  0  0  0
   70.6278   39.2988   60.0392 S   0  0  0  0  0  0  0  0  0  0  0  0
   70.1932   38.9316   61.4335 O   0  0  0  0  0  0  0  0  0  0  0  0
   71.7709   40.2505   60.2032 O   0  0  0  0  0  0  0  0  0  0  0  0
   72.7755   34.2093   57.4936 C   0  0  0  0  0  0  0  0  0  0  0  0
   72.2359   35.4564   58.1064 C   0  0  0  0  0  0  0  0  0  0  0  0
   72.4949   36.7188   57.5601 C   0  0  0  0  0  0  0  0  0  0  0  0
   72.0021   37.8565   58.1465 C   0  0  0  0  0  0  0  0  0  0  0  0
   71.2293   37.8390   59.2940 C   0  0  0  0  0  0  0  0  0  0  0  0
   70.9656   36.6036   59.8394 C   0  0  0  0  0  0  0  0  0  0  0  0
   71.4687   35.4385   59.2463 C   0  0  0  0  0  0  0  0  0  0  0  0
   67.3818   42.0680   56.5767 C   0  0  0  0  0  0  0  0  0  0  0  0
   66.9771   41.8160   55.4291 O   0  0  0  0  0  0  0  0  0  0  0  0
   67.9823   43.3853   56.7614 N   0  0  0  0  0  0  0  0  0  0  0  0
   68.1003   44.2358   55.7972 N   0  0  0  0  0  0  0  0  0  0  0  0
   68.2047   44.9608   54.9453 C   0  0  0  0  0  0  0  0  0  0  0  0
   68.3368   45.8831   53.8606 C   0  0  0  0  0  0  0  0  0  0  0  0
   69.1203   47.0371   54.1940 C   0  0  0  0  0  0  0  0  0  0  0  0
   69.3883   48.0374   53.3234 C   0  0  0  0  0  0  0  0  0  0  0  0
   68.8833   47.9439   52.0493 C   0  0  0  0  0  0  0  0  0  0  0  0
   68.1263   46.8605   51.6731 C   0  0  0  0  0  0  0  0  0  0  0  0
   67.8648   45.8293   52.6108 C   0  0  0  0  0  0  0  0  0  0  0  0
   67.0809   44.7505   52.1521 O   0  0  0  0  0  0  0  0  0  0  0  0
 10 11  1  0
 11 12  2  0
 11 16  1  0
 12 13  1  0
 13 14  2  0
 14  7  1  0
 14 15  1  0
  7  8  2  0
  7  9  2  0
  7  1  1  0
  1  2  1  0
  1  6  1  0
  2  3  1  0
  3  4  1  0
  4 17  1  0
  4  5  1  0
 17 18  2  0
 17 19  1  0
 19 20  1  0
 20 21  2  3
 21 22  1  0
 22 23  2  0
 22 27  1  0
 23 24  1  0
 24 25  2  0
 25 26  1  0
 26 27  2  0
 27 28  1  0
  5  6  1  0
 15 16  2  0
M  END
>  <minimizedAffinity>  (211) 
-8.60695

$$$$
data/200k_reference_output/data/smiles/17810.pdb
     RDKit          3D

 31 34  0  0  0  0  0  0  0  0999 V2000
   71.2438   38.0737   59.8525 N   0  0  0  0  0  0  0  0  0  0  0  0
   70.8718   37.0439   60.7250 C   0  0  0  0  0  0  0  0  0  0  0  0
   71.2370   35.7402   60.4546 N   0  0  0  0  0  0  0  0  0  0  0  0
   71.9618   35.4524   59.3504 C   0  0  0  0  0  0  0  0  0  0  0  0
   72.1179   34.0966   58.8516 C   0  0  0  0  0  0  0  0  0  0  0  0
   72.6215   33.8563   57.5946 C   0  0  0  0  0  0  0  0  0  0  0  0
   73.0664   34.8418   56.6378 C   0  0  0  0  0  0  0  0  0  0  0  0
   72.8703   36.1595   57.3144 C   0  0  0  0  0  0  0  0  0  0  0  0
   72.3867   36.3814   58.4728 C   0  0  0  0  0  0  0  0  0  0  0  0
   71.9562   37.7052   58.8277 C   0  0  0  0  0  0  0  0  0  0  0  0
   72.3268   38.6575   57.9821 O   0  0  0  0  0  0  0  0  0  0  0  0
   73.1311   34.8819   55.4434 C   0  0  0  0  0  0  0  0  0  0  0  0
   73.1952   34.9160   54.2171 C   0  0  0  0  0  0  0  0  0  0  0  0
   73.2565   34.9692   52.5291 C   0  0  0  0  0  0  0  0  0  0  0  0
   74.6797   35.1857   52.4248 C   0  0  0  0  0  0  0  0  0  0  0  0
   75.4484   35.9856   53.1400 C   0  0  0  0  0  0  0  0  0  0  0  0
   76.8499   36.1188   53.0695 C   0  0  0  0  0  0  0  0  0  0  0  0
   77.4725   35.3085   52.1351 C   0  0  0  0  0  0  0  0  0  0  0  0
   76.7210   34.4720   51.3865 C   0  0  0  0  0  0  0  0  0  0  0  0
   75.3953   34.3263   51.4297 C   0  0  0  0  0  0  0  0  0  0  0  0
   70.6316   39.3420   59.9305 C   0  0  0  0  0  0  0  0  0  0  0  0
   67.8427   40.9606   56.9711 C   0  0  0  0  0  0  0  0  0  0  0  0
   67.8599   39.6793   57.4167 C   0  0  0  0  0  0  0  0  0  0  0  0
   68.7415   39.0957   58.3577 C   0  0  0  0  0  0  0  0  0  0  0  0
   69.6354   39.7950   58.8689 C   0  0  0  0  0  0  0  0  0  0  0  0
   69.8277   41.1817   58.5903 C   0  0  0  0  0  0  0  0  0  0  0  0
   68.9812   41.7021   57.7087 C   0  0  0  0  0  0  0  0  0  0  0  0
   66.3174   41.0964   54.6239 N   0  0  0  0  0  0  0  0  0  0  0  0
   66.8869   41.9543   56.0096 S   0  0  0  0  0  0  0  0  0  0  0  0
   67.4245   43.2868   55.6051 O   0  0  0  0  0  0  0  0  0  0  0  0
   65.6007   42.2645   56.9404 O   0  0  0  0  0  0  0  0  0  0  0  0
 28 29  1  0
 29 30  2  0
 29 31  2  0
 29 22  1  0
 22 23  2  0
 22 27  1  0
 23 24  1  0
 24 25  2  0
 25 21  1  0
 25 26  1  0
 21  1  1  0
  1  2  1  0
  1 10  1  0
  2  3  2  0
  3  4  1  0
  4  5  2  0
  4  9  1  0
  5  6  1  0
  6  7  2  0
  7 12  1  0
  7  8  1  0
 12 13  3  0
 13 14  1  0
 14 15  1  0
 15 16  2  0
 15 20  1  0
 16 17  1  0
 17 18  2  0
 18 19  1  0
 19 20  2  0
  8  9  2  0
  9 10  1  0
 10 11  2  0
 26 27  2  0
M  END
>  <minimizedAffinity>  (212) 
-8.85118

$$$$
data/200k_reference_output/data/smiles/17912.pdb
     RDKit          3D

 24 26  0  0  0  0  0  0  0  0999 V2000
   67.9403   41.6578   57.9873 C   0  0  0  0  0  0  0  0  0  0  0  0
   68.5222   42.6244   56.9840 C   0  0  0  0  0  0  0  0  0  0  0  0
   69.7560   42.6881   56.8519 O   0  0  0  0  0  0  0  0  0  0  0  0
   67.7162   43.4495   56.1901 N   0  0  0  0  0  0  0  0  0  0  0  0
   68.0578   44.3729   55.2253 N   0  0  0  0  0  0  0  0  0  0  0  0
   68.3264   45.7366   55.3248 C   0  0  0  0  0  0  0  0  0  0  0  0
   68.2731   46.2866   56.4437 O   0  0  0  0  0  0  0  0  0  0  0  0
   68.6762   46.5974   54.1726 C   0  0  0  0  0  0  0  0  0  0  0  0
   68.4077   46.1599   52.8887 C   0  0  0  0  0  0  0  0  0  0  0  0
   68.7397   46.9597   51.7876 C   0  0  0  0  0  0  0  0  0  0  0  0
   69.3344   48.1894   51.9521 C   0  0  0  0  0  0  0  0  0  0  0  0
   69.5855   48.5986   53.2249 C   0  0  0  0  0  0  0  0  0  0  0  0
   69.2643   47.8171   54.3369 C   0  0  0  0  0  0  0  0  0  0  0  0
   69.1234   41.4747   59.3898 S   0  0  0  0  0  0  0  0  0  0  0  0
   73.0497   35.0606   57.3193 C   0  0  0  0  0  0  0  0  0  0  0  0
   72.1478   36.0124   58.0526 C   0  0  0  0  0  0  0  0  0  0  0  0
   71.4009   35.5615   59.1273 C   0  0  0  0  0  0  0  0  0  0  0  0
   70.5568   36.4358   59.7913 C   0  0  0  0  0  0  0  0  0  0  0  0
   70.4280   37.7737   59.4129 C   0  0  0  0  0  0  0  0  0  0  0  0
   69.6958   38.7931   59.8668 N   0  0  0  0  0  0  0  0  0  0  0  0
   69.9583   39.8978   59.1008 C   0  0  0  0  0  0  0  0  0  0  0  0
   70.8436   39.5228   58.2020 N   0  0  0  0  0  0  0  0  0  0  0  0
   71.1785   38.2053   58.3440 C   0  0  0  0  0  0  0  0  0  0  0  0
   72.0174   37.3292   57.6882 C   0  0  0  0  0  0  0  0  0  0  0  0
 15 16  1  0
 16 17  2  0
 16 24  1  0
 17 18  1  0
 18 19  2  0
 19 20  1  0
 19 23  1  0
 20 21  1  0
 21 14  1  0
 21 22  2  0
 14  1  1  0
  1  2  1  0
  2  3  2  0
  2  4  1  0
  4  5  1  0
  5  6  1  0
  6  7  2  0
  6  8  1  0
  8  9  2  0
  8 13  1  0
  9 10  1  0
 10 11  2  0
 11 12  1  0
 12 13  2  0
 22 23  1  0
 23 24  2  0
M  CHG  1  22   1
M  END
>  <minimizedAffinity>  (213) 
-8.91403

$$$$
data/200k_reference_output/data/smiles/17969.pdb
     RDKit          3D

 24 27  0  0  0  0  0  0  0  0999 V2000
   69.2247   47.6657   52.4730 C   0  0  0  0  0  0  0  0  0  0  0  0
   68.6719   46.9195   51.4549 C   0  0  0  0  0  0  0  0  0  0  0  0
   67.8263   45.8749   51.7602 C   0  0  0  0  0  0  0  0  0  0  0  0
   67.5442   45.5909   53.0789 C   0  0  0  0  0  0  0  0  0  0  0  0
   68.0761   46.3116   54.1103 C   0  0  0  0  0  0  0  0  0  0  0  0
   67.9705   46.2501   55.4683 N   0  0  0  0  0  0  0  0  0  0  0  0
   68.7177   47.2155   55.9957 C   0  0  0  0  0  0  0  0  0  0  0  0
   69.2925   47.8819   54.9741 N   0  0  0  0  0  0  0  0  0  0  0  0
   68.9303   47.3643   53.7845 C   0  0  0  0  0  0  0  0  0  0  0  0
   68.9296   47.5557   57.4382 C   0  0  1  0  0  0  0  0  0  0  0  0
   70.3364   47.1428   57.8045 C   0  0  0  0  0  0  0  0  0  0  0  0
   71.0852   48.4471   57.6261 C   0  0  0  0  0  0  0  0  0  0  0  0
   70.1880   49.3781   58.2702 N   0  0  2  0  0  0  0  0  0  0  0  0
   68.9209   49.0495   57.6761 C   0  0  0  0  0  0  0  0  0  0  0  0
   70.5759   50.7479   58.1659 C   0  0  0  0  0  0  0  0  0  0  0  0
   70.1631   51.3942   56.8784 C   0  0  0  0  0  0  0  0  0  0  0  0
   69.1248   52.3011   56.8579 C   0  0  0  0  0  0  0  0  0  0  0  0
   68.7692   52.8718   55.6768 C   0  0  0  0  0  0  0  0  0  0  0  0
   69.4330   52.5562   54.5021 C   0  0  0  0  0  0  0  0  0  0  0  0
   70.4703   51.6493   54.5321 C   0  0  0  0  0  0  0  0  0  0  0  0
   70.7918   51.1067   55.7181 N   0  0  0  0  0  0  0  0  0  0  0  0
   69.7768   49.7038   51.1120 N   0  0  0  0  0  0  0  0  0  0  0  0
   70.1111   48.7580   52.1197 C   0  0  0  0  0  0  0  0  0  0  0  0
   71.2216   48.8819   52.7223 O   0  0  0  0  0  0  0  0  0  0  0  0
 22 23  1  0
 23 24  2  0
 23  1  1  0
  1  2  2  0
  1  9  1  0
  2  3  1  0
  3  4  2  0
  4  5  1  0
  5  6  1  0
  5  9  2  0
  6  7  2  0
 10  7  1  6
  7  8  1  0
 10 11  1  0
 10 14  1  0
 11 12  1  0
 12 13  1  0
 13 15  1  6
 13 14  1  0
 15 16  1  0
 16 17  2  0
 16 21  1  0
 17 18  1  0
 18 19  2  0
 19 20  1  0
 20 21  2  0
  8  9  1  0
M  CHG  2   6   1  13   1
M  END
>  <minimizedAffinity>  (214) 
-8.57423

$$$$
data/200k_reference_output/data/smiles/17982.pdb
     RDKit          3D

 27 29  0  0  0  0  0  0  0  0999 V2000
   68.8474   45.5167   56.1353 C   0  0  0  0  0  0  0  0  0  0  0  0
   69.8217   45.3289   57.0974 C   0  0  0  0  0  0  0  0  0  0  0  0
   70.1225   44.0565   57.5900 C   0  0  0  0  0  0  0  0  0  0  0  0
   69.4791   42.9236   57.1531 C   0  0  0  0  0  0  0  0  0  0  0  0
   68.5042   43.1063   56.1878 C   0  0  0  0  0  0  0  0  0  0  0  0
   68.2011   44.3501   55.6998 C   0  0  0  0  0  0  0  0  0  0  0  0
   69.8197   41.6084   57.6880 C   0  0  0  0  0  0  0  0  0  0  0  0
   71.0881   41.2992   58.1323 C   0  0  0  0  0  0  0  0  0  0  0  0
   71.3574   40.0220   58.6379 C   0  0  0  0  0  0  0  0  0  0  0  0
   70.3928   39.0490   58.7102 C   0  0  0  0  0  0  0  0  0  0  0  0
   69.1289   39.3554   58.2686 C   0  0  0  0  0  0  0  0  0  0  0  0
   68.8653   40.6099   57.7722 C   0  0  0  0  0  0  0  0  0  0  0  0
   70.6361   37.6952   59.2441 C   0  0  0  0  0  0  0  0  0  0  0  0
   69.5360   37.0890   59.7783 F   0  0  0  0  0  0  0  0  0  0  0  0
   71.1874   36.9225   58.2325 F   0  0  0  0  0  0  0  0  0  0  0  0
   71.5873   37.7690   60.2647 F   0  0  0  0  0  0  0  0  0  0  0  0
   67.6355   47.5131   56.2752 O   0  0  0  0  0  0  0  0  0  0  0  0
   68.4571   46.8011   55.5910 C   0  0  0  0  0  0  0  0  0  0  0  0
   68.9161   47.3443   54.3444 C   0  0  0  0  0  0  0  0  0  0  0  0
   69.5920   48.5767   54.3426 C   0  0  0  0  0  0  0  0  0  0  0  0
   70.0884   49.1339   53.1922 C   0  0  0  0  0  0  0  0  0  0  0  0
   70.6825   50.2337   53.2461 O   0  0  0  0  0  0  0  0  0  0  0  0
   69.9342   48.5000   52.0193 N   0  0  0  0  0  0  0  0  0  0  0  0
   70.4496   49.0810   50.8860 O   0  0  0  0  0  0  0  0  0  0  0  0
   69.2867   47.3148   52.0009 C   0  0  0  0  0  0  0  0  0  0  0  0
   69.1704   46.7688   50.8858 O   0  0  0  0  0  0  0  0  0  0  0  0
   68.7999   46.7716   53.1476 N   0  0  0  0  0  0  0  0  0  0  0  0
 17 18  2  0
 18  1  1  0
 18 19  1  0
  1  2  2  0
  1  6  1  0
  2  3  1  0
  3  4  2  0
  4  7  1  0
  4  5  1  0
  7  8  2  0
  7 12  1  0
  8  9  1  0
  9 10  2  0
 10 13  1  0
 10 11  1  0
 13 14  1  0
 13 15  1  0
 13 16  1  0
 11 12  2  0
  5  6  2  0
 19 20  2  0
 19 27  1  0
 20 21  1  0
 21 22  2  0
 21 23  1  0
 23 24  1  0
 23 25  1  0
 25 26  2  0
 25 27  1  0
M  END
>  <minimizedAffinity>  (215) 
-8.69879

$$$$
data/200k_reference_output/data/smiles/18012.pdb
     RDKit          3D

 28 30  0  0  0  0  0  0  0  0999 V2000
   70.6099   49.1584   56.5767 N   0  0  0  0  0  0  0  0  0  0  0  0
   69.3563   49.1556   55.7850 C   0  0  1  0  0  0  0  0  0  0  0  0
   68.7810   50.5118   55.9787 C   0  0  0  0  0  0  0  0  0  0  0  0
   69.3889   51.5014   55.1281 N   0  0  0  0  0  0  0  0  0  0  0  0
   69.8237   51.1124   53.8309 C   0  0  0  0  0  0  0  0  0  0  0  0
   70.4463   51.8925   53.0812 O   0  0  0  0  0  0  0  0  0  0  0  0
   69.5280   49.7459   53.3582 C   0  0  0  0  0  0  0  0  0  0  0  0
   69.6821   48.6866   54.4483 C   0  0  2  0  0  0  0  0  0  0  0  0
   68.9708   47.5066   53.9380 C   0  0  0  0  0  0  0  0  0  0  0  0
   68.6808   47.4945   52.5863 C   0  0  0  0  0  0  0  0  0  0  0  0
   68.0129   46.4389   51.9970 C   0  0  0  0  0  0  0  0  0  0  0  0
   67.7422   46.4529   50.6713 F   0  0  0  0  0  0  0  0  0  0  0  0
   67.6406   45.3931   52.7913 C   0  0  0  0  0  0  0  0  0  0  0  0
   66.9869   44.3514   52.2360 F   0  0  0  0  0  0  0  0  0  0  0  0
   67.9285   45.3981   54.1535 C   0  0  0  0  0  0  0  0  0  0  0  0
   68.5908   46.4427   54.7409 C   0  0  0  0  0  0  0  0  0  0  0  0
   68.9077   46.5317   56.0470 F   0  0  0  0  0  0  0  0  0  0  0  0
   69.5603   52.8557   55.5629 C   0  0  0  0  0  0  0  0  0  0  0  0
   70.6867   52.9860   56.5774 C   0  0  0  0  0  0  0  0  0  0  0  0
   72.0146   52.9565   55.9190 C   0  0  0  0  0  0  0  0  0  0  0  0
   72.4812   54.0661   55.2262 C   0  0  0  0  0  0  0  0  0  0  0  0
   73.7070   54.0879   54.5975 C   0  0  0  0  0  0  0  0  0  0  0  0
   74.4826   52.9537   54.6739 C   0  0  0  0  0  0  0  0  0  0  0  0
   74.0786   51.8200   55.3447 C   0  0  0  0  0  0  0  0  0  0  0  0
   72.8444   51.8545   55.9532 C   0  0  0  0  0  0  0  0  0  0  0  0
   74.9384   50.6382   55.3973 C   0  0  0  0  0  0  0  0  0  0  0  0
   74.9064   49.8252   54.4491 O   0  0  0  0  0  0  0  0  0  0  0  0
   75.7877   50.3717   56.4445 O   0  0  0  0  0  0  0  0  0  0  0  0
  2  1  1  1
  2  3  1  0
  2  8  1  0
  3  4  1  0
  4 18  1  0
  4  5  1  0
 18 19  1  0
 19 20  1  0
 20 21  2  0
 20 25  1  0
 21 22  1  0
 22 23  2  0
 23 24  1  0
 24 26  1  0
 24 25  2  0
 26 27  2  0
 26 28  1  0
  5  6  2  0
  5  7  1  0
  7  8  1  0
  8  9  1  6
  9 10  2  0
  9 16  1  0
 10 11  1  0
 11 12  1  0
 11 13  2  0
 13 14  1  0
 13 15  1  0
 15 16  2  0
 16 17  1  0
M  CHG  1   1   1
M  END
>  <minimizedAffinity>  (216) 
-8.53324

$$$$
data/200k_reference_output/data/smiles/18175.pdb
     RDKit          3D

 24 26  0  0  0  0  0  0  0  0999 V2000
   72.2160   51.1194   54.8102 C   0  0  2  0  0  0  0  0  0  0  0  0
   70.1902   50.9122   52.9824 O   0  0  0  0  0  0  0  0  0  0  0  0
   70.4928   49.8008   53.5620 C   0  0  0  0  0  0  0  0  0  0  0  0
   71.5317   49.8722   54.5028 N   0  0  0  0  0  0  0  0  0  0  0  0
   69.7833   48.5998   53.2272 C   0  0  0  0  0  0  0  0  0  0  0  0
   68.9502   48.0001   54.2053 C   0  0  0  0  0  0  0  0  0  0  0  0
   68.2468   46.8566   53.9378 C   0  0  0  0  0  0  0  0  0  0  0  0
   68.3327   46.2594   52.7052 C   0  0  0  0  0  0  0  0  0  0  0  0
   69.1377   46.8107   51.7138 C   0  0  0  0  0  0  0  0  0  0  0  0
   69.8430   47.9824   52.0272 C   0  0  0  0  0  0  0  0  0  0  0  0
   70.6198   48.4564   51.0016 F   0  0  0  0  0  0  0  0  0  0  0  0
   73.7003   50.8859   54.7248 C   0  0  0  0  0  0  0  0  0  0  0  0
   74.4545   51.3732   55.5992 O   0  0  0  0  0  0  0  0  0  0  0  0
   74.2686   50.1464   53.7035 O   0  0  0  0  0  0  0  0  0  0  0  0
   71.9376   51.6827   56.1543 C   0  0  0  0  0  0  0  0  0  0  0  0
   70.5453   51.9865   56.4687 C   0  0  0  0  0  0  0  0  0  0  0  0
   69.9611   53.2287   56.3427 C   0  0  0  0  0  0  0  0  0  0  0  0
   68.6699   53.1242   56.6972 N   0  0  0  0  0  0  0  0  0  0  0  0
   68.3880   51.8644   57.0487 C   0  0  0  0  0  0  0  0  0  0  0  0
   67.2080   51.2839   57.4856 C   0  0  0  0  0  0  0  0  0  0  0  0
   67.1661   49.9540   57.7993 C   0  0  0  0  0  0  0  0  0  0  0  0
   68.3276   49.2052   57.6695 C   0  0  0  0  0  0  0  0  0  0  0  0
   69.4935   49.7899   57.2350 C   0  0  0  0  0  0  0  0  0  0  0  0
   69.5583   51.1438   56.9098 C   0  0  0  0  0  0  0  0  0  0  0  0
  2  3  2  0
  3  4  1  0
  3  5  1  0
  4  1  1  0
  1 15  1  1
  1 12  1  0
 15 16  1  0
 16 17  2  0
 16 24  1  0
 17 18  1  0
 18 19  1  0
 19 20  1  0
 19 24  2  0
 20 21  2  0
 21 22  1  0
 22 23  2  0
 23 24  1  0
 12 13  2  0
 12 14  1  0
  5  6  2  0
  5 10  1  0
  6  7  1  0
  7  8  2  0
  8  9  1  0
  9 10  2  0
 10 11  1  0
M  END
>  <minimizedAffinity>  (217) 
-8.61194

$$$$
data/200k_reference_output/data/smiles/18237.pdb
     RDKit          3D

 28 31  0  0  0  0  0  0  0  0999 V2000
   72.5571   46.3267   60.0720 N   0  0  0  0  0  0  0  0  0  0  0  0
   72.5405   47.5940   60.5898 C   0  0  0  0  0  0  0  0  0  0  0  0
   73.2915   47.9846   61.5293 O   0  0  0  0  0  0  0  0  0  0  0  0
   71.6260   48.3428   59.9651 N   0  0  0  0  0  0  0  0  0  0  0  0
   71.0337   47.5750   59.0302 C   0  0  0  0  0  0  0  0  0  0  0  0
   70.0179   47.8638   58.1020 C   0  0  0  0  0  0  0  0  0  0  0  0
   69.5417   46.9404   57.2132 C   0  0  0  0  0  0  0  0  0  0  0  0
   70.1644   45.6714   57.3202 C   0  0  0  0  0  0  0  0  0  0  0  0
   71.1478   45.3917   58.2202 C   0  0  0  0  0  0  0  0  0  0  0  0
   71.6185   46.3408   59.1112 C   0  0  0  0  0  0  0  0  0  0  0  0
   68.5708   47.1287   56.1796 C   0  0  0  0  0  0  0  0  0  0  0  0
   67.3891   47.4376   56.6219 O   0  0  0  0  0  0  0  0  0  0  0  0
   68.6654   47.0330   54.7531 C   0  0  0  0  0  0  0  0  0  0  0  0
   69.3840   47.9867   54.0261 C   0  0  0  0  0  0  0  0  0  0  0  0
   69.4934   47.9804   52.6643 C   0  0  0  0  0  0  0  0  0  0  0  0
   68.8819   47.0033   51.9237 C   0  0  0  0  0  0  0  0  0  0  0  0
   68.1586   46.0364   52.5827 C   0  0  0  0  0  0  0  0  0  0  0  0
   68.0621   46.0687   53.9869 C   0  0  0  0  0  0  0  0  0  0  0  0
   73.4070   45.2617   60.4918 C   0  0  0  0  0  0  0  0  0  0  0  0
   72.3382   42.9597   63.9461 C   0  0  0  0  0  0  0  0  0  0  0  0
   71.5073   42.9677   62.8467 C   0  0  0  0  0  0  0  0  0  0  0  0
   71.8483   43.7335   61.7241 C   0  0  0  0  0  0  0  0  0  0  0  0
   72.9852   44.4910   61.6553 C   0  0  0  0  0  0  0  0  0  0  0  0
   73.8304   44.4860   62.7698 C   0  0  0  0  0  0  0  0  0  0  0  0
   73.5003   43.7275   63.8916 C   0  0  0  0  0  0  0  0  0  0  0  0
   72.8730   42.1538   66.0809 N   0  0  0  0  0  0  0  0  0  0  0  0
   72.0194   42.1680   65.1212 C   0  0  0  0  0  0  0  0  0  0  0  0
   70.8206   41.4254   65.2758 N   0  0  0  0  0  0  0  0  0  0  0  0
 26 27  2  0
 27 28  1  0
 27 20  1  0
 20 21  2  0
 20 25  1  0
 21 22  1  0
 22 23  2  0
 23 19  1  0
 23 24  1  0
 19  1  1  0
  1  2  1  0
  1 10  1  0
  2  3  2  0
  2  4  1  0
  4  5  1  0
  5  6  1  0
  5 10  2  0
  6  7  2  0
  7 11  1  0
  7  8  1  0
 11 12  2  0
 11 13  1  0
 13 14  2  0
 13 18  1  0
 14 15  1  0
 15 16  2  0
 16 17  1  0
 17 18  2  0
  8  9  2  0
  9 10  1  0
 24 25  2  0
M  CHG  1  26   1
M  END
>  <minimizedAffinity>  (218) 
-8.74554

$$$$
data/200k_reference_output/data/smiles/18396.pdb
     RDKit          3D

 28 30  0  0  0  0  0  0  0  0999 V2000
   69.2110   47.6461   55.0716 N   0  0  0  0  0  0  0  0  0  0  0  0
   70.0556   48.6895   54.9383 C   0  0  0  0  0  0  0  0  0  0  0  0
   70.4423   49.2451   53.7237 C   0  0  0  0  0  0  0  0  0  0  0  0
   69.9206   48.6827   52.5795 C   0  0  0  0  0  0  0  0  0  0  0  0
   70.2139   49.1201   51.4396 O   0  0  0  0  0  0  0  0  0  0  0  0
   69.0433   47.6009   52.7026 C   0  0  0  0  0  0  0  0  0  0  0  0
   68.5264   47.0394   51.5532 C   0  0  0  0  0  0  0  0  0  0  0  0
   67.6536   45.9590   51.6443 C   0  0  0  0  0  0  0  0  0  0  0  0
   67.1388   45.3983   50.5326 F   0  0  0  0  0  0  0  0  0  0  0  0
   67.3122   45.4553   52.8904 C   0  0  0  0  0  0  0  0  0  0  0  0
   67.8570   46.0511   54.0230 C   0  0  0  0  0  0  0  0  0  0  0  0
   68.7149   47.1130   53.9558 C   0  0  0  0  0  0  0  0  0  0  0  0
   71.3573   50.3650   53.7293 C   0  0  0  0  0  0  0  0  0  0  0  0
   70.8696   51.5289   53.5250 O   0  0  0  0  0  0  0  0  0  0  0  0
   72.7476   50.3348   53.9367 N   0  0  0  0  0  0  0  0  0  0  0  0
   73.5285   51.5349   53.9135 N   0  0  0  0  0  0  0  0  0  0  0  0
   74.1719   51.7398   55.4997 S   0  0  0  0  0  0  0  0  0  0  0  0
   75.6525   51.4643   55.4348 O   0  0  0  0  0  0  0  0  0  0  0  0
   73.9711   53.1471   55.9530 O   0  0  0  0  0  0  0  0  0  0  0  0
   73.4342   50.6797   56.6544 C   0  0  0  0  0  0  0  0  0  0  0  0
   72.2451   50.9759   57.2730 C   0  0  0  0  0  0  0  0  0  0  0  0
   71.6822   50.1198   58.1833 C   0  0  0  0  0  0  0  0  0  0  0  0
   72.2709   48.9322   58.5210 C   0  0  0  0  0  0  0  0  0  0  0  0
   71.6945   47.9783   59.5018 C   0  0  0  0  0  0  0  0  0  0  0  0
   73.4710   48.6147   57.9096 C   0  0  0  0  0  0  0  0  0  0  0  0
   74.0416   49.4798   56.9876 C   0  0  0  0  0  0  0  0  0  0  0  0
   68.2349   48.3431   57.1325 C   0  0  0  0  0  0  0  0  0  0  0  0
   68.8866   47.1766   56.4216 C   0  0  0  0  0  0  0  0  0  0  0  0
 27 28  1  0
 28  1  1  0
  1  2  1  0
  1 12  1  0
  2  3  2  0
  3 13  1  0
  3  4  1  0
 13 14  2  0
 13 15  1  0
 15 16  1  0
 16 17  1  0
 17 18  2  0
 17 19  2  0
 17 20  1  0
 20 21  2  0
 20 26  1  0
 21 22  1  0
 22 23  2  0
 23 24  1  0
 23 25  1  0
 25 26  2  0
  4  5  2  0
  4  6  1  0
  6  7  1  0
  6 12  2  0
  7  8  2  0
  8  9  1  0
  8 10  1  0
 10 11  2  0
 11 12  1  0
M  END
>  <minimizedAffinity>  (219) 
-8.81085

$$$$
data/200k_reference_output/data/smiles/18411.pdb
     RDKit          3D

 25 28  0  0  0  0  0  0  0  0999 V2000
   73.3471   35.5197   52.3729 O   0  0  0  0  0  0  0  0  0  0  0  0
   73.7698   35.1245   53.4904 C   0  0  0  0  0  0  0  0  0  0  0  0
   72.9948   35.4421   54.6837 C   0  0  0  0  0  0  0  0  0  0  0  0
   73.3967   35.2472   55.9189 C   0  0  0  0  0  0  0  0  0  0  0  0
   72.6435   35.5568   57.1286 C   0  0  0  0  0  0  0  0  0  0  0  0
   72.2828   36.8634   57.3912 C   0  0  0  0  0  0  0  0  0  0  0  0
   71.5606   37.2235   58.5161 C   0  0  0  0  0  0  0  0  0  0  0  0
   71.1620   36.2868   59.4394 C   0  0  0  0  0  0  0  0  0  0  0  0
   71.5201   34.9559   59.1890 C   0  0  0  0  0  0  0  0  0  0  0  0
   72.2422   34.6220   58.0563 C   0  0  0  0  0  0  0  0  0  0  0  0
   70.9953   34.2465   60.2632 O   0  0  0  0  0  0  0  0  0  0  0  0
   70.7748   35.1272   61.3777 C   0  0  0  0  0  0  0  0  0  0  0  0
   70.4446   36.3128   60.6453 O   0  0  0  0  0  0  0  0  0  0  0  0
   75.0208   34.3697   53.5030 C   0  0  0  0  0  0  0  0  0  0  0  0
   75.7780   34.6967   52.2478 C   0  0  0  0  0  0  0  0  0  0  0  0
   75.5352   34.1116   51.0738 N   0  0  0  0  0  0  0  0  0  0  0  0
   76.2513   34.4588   49.9617 C   0  0  0  0  0  0  0  0  0  0  0  0
   75.9868   33.8524   48.7458 C   0  0  0  0  0  0  0  0  0  0  0  0
   76.7071   34.2130   47.6259 C   0  0  0  0  0  0  0  0  0  0  0  0
   77.6809   35.1763   47.7482 C   0  0  0  0  0  0  0  0  0  0  0  0
   77.9563   35.7898   48.9505 C   0  0  0  0  0  0  0  0  0  0  0  0
   77.2282   35.4201   50.0627 C   0  0  0  0  0  0  0  0  0  0  0  0
   77.5066   36.0424   51.2506 N   0  0  0  0  0  0  0  0  0  0  0  0
   76.7657   35.6556   52.3043 C   0  0  0  0  0  0  0  0  0  0  0  0
   76.9759   36.1997   53.4422 O   0  0  0  0  0  0  0  0  0  0  0  0
  1  2  2  0
  2  3  1  0
  2 14  1  0
  3  4  2  0
  4  5  1  0
  5  6  2  0
  5 10  1  0
  6  7  1  0
  7  8  2  0
  8  9  1  0
  8 13  1  0
  9 10  2  0
  9 11  1  0
 11 12  1  0
 12 13  1  0
 14 15  1  0
 15 16  2  0
 15 24  1  0
 16 17  1  0
 17 18  2  0
 17 22  1  0
 18 19  1  0
 19 20  2  0
 20 21  1  0
 21 22  2  0
 22 23  1  0
 23 24  1  0
 24 25  2  0
M  END
>  <minimizedAffinity>  (220) 
-8.68525

$$$$
data/200k_reference_output/data/smiles/18412.pdb
     RDKit          3D

 26 29  0  0  0  0  0  0  0  0999 V2000
   69.4500   48.0825   57.0172 C   0  0  0  0  0  0  0  0  0  0  0  0
   68.7251   49.2394   57.3235 C   0  0  0  0  0  0  0  0  0  0  0  0
   69.2003   50.1761   58.2144 C   0  0  0  0  0  0  0  0  0  0  0  0
   70.4172   49.9933   58.8354 C   0  0  0  0  0  0  0  0  0  0  0  0
   71.1521   48.8602   58.5519 C   0  0  0  0  0  0  0  0  0  0  0  0
   70.6565   47.9481   57.6632 C   0  0  0  0  0  0  0  0  0  0  0  0
   69.3888   47.9277   52.4239 C   0  0  0  0  0  0  0  0  0  0  0  0
   68.7465   46.8054   51.9463 C   0  0  0  0  0  0  0  0  0  0  0  0
   68.2061   45.8734   52.8123 C   0  0  0  0  0  0  0  0  0  0  0  0
   68.3021   46.0537   54.1691 C   0  0  0  0  0  0  0  0  0  0  0  0
   67.8912   45.3484   55.2332 N   0  0  0  0  0  0  0  0  0  0  0  0
   68.2490   45.9833   56.3606 N   0  0  0  0  0  0  0  0  0  0  0  0
   68.9045   47.1210   56.0699 C   0  0  0  0  0  0  0  0  0  0  0  0
   68.9421   47.1721   54.6930 C   0  0  0  0  0  0  0  0  0  0  0  0
   69.4713   48.0843   53.7898 C   0  0  0  0  0  0  0  0  0  0  0  0
   69.7299   50.3325   51.7408 N   0  0  0  0  0  0  0  0  0  0  0  0
   69.9749   48.9408   51.5626 C   0  0  0  0  0  0  0  0  0  0  0  0
   70.7323   48.6236   50.6120 O   0  0  0  0  0  0  0  0  0  0  0  0
   72.4021   48.7136   59.2151 N   0  0  0  0  0  0  0  0  0  0  0  0
   72.6014   47.8610   60.3173 C   0  0  0  0  0  0  0  0  0  0  0  0
   71.6231   47.1926   60.7406 O   0  0  0  0  0  0  0  0  0  0  0  0
   73.9505   47.7642   60.9578 C   0  0  1  0  0  0  0  0  0  0  0  0
   73.8820   47.7700   62.4517 C   0  0  0  0  0  0  0  0  0  0  0  0
   74.3149   46.3444   62.7859 C   0  0  0  0  0  0  0  0  0  0  0  0
   74.0984   45.6070   61.6350 O   0  0  0  0  0  0  0  0  0  0  0  0
   74.5084   46.4041   60.5952 C   0  0  0  0  0  0  0  0  0  0  0  0
 16 17  1  0
 17 18  2  0
 17  7  1  0
  7  8  2  0
  7 15  1  0
  8  9  1  0
  9 10  2  0
 10 11  1  0
 10 14  1  0
 11 12  1  0
 12 13  2  0
 13  1  1  0
 13 14  1  0
  1  2  2  0
  1  6  1  0
  2  3  1  0
  3  4  2  0
  4  5  1  0
  5 19  1  0
  5  6  2  0
 19 20  1  0
 20 21  2  0
 22 20  1  6
 22 23  1  0
 22 26  1  0
 23 24  1  0
 24 25  1  0
 25 26  1  0
 14 15  2  0
M  END
>  <minimizedAffinity>  (221) 
-8.92513

$$$$
data/200k_reference_output/data/smiles/18596.pdb
     RDKit          3D

 22 24  0  0  0  0  0  0  0  0999 V2000
   67.5743   44.3694   55.2290 N   0  0  0  0  0  0  0  0  0  0  0  0
   68.4273   43.6994   56.1068 N   0  0  0  0  0  0  0  0  0  0  0  0
   68.3255   42.4767   56.4589 C   0  0  0  0  0  0  0  0  0  0  0  0
   67.2908   41.5692   56.0012 C   0  0  0  0  0  0  0  0  0  0  0  0
   66.3524   41.8292   55.1976 O   0  0  0  0  0  0  0  0  0  0  0  0
   67.5765   40.3244   56.6634 N   0  0  0  0  0  0  0  0  0  0  0  0
   68.7282   40.4679   57.4833 C   0  0  0  0  0  0  0  0  0  0  0  0
   69.3956   39.5816   58.3051 C   0  0  0  0  0  0  0  0  0  0  0  0
   70.5101   39.9775   59.0076 C   0  0  0  0  0  0  0  0  0  0  0  0
   71.0044   41.2696   58.9188 C   0  0  0  0  0  0  0  0  0  0  0  0
   70.3391   42.1526   58.0986 C   0  0  0  0  0  0  0  0  0  0  0  0
   69.2232   41.7507   57.3984 C   0  0  0  0  0  0  0  0  0  0  0  0
   69.2498   47.8997   53.5184 C   0  0  0  0  0  0  0  0  0  0  0  0
   69.1936   47.6932   54.8858 C   0  0  0  0  0  0  0  0  0  0  0  0
   68.6548   46.5577   55.4242 C   0  0  0  0  0  0  0  0  0  0  0  0
   68.1298   45.5428   54.6247 C   0  0  0  0  0  0  0  0  0  0  0  0
   68.1887   45.7520   53.2656 C   0  0  0  0  0  0  0  0  0  0  0  0
   68.7347   46.9049   52.7134 C   0  0  0  0  0  0  0  0  0  0  0  0
   70.0899   49.2007   51.1242 N   0  0  0  0  0  0  0  0  0  0  0  0
   69.9803   49.3614   52.8569 S   0  0  0  0  0  0  0  0  0  0  0  0
   71.4145   49.4869   53.3479 O   0  0  0  0  0  0  0  0  0  0  0  0
   69.1777   50.5364   53.2700 O   0  0  0  0  0  0  0  0  0  0  0  0
 19 20  1  0
 20 21  2  0
 20 22  2  0
 20 13  1  0
 13 14  2  0
 13 18  1  0
 14 15  1  0
 15 16  2  0
 16  1  1  0
 16 17  1  0
  1  2  1  0
  2  3  2  0
  3  4  1  0
  3 12  1  0
  4  5  2  0
  4  6  1  0
  6  7  1  0
  7  8  1  0
  7 12  2  0
  8  9  2  0
  9 10  1  0
 10 11  2  0
 11 12  1  0
 17 18  2  0
M  END
>  <minimizedAffinity>  (222) 
-8.64129

$$$$
data/200k_reference_output/data/smiles/18687.pdb
     RDKit          3D

 21 23  0  0  0  0  0  0  0  0999 V2000
   68.2313   46.5647   56.2433 O   0  0  0  0  0  0  0  0  0  0  0  0
   68.3637   46.6608   54.8796 C   0  0  0  0  0  0  0  0  0  0  0  0
   67.8853   45.5985   54.0982 C   0  0  0  0  0  0  0  0  0  0  0  0
   67.9611   45.5817   52.7319 C   0  0  0  0  0  0  0  0  0  0  0  0
   68.5316   46.6507   52.0753 C   0  0  0  0  0  0  0  0  0  0  0  0
   69.0195   47.7223   52.7968 C   0  0  0  0  0  0  0  0  0  0  0  0
   68.9257   47.7017   54.1913 C   0  0  0  0  0  0  0  0  0  0  0  0
   69.5227   48.8496   54.8989 C   0  0  0  0  0  0  0  0  0  0  0  0
   69.2873   50.1362   54.1223 C   0  0  0  0  0  0  0  0  0  0  0  0
   70.0046   50.0276   52.7999 C   0  0  0  0  0  0  0  0  0  0  0  0
   69.6046   48.8277   52.0267 C   0  0  0  0  0  0  0  0  0  0  0  0
   71.0516   46.2516   58.6700 C   0  0  0  0  0  0  0  0  0  0  0  0
   71.2159   44.8684   58.6381 C   0  0  0  0  0  0  0  0  0  0  0  0
   70.3894   44.1296   57.8196 C   0  0  0  0  0  0  0  0  0  0  0  0
   69.4394   44.6846   57.0569 N   0  0  0  0  0  0  0  0  0  0  0  0
   69.2323   46.0381   57.0475 C   0  0  0  0  0  0  0  0  0  0  0  0
   70.0595   46.7622   57.8648 C   0  0  0  0  0  0  0  0  0  0  0  0
   72.8628   47.9052   58.9123 N   0  0  0  0  0  0  0  0  0  0  0  0
   71.8941   47.0739   59.5124 C   0  0  0  0  0  0  0  0  0  0  0  0
   71.7861   47.0670   60.7859 N   0  0  0  0  0  0  0  0  0  0  0  0
   72.5888   47.8507   61.5858 O   0  0  0  0  0  0  0  0  0  0  0  0
 18 19  1  0
 19 20  2  0
 19 12  1  0
 20 21  1  0
 12 13  2  0
 12 17  1  0
 13 14  1  0
 14 15  2  0
 15 16  1  0
 16  1  1  0
 16 17  2  0
  1  2  1  0
  2  3  2  0
  2  7  1  0
  3  4  1  0
  4  5  2  0
  5  6  1  0
  6  7  2  0
  6 11  1  0
  7  8  1  0
  8  9  1  0
  9 10  1  0
 10 11  1  0
M  CHG  1  20   1
M  END
>  <minimizedAffinity>  (223) 
-8.61392

$$$$
data/200k_reference_output/data/smiles/18729.pdb
     RDKit          3D

 32 36  0  0  0  0  0  0  0  0999 V2000
   71.8003   46.2575   59.0605 C   0  0  0  0  0  0  0  0  0  0  0  0
   72.8365   47.1408   58.8381 C   0  0  0  0  0  0  0  0  0  0  0  0
   72.6736   48.2623   58.0526 C   0  0  0  0  0  0  0  0  0  0  0  0
   71.4242   48.4762   57.4836 C   0  0  0  0  0  0  0  0  0  0  0  0
   70.3980   47.5974   57.7056 C   0  0  0  0  0  0  0  0  0  0  0  0
   70.5639   46.4547   58.5045 C   0  0  0  0  0  0  0  0  0  0  0  0
   71.6387   45.1154   61.1497 O   0  0  0  0  0  0  0  0  0  0  0  0
   71.9956   45.1160   59.9627 C   0  0  0  0  0  0  0  0  0  0  0  0
   72.6260   43.9800   59.4116 N   0  0  0  0  0  0  0  0  0  0  0  0
   73.0583   43.9743   58.0196 C   0  0  0  0  0  0  0  0  0  0  0  0
   72.7026   42.6052   57.4097 C   0  0  0  0  0  0  0  0  0  0  0  0
   71.6958   41.9797   58.2901 N   0  0  0  0  0  0  0  0  0  0  0  0
   72.1860   41.5954   59.5863 C   0  0  0  0  0  0  0  0  0  0  0  0
   72.8433   42.8106   60.2214 C   0  0  0  0  0  0  0  0  0  0  0  0
   70.3707   41.8143   57.8442 C   0  0  0  0  0  0  0  0  0  0  0  0
   69.6515   42.8041   57.2187 C   0  0  0  0  0  0  0  0  0  0  0  0
   68.3407   42.6070   56.7829 C   0  0  0  0  0  0  0  0  0  0  0  0
   67.7297   41.3895   56.9763 C   0  0  0  0  0  0  0  0  0  0  0  0
   68.4706   40.4080   57.6080 C   0  0  0  0  0  0  0  0  0  0  0  0
   69.7501   40.6224   58.0259 N   0  0  0  0  0  0  0  0  0  0  0  0
   69.0615   47.9098   57.1238 C   0  0  0  0  0  0  0  0  0  0  0  0
   68.7476   47.1760   55.8960 C   0  0  0  0  0  0  0  0  0  0  0  0
   68.1375   45.9473   55.9437 N   0  0  0  0  0  0  0  0  0  0  0  0
   67.8521   45.2739   54.8576 N   0  0  0  0  0  0  0  0  0  0  0  0
   68.1291   45.7231   53.6154 C   0  0  0  0  0  0  0  0  0  0  0  0
   67.8288   45.0256   52.6233 O   0  0  0  0  0  0  0  0  0  0  0  0
   68.7433   46.9559   53.5162 C   0  0  0  0  0  0  0  0  0  0  0  0
   69.0465   47.4887   52.2664 C   0  0  0  0  0  0  0  0  0  0  0  0
   69.6469   48.7225   52.1743 C   0  0  0  0  0  0  0  0  0  0  0  0
   69.9576   49.4516   53.3182 C   0  0  0  0  0  0  0  0  0  0  0  0
   69.6636   48.9366   54.5546 C   0  0  0  0  0  0  0  0  0  0  0  0
   69.0537   47.6840   54.6565 C   0  0  0  0  0  0  0  0  0  0  0  0
  7  8  2  0
  8  1  1  0
  8  9  1  0
  1  2  2  0
  1  6  1  0
  2  3  1  0
  3  4  2  0
  4  5  1  0
  5 21  1  0
  5  6  2  0
 21 22  1  0
 22 23  2  0
 22 32  1  0
 23 24  1  0
 24 25  1  0
 25 26  2  0
 25 27  1  0
 27 28  1  0
 27 32  2  0
 28 29  2  0
 29 30  1  0
 30 31  2  0
 31 32  1  0
  9 10  1  0
  9 14  1  0
 10 11  1  0
 11 12  1  0
 12 15  1  0
 12 13  1  0
 15 16  2  0
 15 20  1  0
 16 17  1  0
 17 18  2  0
 18 19  1  0
 19 20  2  0
 13 14  1  0
M  END
>  <minimizedAffinity>  (224) 
-9.44901

$$$$
data/200k_reference_output/data/smiles/18792.pdb
     RDKit          3D

 23 25  0  0  0  0  0  0  0  0999 V2000
   73.5893   50.3084   55.7096 N   0  0  0  0  0  0  0  0  0  0  0  0
   72.9196   50.9524   54.6558 C   0  0  0  0  0  0  0  0  0  0  0  0
   73.5746   51.7799   53.9775 O   0  0  0  0  0  0  0  0  0  0  0  0
   71.4828   50.6664   54.3484 C   0  0  0  0  0  0  0  0  0  0  0  0
   70.5594   51.6750   54.4102 C   0  0  0  0  0  0  0  0  0  0  0  0
   69.0194   50.7913   53.9553 S   0  0  0  0  0  0  0  0  0  0  0  0
   69.9217   49.1725   53.7571 C   0  0  0  0  0  0  0  0  0  0  0  0
   71.0487   49.4892   54.0184 N   0  0  0  0  0  0  0  0  0  0  0  0
   69.1661   47.9646   53.3643 C   0  0  0  0  0  0  0  0  0  0  0  0
   68.5749   47.1591   54.3032 C   0  0  0  0  0  0  0  0  0  0  0  0
   67.8648   46.0254   53.9322 C   0  0  0  0  0  0  0  0  0  0  0  0
   67.7466   45.6965   52.6102 C   0  0  0  0  0  0  0  0  0  0  0  0
   68.3417   46.5057   51.6500 C   0  0  0  0  0  0  0  0  0  0  0  0
   69.0482   47.6392   52.0493 C   0  0  0  0  0  0  0  0  0  0  0  0
   75.6629   49.0654   54.4688 O   0  0  0  0  0  0  0  0  0  0  0  0
   75.9997   49.8808   55.3780 C   0  0  0  0  0  0  0  0  0  0  0  0
   74.9324   50.5403   56.0371 N   0  0  0  0  0  0  0  0  0  0  0  0
   77.3997   50.1150   55.7117 C   0  0  0  0  0  0  0  0  0  0  0  0
   78.3348   49.1524   55.4061 C   0  0  0  0  0  0  0  0  0  0  0  0
   79.6754   49.2946   55.6867 C   0  0  0  0  0  0  0  0  0  0  0  0
   80.1071   50.4500   56.3019 C   0  0  0  0  0  0  0  0  0  0  0  0
   79.1594   51.4057   56.6034 C   0  0  0  0  0  0  0  0  0  0  0  0
   77.8402   51.2331   56.3114 N   0  0  0  0  0  0  0  0  0  0  0  0
 15 16  2  0
 16 17  1  0
 16 18  1  0
 17  1  1  0
  1  2  1  0
  2  3  2  0
  2  4  1  0
  4  5  2  0
  4  8  1  0
  5  6  1  0
  6  7  1  0
  7  9  1  0
  7  8  2  0
  9 10  2  0
  9 14  1  0
 10 11  1  0
 11 12  2  0
 12 13  1  0
 13 14  2  0
 18 19  2  0
 18 23  1  0
 19 20  1  0
 20 21  2  0
 21 22  1  0
 22 23  2  0
M  END
>  <minimizedAffinity>  (225) 
-8.70149

$$$$
data/200k_reference_output/data/smiles/18875.pdb
     RDKit          3D

 24 27  0  0  0  0  0  0  0  0999 V2000
   68.1299   45.6113   54.6691 C   0  0  0  0  0  0  0  0  0  0  0  0
   68.2327   46.5360   55.6867 C   0  0  0  0  0  0  0  0  0  0  0  0
   68.6967   47.8247   55.4782 C   0  0  0  0  0  0  0  0  0  0  0  0
   69.0601   48.1496   54.1826 C   0  0  0  0  0  0  0  0  0  0  0  0
   69.5284   49.4147   53.9311 C   0  0  0  0  0  0  0  0  0  0  0  0
   69.8977   49.7705   52.6677 N   0  0  0  0  0  0  0  0  0  0  0  0
   69.8122   48.9079   51.6613 N   0  0  0  0  0  0  0  0  0  0  0  0
   69.3570   47.6388   51.8469 C   0  0  0  0  0  0  0  0  0  0  0  0
   69.2842   46.8310   50.8737 O   0  0  0  0  0  0  0  0  0  0  0  0
   68.9793   47.2643   53.1213 C   0  0  0  0  0  0  0  0  0  0  0  0
   68.5050   45.9813   53.3867 C   0  0  0  0  0  0  0  0  0  0  0  0
   69.6303   50.3913   55.0405 C   0  0  0  0  0  0  0  0  0  0  0  0
   69.2756   50.0673   56.2846 C   0  0  0  0  0  0  0  0  0  0  0  0
   69.3130   50.9324   57.5198 C   0  0  0  0  0  0  0  0  0  0  0  0
   70.2207   52.0985   57.1931 C   0  0  0  0  0  0  0  0  0  0  0  0
   69.3598   53.0821   56.4453 C   0  0  0  0  0  0  0  0  0  0  0  0
   69.4891   52.8967   54.9831 C   0  0  0  0  0  0  0  0  0  0  0  0
   70.1616   51.6482   54.5158 C   0  0  0  0  0  0  0  0  0  0  0  0
   68.7991   48.7737   56.5365 N   0  0  0  0  0  0  0  0  0  0  0  0
   67.6679   44.2800   54.8519 N   0  0  0  0  0  0  0  0  0  0  0  0
   67.7436   41.5865   57.5858 C   0  0  0  0  0  0  0  0  0  0  0  0
   67.4726   42.2969   56.2966 C   0  0  0  0  0  0  0  0  0  0  0  0
   66.8306   41.7037   55.4169 O   0  0  0  0  0  0  0  0  0  0  0  0
   67.9167   43.6113   56.0490 N   0  0  0  0  0  0  0  0  0  0  0  0
 21 22  1  0
 22 23  2  0
 22 24  1  0
 24 20  1  0
 20  1  1  0
  1  2  2  0
  1 11  1  0
  2  3  1  0
  3  4  2  0
  3 19  1  0
  4  5  1  0
  4 10  1  0
  5  6  2  0
  5 12  1  0
  6  7  1  0
  7  8  1  0
  8  9  2  0
  8 10  1  0
 10 11  2  0
 12 13  2  0
 12 18  1  0
 13 14  1  0
 13 19  1  0
 14 15  1  0
 15 16  1  0
 16 17  1  0
 17 18  1  0
M  END
>  <minimizedAffinity>  (226) 
-9.09619

$$$$
data/200k_reference_output/data/smiles/18922.pdb
     RDKit          3D

 25 28  0  0  0  0  0  0  0  0999 V2000
   71.1073   45.7083   58.6470 C   0  0  0  0  0  0  0  0  0  0  0  0
   70.6549   44.4134   58.5159 C   0  0  0  0  0  0  0  0  0  0  0  0
   69.6869   44.0551   57.6107 C   0  0  0  0  0  0  0  0  0  0  0  0
   69.1962   45.0601   56.8458 N   0  0  0  0  0  0  0  0  0  0  0  0
   69.5708   46.3361   56.9023 C   0  0  0  0  0  0  0  0  0  0  0  0
   70.5571   46.6702   57.8324 C   0  0  0  0  0  0  0  0  0  0  0  0
   70.7470   48.0265   57.6775 C   0  0  0  0  0  0  0  0  0  0  0  0
   69.9166   48.4669   56.7085 N   0  0  0  0  0  0  0  0  0  0  0  0
   69.2098   47.4680   56.2384 N   0  0  0  0  0  0  0  0  0  0  0  0
   69.2045   42.6893   57.4670 C   0  0  0  0  0  0  0  0  0  0  0  0
   68.2364   42.3795   56.5395 C   0  0  0  0  0  0  0  0  0  0  0  0
   67.7398   41.1070   56.3548 C   0  0  0  0  0  0  0  0  0  0  0  0
   68.2409   40.0915   57.1444 C   0  0  0  0  0  0  0  0  0  0  0  0
   69.2086   40.3567   58.0836 C   0  0  0  0  0  0  0  0  0  0  0  0
   69.6841   41.6588   58.2362 C   0  0  0  0  0  0  0  0  0  0  0  0
   71.7575   46.7403   60.7918 N   0  0  0  0  0  0  0  0  0  0  0  0
   72.1302   46.0387   59.6154 C   0  0  0  0  0  0  0  0  0  0  0  0
   73.3444   45.7342   59.4671 O   0  0  0  0  0  0  0  0  0  0  0  0
   68.2058   47.5162   55.1913 C   0  0  0  0  0  0  0  0  0  0  0  0
   68.7778   47.5172   53.8403 C   0  0  0  0  0  0  0  0  0  0  0  0
   68.4556   46.5279   52.9192 C   0  0  0  0  0  0  0  0  0  0  0  0
   69.0021   46.5412   51.6515 C   0  0  0  0  0  0  0  0  0  0  0  0
   69.8553   47.4942   51.2542 N   0  0  0  0  0  0  0  0  0  0  0  0
   70.1964   48.4745   52.1164 C   0  0  0  0  0  0  0  0  0  0  0  0
   69.6659   48.4856   53.3901 C   0  0  0  0  0  0  0  0  0  0  0  0
 16 17  1  0
 17 18  2  0
 17  1  1  0
  1  2  2  0
  1  6  1  0
  2  3  1  0
  3 10  1  0
  3  4  2  0
 10 11  2  0
 10 15  1  0
 11 12  1  0
 12 13  2  0
 13 14  1  0
 14 15  2  0
  4  5  1  0
  5  6  2  0
  5  9  1  0
  6  7  1  0
  7  8  2  0
  8  9  1  0
  9 19  1  0
 19 20  1  0
 20 21  2  0
 20 25  1  0
 21 22  1  0
 22 23  2  0
 23 24  1  0
 24 25  2  0
M  END
>  <minimizedAffinity>  (227) 
-8.64620

$$$$
data/200k_reference_output/data/smiles/18927.pdb
     RDKit          3D

 25 27  0  0  0  0  0  0  0  0999 V2000
   69.0385   41.9370   59.9068 C   0  0  0  0  0  0  0  0  0  0  0  0
   68.5574   41.0366   58.8347 C   0  0  0  0  0  0  0  0  0  0  0  0
   68.4800   41.3578   57.4953 C   0  0  0  0  0  0  0  0  0  0  0  0
   68.0083   40.2924   56.8641 N   0  0  0  0  0  0  0  0  0  0  0  0
   67.7755   40.1847   55.5141 O   0  0  0  0  0  0  0  0  0  0  0  0
   67.7970   39.3277   57.7857 C   0  0  0  0  0  0  0  0  0  0  0  0
   68.1371   39.7857   59.0185 N   0  0  0  0  0  0  0  0  0  0  0  0
   68.8653   42.6696   56.9391 C   0  0  0  0  0  0  0  0  0  0  0  0
   70.0674   43.0334   56.9850 O   0  0  0  0  0  0  0  0  0  0  0  0
   67.9641   43.5781   56.3411 N   0  0  0  0  0  0  0  0  0  0  0  0
   68.4103   44.8286   55.8243 N   0  0  0  0  0  0  0  0  0  0  0  0
   68.1322   45.1939   54.6178 C   0  0  0  0  0  0  0  0  0  0  0  0
   68.5516   46.4480   54.0274 C   0  0  0  0  0  0  0  0  0  0  0  0
   68.7763   46.6198   52.6888 C   0  0  0  0  0  0  0  0  0  0  0  0
   69.1745   47.8321   52.1679 C   0  0  0  0  0  0  0  0  0  0  0  0
   69.3615   48.9295   53.0107 C   0  0  0  0  0  0  0  0  0  0  0  0
   69.1391   48.7711   54.3563 C   0  0  0  0  0  0  0  0  0  0  0  0
   68.7421   47.5433   54.8391 C   0  0  0  0  0  0  0  0  0  0  0  0
   68.0364   39.0142   60.2702 C   0  0  0  0  0  0  0  0  0  0  0  0
   66.7420   38.2913   60.3154 C   0  0  0  0  0  0  0  0  0  0  0  0
   66.6921   36.9065   60.3353 C   0  0  0  0  0  0  0  0  0  0  0  0
   65.5072   36.2003   60.3788 C   0  0  0  0  0  0  0  0  0  0  0  0
   64.3178   36.8635   60.4034 C   0  0  0  0  0  0  0  0  0  0  0  0
   64.3378   38.2422   60.3845 C   0  0  0  0  0  0  0  0  0  0  0  0
   65.5387   38.9603   60.3405 C   0  0  0  0  0  0  0  0  0  0  0  0
  1  2  1  0
  2  3  2  0
  2  7  1  0
  3  8  1  0
  3  4  1  0
  8  9  2  0
  8 10  1  0
 10 11  1  0
 11 12  2  0
 12 13  1  0
 13 14  2  0
 13 18  1  0
 14 15  1  0
 15 16  2  0
 16 17  1  0
 17 18  2  0
  4  5  1  0
  4  6  2  0
  6  7  1  0
  7 19  1  0
 19 20  1  0
 20 21  2  0
 20 25  1  0
 21 22  1  0
 22 23  2  0
 23 24  1  0
 24 25  2  0
M  CHG  2   4   1   5  -1
M  END
>  <minimizedAffinity>  (228) 
-8.58347

$$$$
data/200k_reference_output/data/smiles/18963.pdb
     RDKit          3D

 27 30  0  0  0  0  0  0  0  0999 V2000
   71.1120   46.2671   58.2600 C   0  0  0  0  0  0  0  0  0  0  0  0
   70.1169   46.7620   57.4376 C   0  0  0  0  0  0  0  0  0  0  0  0
   69.7769   48.1170   57.3431 C   0  0  0  0  0  0  0  0  0  0  0  0
   70.4657   49.0181   58.1074 C   0  0  0  0  0  0  0  0  0  0  0  0
   71.4600   48.5622   58.9361 C   0  0  0  0  0  0  0  0  0  0  0  0
   71.7886   47.2162   59.0230 C   0  0  0  0  0  0  0  0  0  0  0  0
   72.7664   46.8368   59.8790 F   0  0  0  0  0  0  0  0  0  0  0  0
   73.6127   44.9385   57.6408 O   0  0  0  0  0  0  0  0  0  0  0  0
   72.6821   44.3150   58.1243 C   0  0  0  0  0  0  0  0  0  0  0  0
   72.7340   42.8731   58.5597 C   0  0  0  0  0  0  0  0  0  0  0  0
   71.7347   42.1407   57.6724 C   0  0  0  0  0  0  0  0  0  0  0  0
   70.3326   42.6079   57.9771 C   0  0  0  0  0  0  0  0  0  0  0  0
   70.3712   43.9366   58.6918 C   0  0  0  0  0  0  0  0  0  0  0  0
   69.5622   44.2542   59.5946 O   0  0  0  0  0  0  0  0  0  0  0  0
   71.3782   44.9013   58.3407 N   0  0  0  0  0  0  0  0  0  0  0  0
   68.6822   48.4853   56.3757 C   0  0  0  0  0  0  0  0  0  0  0  0
   69.1623   48.5569   54.9767 C   0  0  0  0  0  0  0  0  0  0  0  0
   70.0466   49.5230   54.5950 N   0  0  0  0  0  0  0  0  0  0  0  0
   70.5289   49.5828   53.3665 N   0  0  0  0  0  0  0  0  0  0  0  0
   70.1896   48.7105   52.4128 C   0  0  0  0  0  0  0  0  0  0  0  0
   70.6659   48.7978   51.2638 O   0  0  0  0  0  0  0  0  0  0  0  0
   69.2993   47.6950   52.6979 C   0  0  0  0  0  0  0  0  0  0  0  0
   68.9132   46.7816   51.7356 C   0  0  0  0  0  0  0  0  0  0  0  0
   68.0119   45.7932   52.0537 C   0  0  0  0  0  0  0  0  0  0  0  0
   67.4929   45.7122   53.3257 C   0  0  0  0  0  0  0  0  0  0  0  0
   67.9012   46.6432   54.2657 C   0  0  0  0  0  0  0  0  0  0  0  0
   68.8043   47.6557   54.0066 C   0  0  0  0  0  0  0  0  0  0  0  0
  8  9  2  0
  9 10  1  0
  9 15  1  0
 10 11  1  0
 11 12  1  0
 12 13  1  0
 13 14  2  0
 13 15  1  0
 15  1  1  0
  1  2  2  0
  1  6  1  0
  2  3  1  0
  3 16  1  0
  3  4  2  0
 16 17  1  0
 17 18  2  0
 17 27  1  0
 18 19  1  0
 19 20  1  0
 20 21  2  0
 20 22  1  0
 22 23  1  0
 22 27  2  0
 23 24  2  0
 24 25  1  0
 25 26  2  0
 26 27  1  0
  4  5  1  0
  5  6  2  0
  6  7  1  0
M  END
>  <minimizedAffinity>  (229) 
-9.34719

$$$$
data/200k_reference_output/data/smiles/19113.pdb
     RDKit          3D

 27 31  0  0  0  0  0  0  0  0999 V2000
   70.0200   43.0301   57.4046 C   0  0  0  0  0  0  0  0  0  0  0  0
   71.2760   42.7073   57.8772 C   0  0  0  0  0  0  0  0  0  0  0  0
   72.1617   43.6913   58.3230 C   0  0  0  0  0  0  0  0  0  0  0  0
   71.7479   45.0055   58.2802 C   0  0  0  0  0  0  0  0  0  0  0  0
   72.6062   45.9770   58.7139 C   0  0  0  0  0  0  0  0  0  0  0  0
   72.2474   47.3062   58.6943 C   0  0  0  0  0  0  0  0  0  0  0  0
   70.9780   47.6146   58.2163 C   0  0  0  0  0  0  0  0  0  0  0  0
   70.1000   46.6541   57.7754 C   0  0  0  0  0  0  0  0  0  0  0  0
   70.4993   45.3114   57.8091 C   0  0  0  0  0  0  0  0  0  0  0  0
   69.6785   44.3304   57.3895 N   0  0  0  0  0  0  0  0  0  0  0  0
   66.8894   41.4393   61.1663 O   0  0  0  0  0  0  0  0  0  0  0  0
   67.2389   41.2795   59.9645 C   0  0  0  0  0  0  0  0  0  0  0  0
   67.2992   40.0031   59.3351 N   0  0  0  0  0  0  0  0  0  0  0  0
   67.7263   40.1706   57.9898 C   0  0  0  0  0  0  0  0  0  0  0  0
   67.8386   39.2324   57.1733 O   0  0  0  0  0  0  0  0  0  0  0  0
   67.9823   41.5981   57.8091 C   0  0  2  0  0  0  0  0  0  0  0  0
   67.7000   42.2960   56.5327 C   0  0  0  0  0  0  0  0  0  0  0  0
   69.0863   41.9880   56.9341 C   0  0  1  0  0  0  0  0  0  0  0  0
   67.6288   42.2653   59.0178 N   0  0  0  0  0  0  0  0  0  0  0  0
   68.8776   46.9349   57.3135 O   0  0  0  0  0  0  0  0  0  0  0  0
   68.2748   47.6429   56.3376 C   0  0  0  0  0  0  0  0  0  0  0  0
   68.4009   47.1863   54.9408 C   0  0  0  0  0  0  0  0  0  0  0  0
   67.9617   45.9971   54.4404 C   0  0  0  0  0  0  0  0  0  0  0  0
   68.1377   45.7061   53.1140 C   0  0  0  0  0  0  0  0  0  0  0  0
   68.7471   46.5681   52.2471 C   0  0  0  0  0  0  0  0  0  0  0  0
   69.1929   47.7685   52.7420 C   0  0  0  0  0  0  0  0  0  0  0  0
   69.0260   48.0741   54.0548 C   0  0  0  0  0  0  0  0  0  0  0  0
 11 12  2  0
 12 13  1  0
 12 19  1  0
 13 14  1  0
 14 15  2  0
 16 14  1  0
 16 17  1  6
 16 18  1  0
 16 19  1  0
 17 18  1  0
 18  1  1  1
  1  2  2  0
  1 10  1  0
  2  3  1  0
  3  4  2  0
  4  5  1  0
  4  9  1  0
  5  6  2  0
  6  7  1  0
  7  8  2  0
  8 20  1  0
  8  9  1  0
 20 21  1  0
 21 22  1  0
 22 23  2  0
 22 27  1  0
 23 24  1  0
 24 25  2  0
 25 26  1  0
 26 27  2  0
  9 10  2  0
M  END
>  <minimizedAffinity>  (230) 
-8.57030

$$$$
data/200k_reference_output/data/smiles/19174.pdb
     RDKit          3D

 28 30  0  0  0  0  0  0  0  0999 V2000
   68.3448   45.9243   54.0441 C   0  0  0  0  0  0  0  0  0  0  0  0
   67.8071   45.5292   52.8395 C   0  0  0  0  0  0  0  0  0  0  0  0
   67.9650   46.3041   51.6961 C   0  0  0  0  0  0  0  0  0  0  0  0
   68.6805   47.4974   51.7860 C   0  0  0  0  0  0  0  0  0  0  0  0
   69.2267   47.9116   52.9801 C   0  0  0  0  0  0  0  0  0  0  0  0
   69.0435   47.1174   54.0693 C   0  0  0  0  0  0  0  0  0  0  0  0
   67.7392   43.8056   55.3241 N   0  0  0  0  0  0  0  0  0  0  0  0
   68.2015   45.1430   55.2636 C   0  0  0  0  0  0  0  0  0  0  0  0
   68.5062   45.6670   56.3732 O   0  0  0  0  0  0  0  0  0  0  0  0
   67.5026   41.6848   56.5877 C   0  0  0  0  0  0  0  0  0  0  0  0
   67.5102   41.0934   55.4773 O   0  0  0  0  0  0  0  0  0  0  0  0
   67.6207   43.0965   56.5315 N   0  0  0  0  0  0  0  0  0  0  0  0
   67.1881   38.4556   61.3229 C   0  0  0  0  0  0  0  0  0  0  0  0
   67.2448   39.3230   60.1149 C   0  0  0  0  0  0  0  0  0  0  0  0
   67.9552   38.8957   59.0038 C   0  0  0  0  0  0  0  0  0  0  0  0
   68.0071   39.6975   57.8891 C   0  0  0  0  0  0  0  0  0  0  0  0
   67.3785   40.9236   57.8205 C   0  0  0  0  0  0  0  0  0  0  0  0
   66.6763   41.3524   58.9096 C   0  0  0  0  0  0  0  0  0  0  0  0
   66.6288   40.5432   60.0258 C   0  0  0  0  0  0  0  0  0  0  0  0
   70.1073   49.3833   53.0849 S   0  0  0  0  0  0  0  0  0  0  0  0
   69.7465   50.3482   51.9663 O   0  0  0  0  0  0  0  0  0  0  0  0
   71.6064   49.1516   52.9671 O   0  0  0  0  0  0  0  0  0  0  0  0
   69.8598   50.2372   54.5612 N   0  0  0  0  0  0  0  0  0  0  0  0
   68.7736   51.1413   54.5406 C   0  0  0  0  0  0  0  0  0  0  0  0
   69.0870   52.5683   54.8095 C   0  0  0  0  0  0  0  0  0  0  0  0
   70.1917   52.7966   55.5925 O   0  0  0  0  0  0  0  0  0  0  0  0
   71.2830   52.2075   54.9570 C   0  0  0  0  0  0  0  0  0  0  0  0
   71.1135   50.7299   55.0021 C   0  0  0  0  0  0  0  0  0  0  0  0
 13 14  1  0
 14 15  2  0
 14 19  1  0
 15 16  1  0
 16 17  2  0
 17 10  1  0
 17 18  1  0
 10 11  2  0
 10 12  1  0
 12  7  1  0
  7  8  1  0
  8  9  2  0
  8  1  1  0
  1  2  2  0
  1  6  1  0
  2  3  1  0
  3  4  2  0
  4  5  1  0
  5 20  1  0
  5  6  2  0
 20 21  2  0
 20 22  2  0
 20 23  1  0
 23 24  1  0
 23 28  1  0
 24 25  1  0
 25 26  1  0
 26 27  1  0
 27 28  1  0
 18 19  2  0
M  END
>  <minimizedAffinity>  (231) 
-9.30948

$$$$
data/200k_reference_output/data/smiles/19235.pdb
     RDKit          3D

 27 28  0  0  0  0  0  0  0  0999 V2000
   68.3369   49.6382   56.7926 O   0  0  0  0  0  0  0  0  0  0  0  0
   68.5876   48.0798   56.7019 S   0  0  0  0  0  0  0  0  0  0  0  0
   67.2696   47.5256   57.2099 O   0  0  0  0  0  0  0  0  0  0  0  0
   68.7963   47.7015   55.0338 C   0  0  0  0  0  0  0  0  0  0  0  0
   68.3631   46.4966   54.5469 C   0  0  0  0  0  0  0  0  0  0  0  0
   67.8413   45.5484   55.3977 F   0  0  0  0  0  0  0  0  0  0  0  0
   68.4468   46.1759   53.1833 C   0  0  0  0  0  0  0  0  0  0  0  0
   67.9977   45.0135   52.6736 F   0  0  0  0  0  0  0  0  0  0  0  0
   68.9996   47.1194   52.2995 C   0  0  0  0  0  0  0  0  0  0  0  0
   69.0904   46.8387   50.9931 F   0  0  0  0  0  0  0  0  0  0  0  0
   69.4350   48.3374   52.8085 C   0  0  0  0  0  0  0  0  0  0  0  0
   69.9629   49.2553   51.9055 F   0  0  0  0  0  0  0  0  0  0  0  0
   69.3430   48.6312   54.1150 C   0  0  0  0  0  0  0  0  0  0  0  0
   69.7275   49.8389   54.5891 F   0  0  0  0  0  0  0  0  0  0  0  0
   69.8485   47.7198   57.8127 C   0  0  0  0  0  0  0  0  0  0  0  0
   70.4206   46.3985   57.8118 C   0  0  0  0  0  0  0  0  0  0  0  0
   70.8949   45.2573   57.8146 C   0  0  0  0  0  0  0  0  0  0  0  0
   71.4391   43.9478   57.8210 C   0  0  0  0  0  0  0  0  0  0  0  0
   72.8591   43.9434   58.1086 C   0  0  0  0  0  0  0  0  0  0  0  0
   73.5626   42.8331   58.3990 C   0  0  0  0  0  0  0  0  0  0  0  0
   72.9265   41.6235   58.4294 C   0  0  0  0  0  0  0  0  0  0  0  0
   71.5813   41.5887   58.1635 C   0  0  0  0  0  0  0  0  0  0  0  0
   70.8411   42.7519   57.8524 C   0  0  0  0  0  0  0  0  0  0  0  0
   69.5526   42.5949   57.2754 C   0  0  0  0  0  0  0  0  0  0  0  0
   68.4966   42.4662   56.7857 C   0  0  0  0  0  0  0  0  0  0  0  0
   67.1634   42.3178   56.1777 C   0  0  0  0  0  0  0  0  0  0  0  0
   67.0718   41.1297   55.4331 O   0  0  0  0  0  0  0  0  0  0  0  0
  1  2  2  0
  2  3  2  0
  2 15  1  0
  2  4  1  0
 15 16  1  0
 16 17  3  0
 17 18  1  0
 18 19  2  0
 18 23  1  0
 19 20  1  0
 20 21  2  0
 21 22  1  0
 22 23  2  0
 23 24  1  0
 24 25  3  0
 25 26  1  0
 26 27  1  0
  4  5  2  0
  4 13  1  0
  5  6  1  0
  5  7  1  0
  7  8  1  0
  7  9  2  0
  9 10  1  0
  9 11  1  0
 11 12  1  0
 11 13  2  0
 13 14  1  0
M  END
>  <minimizedAffinity>  (232) 
-8.59420

$$$$
data/200k_reference_output/data/smiles/19248.pdb
     RDKit          3D

 19 20  0  0  0  0  0  0  0  0999 V2000
   69.4929   48.3371   54.0455 C   0  0  0  0  0  0  0  0  0  0  0  0
   69.2217   48.0857   55.4084 C   0  0  0  0  0  0  0  0  0  0  0  0
   68.3569   47.1452   55.8547 C   0  0  0  0  0  0  0  0  0  0  0  0
   68.1874   47.0022   57.0924 O   0  0  0  0  0  0  0  0  0  0  0  0
   67.7107   46.3974   55.0033 O   0  0  0  0  0  0  0  0  0  0  0  0
   67.8767   46.5317   53.7240 C   0  0  0  0  0  0  0  0  0  0  0  0
   67.1899   45.7312   52.8781 N   0  0  0  0  0  0  0  0  0  0  0  0
   67.3339   45.8261   51.5419 C   0  0  0  0  0  0  0  0  0  0  0  0
   66.6886   45.0757   50.7641 O   0  0  0  0  0  0  0  0  0  0  0  0
   68.1827   46.7391   51.0526 N   0  0  0  0  0  0  0  0  0  0  0  0
   68.8871   47.5606   51.8843 C   0  0  0  0  0  0  0  0  0  0  0  0
   69.6684   48.3931   51.4181 O   0  0  0  0  0  0  0  0  0  0  0  0
   68.7529   47.4826   53.2355 C   0  0  0  0  0  0  0  0  0  0  0  0
   70.4008   49.3678   53.6256 C   0  0  0  0  0  0  0  0  0  0  0  0
   70.3073   50.7716   54.0808 C   0  0  0  0  0  0  0  0  0  0  0  0
   68.9989   51.3811   54.3104 C   0  0  0  0  0  0  0  0  0  0  0  0
   68.0600   51.4665   56.5427 C   0  0  0  0  0  0  0  0  0  0  0  0
   68.6744   52.2954   55.3798 C   0  0  0  0  0  0  0  0  0  0  0  0
   69.7657   53.1099   55.9877 C   0  0  0  0  0  0  0  0  0  0  0  0
 17 18  1  0
 18 19  1  0
 18 16  1  0
 16 15  1  0
 15 14  1  0
 14  1  1  0
  1  2  2  0
  1 13  1  0
  2  3  1  0
  3  4  2  0
  3  5  1  0
  5  6  1  0
  6  7  1  0
  6 13  2  0
  7  8  1  0
  8  9  2  0
  8 10  1  0
 10 11  1  0
 11 12  2  0
 11 13  1  0
M  END
>  <minimizedAffinity>  (233) 
-8.83738

$$$$
data/200k_reference_output/data/smiles/19309.pdb
     RDKit          3D

 28 30  0  0  0  0  0  0  0  0999 V2000
   69.0388   46.7269   56.2339 C   0  0  0  0  0  0  0  0  0  0  0  0
   69.2475   47.9906   55.6924 C   0  0  0  0  0  0  0  0  0  0  0  0
   69.0115   48.2647   54.3665 C   0  0  0  0  0  0  0  0  0  0  0  0
   68.5449   47.2707   53.4979 C   0  0  0  0  0  0  0  0  0  0  0  0
   68.3400   46.0228   54.0325 C   0  0  0  0  0  0  0  0  0  0  0  0
   68.5808   45.7544   55.3724 C   0  0  0  0  0  0  0  0  0  0  0  0
   68.3735   44.5210   55.8827 F   0  0  0  0  0  0  0  0  0  0  0  0
   70.9033   46.1708   59.5007 N   0  0  0  0  0  0  0  0  0  0  0  0
   70.5997   46.4135   58.1554 C   0  0  0  0  0  0  0  0  0  0  0  0
   71.5554   46.5956   57.3361 O   0  0  0  0  0  0  0  0  0  0  0  0
   69.2938   46.4772   57.6105 N   0  0  0  0  0  0  0  0  0  0  0  0
   72.6761   47.4691   60.5855 C   0  0  0  0  0  0  0  0  0  0  0  0
   72.2498   46.1131   60.0346 C   0  0  1  0  0  0  0  0  0  0  0  0
   72.4242   45.0306   61.0067 C   0  0  0  0  0  0  0  0  0  0  0  0
   73.5360   44.7924   61.5207 O   0  0  0  0  0  0  0  0  0  0  0  0
   71.3444   44.2440   61.3758 O   0  0  0  0  0  0  0  0  0  0  0  0
   69.2407   49.6211   53.7598 C   0  0  0  0  0  0  0  0  0  0  0  0
   70.4783   50.2449   54.1760 C   0  0  0  0  0  0  0  0  0  0  0  0
   71.6441   49.8174   53.6085 N   0  0  0  0  0  0  0  0  0  0  0  0
   72.8175   50.3018   53.9361 N   0  0  0  0  0  0  0  0  0  0  0  0
   72.9107   51.2793   54.8863 C   0  0  0  0  0  0  0  0  0  0  0  0
   74.0369   51.7391   55.1962 O   0  0  0  0  0  0  0  0  0  0  0  0
   71.7849   51.7609   55.5010 C   0  0  0  0  0  0  0  0  0  0  0  0
   70.5612   51.2224   55.1251 C   0  0  0  0  0  0  0  0  0  0  0  0
   69.3450   51.7347   55.7509 C   0  0  0  0  0  0  0  0  0  0  0  0
   69.3965   53.1641   56.2031 C   0  0  0  0  0  0  0  0  0  0  0  0
   70.7401   53.8018   56.1861 C   0  0  0  0  0  0  0  0  0  0  0  0
   71.8004   52.8118   56.5338 C   0  0  0  0  0  0  0  0  0  0  0  0
 13 12  1  1
 13  8  1  0
 13 14  1  0
  8  9  1  0
  9 10  2  0
  9 11  1  0
 11  1  1  0
  1  2  2  0
  1  6  1  0
  2  3  1  0
  3 17  1  0
  3  4  2  0
 17 18  1  0
 18 19  2  0
 18 24  1  0
 19 20  1  0
 20 21  1  0
 21 22  2  0
 21 23  1  0
 23 24  2  0
 23 28  1  0
 24 25  1  0
 25 26  1  0
 26 27  1  0
 27 28  1  0
  4  5  1  0
  5  6  2  0
  6  7  1  0
 14 15  2  0
 14 16  1  0
M  END
>  <minimizedAffinity>  (234) 
-8.54640

$$$$
data/200k_reference_output/data/smiles/19410.pdb
     RDKit          3D

 26 28  0  0  0  0  0  0  0  0999 V2000
   69.8646   43.5107   57.4992 C   0  0  0  0  0  0  0  0  0  0  0  0
   71.0083   43.6544   57.9796 O   0  0  0  0  0  0  0  0  0  0  0  0
   69.1988   44.6496   56.9922 N   0  0  0  0  0  0  0  0  0  0  0  0
   69.4796   39.7951   57.9566 C   0  0  0  0  0  0  0  0  0  0  0  0
   68.1969   39.6126   57.4762 C   0  0  0  0  0  0  0  0  0  0  0  0
   67.4419   40.6639   57.0034 C   0  0  0  0  0  0  0  0  0  0  0  0
   67.9920   41.9480   57.0125 C   0  0  0  0  0  0  0  0  0  0  0  0
   69.2659   42.1847   57.4807 C   0  0  0  0  0  0  0  0  0  0  0  0
   69.9667   41.0789   57.9395 C   0  0  0  0  0  0  0  0  0  0  0  0
   73.1301   36.4691   58.1081 C   0  0  0  0  0  0  0  0  0  0  0  0
   71.8881   37.2366   58.4527 C   0  0  0  0  0  0  0  0  0  0  0  0
   71.0859   36.9395   59.5349 C   0  0  0  0  0  0  0  0  0  0  0  0
   70.0648   37.8804   59.4811 C   0  0  0  0  0  0  0  0  0  0  0  0
   70.2393   38.6913   58.4368 N   0  0  0  0  0  0  0  0  0  0  0  0
   71.3499   38.2810   57.8288 N   0  0  0  0  0  0  0  0  0  0  0  0
   69.7800   45.8999   57.0178 N   0  0  0  0  0  0  0  0  0  0  0  0
   68.9514   47.1853   56.3208 S   0  0  0  0  0  0  0  0  0  0  0  0
   67.5806   47.3925   56.9321 O   0  0  0  0  0  0  0  0  0  0  0  0
   69.7441   48.4595   56.6198 O   0  0  0  0  0  0  0  0  0  0  0  0
   68.8214   46.9973   54.6000 C   0  0  0  0  0  0  0  0  0  0  0  0
   69.3599   47.9784   53.7908 C   0  0  0  0  0  0  0  0  0  0  0  0
   69.2660   47.9182   52.4159 C   0  0  0  0  0  0  0  0  0  0  0  0
   68.6267   46.8677   51.7972 C   0  0  0  0  0  0  0  0  0  0  0  0
   68.0826   45.8783   52.5868 C   0  0  0  0  0  0  0  0  0  0  0  0
   68.1905   45.9594   53.9760 C   0  0  0  0  0  0  0  0  0  0  0  0
   67.6663   44.9365   54.6848 F   0  0  0  0  0  0  0  0  0  0  0  0
 10 11  1  0
 11 12  1  0
 11 15  2  0
 12 13  2  0
 13 14  1  0
 14  4  1  0
 14 15  1  0
  4  5  2  0
  4  9  1  0
  5  6  1  0
  6  7  2  0
  7  8  1  0
  8  1  1  0
  8  9  2  0
  1  2  2  0
  1  3  1  0
  3 16  1  0
 16 17  1  0
 17 18  2  0
 17 19  2  0
 17 20  1  0
 20 21  2  0
 20 25  1  0
 21 22  1  0
 22 23  2  0
 23 24  1  0
 24 25  2  0
 25 26  1  0
M  END
>  <minimizedAffinity>  (235) 
-9.16966

$$$$
data/200k_reference_output/data/smiles/19470.pdb
     RDKit          3D

 20 22  0  0  0  0  0  0  0  0999 V2000
   69.2001   46.2810   56.4593 C   0  0  0  0  0  0  0  0  0  0  0  0
   70.1914   46.5907   57.3112 N   0  0  0  0  0  0  0  0  0  0  0  0
   70.7452   45.6181   58.0659 C   0  0  0  0  0  0  0  0  0  0  0  0
   70.3187   44.2873   57.9893 C   0  0  0  0  0  0  0  0  0  0  0  0
   69.3094   43.9908   57.1193 C   0  0  0  0  0  0  0  0  0  0  0  0
   68.7914   45.0080   56.3880 N   0  0  0  0  0  0  0  0  0  0  0  0
   68.8116   42.6475   57.0104 C   0  0  0  0  0  0  0  0  0  0  0  0
   67.8060   42.3835   56.0897 C   0  0  0  0  0  0  0  0  0  0  0  0
   67.3200   41.0729   55.9593 C   0  0  0  0  0  0  0  0  0  0  0  0
   67.8234   40.0883   56.7145 N   0  0  0  0  0  0  0  0  0  0  0  0
   68.7960   40.3114   57.6136 C   0  0  0  0  0  0  0  0  0  0  0  0
   69.2840   41.6126   57.7506 C   0  0  0  0  0  0  0  0  0  0  0  0
   68.6306   47.3221   55.6753 N   0  0  0  0  0  0  0  0  0  0  0  0
   70.2790   48.7595   51.3585 N   0  0  0  0  0  0  0  0  0  0  0  0
   69.4699   47.8950   52.1246 C   0  0  0  0  0  0  0  0  0  0  0  0
   68.7036   46.9248   51.4837 C   0  0  0  0  0  0  0  0  0  0  0  0
   67.9153   46.0862   52.2350 C   0  0  0  0  0  0  0  0  0  0  0  0
   67.8882   46.2094   53.6126 C   0  0  0  0  0  0  0  0  0  0  0  0
   68.6392   47.1634   54.2706 C   0  0  0  0  0  0  0  0  0  0  0  0
   69.4295   48.0029   53.5029 C   0  0  0  0  0  0  0  0  0  0  0  0
 14 15  1  0
 15 16  2  0
 15 20  1  0
 16 17  1  0
 17 18  2  0
 18 19  1  0
 19 13  1  0
 19 20  2  0
 13  1  1  0
  1  2  2  0
  1  6  1  0
  2  3  1  0
  3  4  2  0
  4  5  1  0
  5  7  1  0
  5  6  2  0
  7  8  2  0
  7 12  1  0
  8  9  1  0
  9 10  2  0
 10 11  1  0
 11 12  2  0
M  END
>  <minimizedAffinity>  (236) 
-8.60324

$$$$
data/200k_reference_output/data/smiles/19649.pdb
     RDKit          3D

 23 25  0  0  0  0  0  0  0  0999 V2000
   68.0496   44.4708   55.6999 N   0  0  0  0  0  0  0  0  0  0  0  0
   67.8463   45.0240   54.4226 C   0  0  0  0  0  0  0  0  0  0  0  0
   67.0653   44.4185   53.6490 O   0  0  0  0  0  0  0  0  0  0  0  0
   68.4875   46.2496   53.9528 C   0  0  0  0  0  0  0  0  0  0  0  0
   68.6678   47.3600   54.7502 C   0  0  0  0  0  0  0  0  0  0  0  0
   69.2796   48.5044   54.2711 C   0  0  0  0  0  0  0  0  0  0  0  0
   69.7347   48.5888   52.9858 C   0  0  0  0  0  0  0  0  0  0  0  0
   70.3496   49.5029   52.2183 N   0  0  0  0  0  0  0  0  0  0  0  0
   70.5354   49.0070   51.0470 O   0  0  0  0  0  0  0  0  0  0  0  0
   70.0773   47.7895   50.9661 N   0  0  0  0  0  0  0  0  0  0  0  0
   69.5621   47.4876   52.1731 C   0  0  0  0  0  0  0  0  0  0  0  0
   68.9519   46.3497   52.6576 C   0  0  0  0  0  0  0  0  0  0  0  0
   69.4363   42.5031   56.9776 O   0  0  0  0  0  0  0  0  0  0  0  0
   68.1980   42.2887   56.8313 C   0  0  0  0  0  0  0  0  0  0  0  0
   67.4427   43.2977   56.1668 N   0  0  0  0  0  0  0  0  0  0  0  0
   67.6472   41.0887   57.3242 N   0  0  0  0  0  0  0  0  0  0  0  0
   68.4100   40.0865   57.9864 C   0  0  0  0  0  0  0  0  0  0  0  0
   69.7728   39.9801   57.8968 C   0  0  0  0  0  0  0  0  0  0  0  0
   70.4440   38.9806   58.5695 C   0  0  0  0  0  0  0  0  0  0  0  0
   69.7540   38.0704   59.3436 C   0  0  0  0  0  0  0  0  0  0  0  0
   70.5943   36.7849   60.2130 Cl  0  0  0  0  0  0  0  0  0  0  0  0
   68.3781   38.1668   59.4442 C   0  0  0  0  0  0  0  0  0  0  0  0
   67.7233   39.1745   58.7637 C   0  0  0  0  0  0  0  0  0  0  0  0
 13 14  2  0
 14 15  1  0
 14 16  1  0
 15  1  1  0
  1  2  1  0
  2  3  2  0
  2  4  1  0
  4  5  1  0
  4 12  2  0
  5  6  2  0
  6  7  1  0
  7  8  2  0
  7 11  1  0
  8  9  1  0
  9 10  1  0
 10 11  2  0
 11 12  1  0
 16 17  1  0
 17 18  2  0
 17 23  1  0
 18 19  1  0
 19 20  2  0
 20 21  1  0
 20 22  1  0
 22 23  2  0
M  END
>  <minimizedAffinity>  (237) 
-8.59189

$$$$
data/200k_reference_output/data/smiles/19724.pdb
     RDKit          3D

 27 30  0  0  0  0  0  0  0  0999 V2000
   71.2958   46.9103   58.8839 C   0  0  0  0  0  0  0  0  0  0  0  0
   71.4108   45.5158   58.6556 C   0  0  0  0  0  0  0  0  0  0  0  0
   70.6485   44.8456   57.7586 C   0  0  0  0  0  0  0  0  0  0  0  0
   69.6914   45.5495   57.0129 C   0  0  0  0  0  0  0  0  0  0  0  0
   69.5234   46.8883   57.1765 C   0  0  0  0  0  0  0  0  0  0  0  0
   70.3518   47.5297   58.1224 C   0  0  0  0  0  0  0  0  0  0  0  0
   76.6663   49.1812   59.5645 C   0  0  0  0  0  0  0  0  0  0  0  0
   75.5227   50.0350   59.6197 N   0  0  0  0  0  0  0  0  0  0  0  0
   74.6693   49.9758   58.4823 C   0  0  0  0  0  0  0  0  0  0  0  0
   73.8385   48.7458   58.4576 C   0  0  0  0  0  0  0  0  0  0  0  0
   73.3216   48.3310   59.7042 N   0  0  0  0  0  0  0  0  0  0  0  0
   72.1608   47.4895   59.8795 C   0  0  0  0  0  0  0  0  0  0  0  0
   71.8934   47.2447   61.1375 O   0  0  0  0  0  0  0  0  0  0  0  0
   73.9481   48.7334   60.9668 C   0  0  0  0  0  0  0  0  0  0  0  0
   74.7554   49.9581   60.8440 C   0  0  0  0  0  0  0  0  0  0  0  0
   68.4964   47.6961   56.4470 C   0  0  0  0  0  0  0  0  0  0  0  0
   69.0195   47.9768   55.1278 C   0  0  0  0  0  0  0  0  0  0  0  0
   69.9806   48.9480   55.0572 N   0  0  0  0  0  0  0  0  0  0  0  0
   70.5821   49.2364   53.9129 N   0  0  0  0  0  0  0  0  0  0  0  0
   70.3151   48.6238   52.7524 C   0  0  0  0  0  0  0  0  0  0  0  0
   70.8874   48.9033   51.6806 O   0  0  0  0  0  0  0  0  0  0  0  0
   69.3397   47.6269   52.7724 C   0  0  0  0  0  0  0  0  0  0  0  0
   68.9833   46.9503   51.6207 C   0  0  0  0  0  0  0  0  0  0  0  0
   67.9915   45.9743   51.6843 C   0  0  0  0  0  0  0  0  0  0  0  0
   67.3704   45.6892   52.8951 C   0  0  0  0  0  0  0  0  0  0  0  0
   67.7198   46.3535   54.0326 C   0  0  0  0  0  0  0  0  0  0  0  0
   68.7129   47.3242   53.9516 C   0  0  0  0  0  0  0  0  0  0  0  0
  7  8  1  0
  8  9  1  0
  8 15  1  0
  9 10  1  0
 10 11  1  0
 11 12  1  0
 11 14  1  0
 12 13  2  0
 12  1  1  0
  1  2  2  0
  1  6  1  0
  2  3  1  0
  3  4  2  0
  4  5  1  0
  5 16  1  0
  5  6  2  0
 16 17  1  0
 17 18  2  0
 17 27  1  0
 18 19  1  0
 19 20  1  0
 20 21  2  0
 20 22  1  0
 22 23  1  0
 22 27  2  0
 23 24  2  0
 24 25  1  0
 25 26  2  0
 26 27  1  0
 14 15  1  0
M  CHG  1   8   1
M  END
>  <minimizedAffinity>  (238) 
-8.81101

$$$$
data/200k_reference_output/data/smiles/19729.pdb
     RDKit          3D

 26 28  0  0  0  0  0  0  0  0999 V2000
   70.5288   46.0514   58.4428 C   0  0  0  0  0  0  0  0  0  0  0  0
   69.8839   46.9455   57.6281 C   0  0  0  0  0  0  0  0  0  0  0  0
   70.3738   48.1412   57.1754 C   0  0  0  0  0  0  0  0  0  0  0  0
   71.6590   48.4876   57.5844 C   0  0  0  0  0  0  0  0  0  0  0  0
   72.3647   47.6359   58.4038 C   0  0  0  0  0  0  0  0  0  0  0  0
   71.8286   46.4494   58.8290 C   0  0  0  0  0  0  0  0  0  0  0  0
   72.5562   45.6598   59.6233 F   0  0  0  0  0  0  0  0  0  0  0  0
   69.4103   42.4200   58.7089 N   0  0  0  0  0  0  0  0  0  0  0  0
   69.9227   43.6533   58.1656 C   0  0  0  0  0  0  0  0  0  0  0  0
   70.2566   43.5970   56.9784 O   0  0  0  0  0  0  0  0  0  0  0  0
   70.0371   44.8186   58.9064 N   0  0  0  0  0  0  0  0  0  0  0  0
   67.9420   41.0314   57.3021 C   0  0  0  0  0  0  0  0  0  0  0  0
   69.3013   41.2162   57.9092 C   0  0  0  0  0  0  0  0  0  0  0  0
   69.6987   39.9848   58.6864 C   0  0  0  0  0  0  0  0  0  0  0  0
   69.6204   49.0745   56.2640 C   0  0  0  0  0  0  0  0  0  0  0  0
   69.7837   48.7923   54.8484 C   0  0  0  0  0  0  0  0  0  0  0  0
   70.7947   49.3800   54.1663 N   0  0  0  0  0  0  0  0  0  0  0  0
   71.0338   49.1338   52.8855 N   0  0  0  0  0  0  0  0  0  0  0  0
   70.2733   48.2736   52.1799 C   0  0  0  0  0  0  0  0  0  0  0  0
   70.5312   48.0584   50.9474 O   0  0  0  0  0  0  0  0  0  0  0  0
   69.2411   47.6621   52.8370 C   0  0  0  0  0  0  0  0  0  0  0  0
   68.9829   47.9180   54.1912 C   0  0  0  0  0  0  0  0  0  0  0  0
   67.8149   47.2064   54.7172 C   0  0  0  0  0  0  0  0  0  0  0  0
   68.0866   45.7256   54.4315 C   0  0  0  0  0  0  0  0  0  0  0  0
   67.9076   45.5443   52.9235 C   0  0  0  0  0  0  0  0  0  0  0  0
   68.3848   46.7046   52.1200 C   0  0  0  0  0  0  0  0  0  0  0  0
 12 13  1  0
 13 14  1  0
 13  8  1  0
  8  9  1  0
  9 10  2  0
  9 11  1  0
 11  1  1  0
  1  2  2  0
  1  6  1  0
  2  3  1  0
  3 15  1  0
  3  4  2  0
 15 16  1  0
 16 17  2  0
 16 22  1  0
 17 18  1  0
 18 19  1  0
 19 20  2  0
 19 21  1  0
 21 22  2  0
 21 26  1  0
 22 23  1  0
 23 24  1  0
 24 25  1  0
 25 26  1  0
  4  5  1  0
  5  6  2  0
  6  7  1  0
M  END
>  <minimizedAffinity>  (239) 
-8.60484

$$$$
data/200k_reference_output/data/smiles/19758.pdb
     RDKit          3D

 21 22  0  0  0  0  0  0  0  0999 V2000
   68.1594   46.1546   55.8030 N   0  0  0  0  0  0  0  0  0  0  0  0
   69.6963   43.1797   57.3778 C   0  0  0  0  0  0  0  0  0  0  0  0
   70.5562   43.7808   58.2450 C   0  0  0  0  0  0  0  0  0  0  0  0
   70.6189   45.1686   58.2966 C   0  0  0  0  0  0  0  0  0  0  0  0
   69.8259   45.8815   57.4876 N   0  0  0  0  0  0  0  0  0  0  0  0
   68.9566   45.2971   56.6107 C   0  0  0  0  0  0  0  0  0  0  0  0
   68.9311   43.9706   56.5972 N   0  0  0  0  0  0  0  0  0  0  0  0
   69.6041   41.7572   57.2963 N   0  0  0  0  0  0  0  0  0  0  0  0
   68.4042   41.0240   57.5368 C   0  0  0  0  0  0  0  0  0  0  0  0
   67.6615   40.2214   55.3744 O   0  0  0  0  0  0  0  0  0  0  0  0
   67.4849   41.1948   56.3486 C   0  0  0  0  0  0  0  0  0  0  0  0
   68.3422   46.4355   54.4576 C   0  0  0  0  0  0  0  0  0  0  0  0
   67.6894   45.6595   53.5001 C   0  0  0  0  0  0  0  0  0  0  0  0
   67.7793   45.8631   52.1577 C   0  0  0  0  0  0  0  0  0  0  0  0
   68.5715   46.9079   51.7219 C   0  0  0  0  0  0  0  0  0  0  0  0
   69.2438   47.7134   52.6124 C   0  0  0  0  0  0  0  0  0  0  0  0
   69.1089   47.4510   53.9857 C   0  0  0  0  0  0  0  0  0  0  0  0
   70.0708   48.8147   52.1130 C   0  0  0  0  0  0  0  0  0  0  0  0
   70.6774   48.4607   50.9221 F   0  0  0  0  0  0  0  0  0  0  0  0
   71.0312   49.1315   53.0502 F   0  0  0  0  0  0  0  0  0  0  0  0
   69.3399   49.9590   51.8800 F   0  0  0  0  0  0  0  0  0  0  0  0
 10 11  1  0
 11  9  1  0
  9  8  1  0
  8  2  1  0
  2  3  2  0
  2  7  1  0
  3  4  1  0
  4  5  2  0
  5  6  1  0
  6  1  1  0
  6  7  2  0
  1 12  1  0
 12 13  2  0
 12 17  1  0
 13 14  1  0
 14 15  2  0
 15 16  1  0
 16 18  1  0
 16 17  2  0
 18 19  1  0
 18 20  1  0
 18 21  1  0
M  END
>  <minimizedAffinity>  (240) 
-8.50686

$$$$
data/200k_reference_output/data/smiles/19863.pdb
     RDKit          3D

 28 31  0  0  0  0  0  0  0  0999 V2000
   69.8862   47.6650   51.7373 C   0  0  0  0  0  0  0  0  0  0  0  0
   69.0645   48.3296   52.8210 C   0  0  2  0  0  0  0  0  0  0  0  0
   69.6333   49.5852   53.2855 C   0  0  0  0  0  0  0  0  0  0  0  0
   69.9129   50.6318   52.6248 O   0  0  0  0  0  0  0  0  0  0  0  0
   69.8593   49.4887   54.6945 N   0  0  0  0  0  0  0  0  0  0  0  0
   70.3988   50.3795   55.6939 C   0  0  0  0  0  0  0  0  0  0  0  0
   69.8112   50.0721   57.0330 C   0  0  0  0  0  0  0  0  0  0  0  0
   70.0202   48.6171   57.4317 C   0  0  0  0  0  0  0  0  0  0  0  0
   69.4909   47.7174   56.3719 C   0  0  0  0  0  0  0  0  0  0  0  0
   69.0418   46.4398   56.5896 C   0  0  0  0  0  0  0  0  0  0  0  0
   68.5410   45.6330   55.5554 C   0  0  0  0  0  0  0  0  0  0  0  0
   68.5151   46.1785   54.2987 C   0  0  0  0  0  0  0  0  0  0  0  0
   68.9658   47.4856   54.0286 C   0  0  0  0  0  0  0  0  0  0  0  0
   69.4373   48.2059   55.0785 C   0  0  0  0  0  0  0  0  0  0  0  0
   68.1008   44.3397   55.8587 N   0  0  0  0  0  0  0  0  0  0  0  0
   68.7914   43.3394   56.5684 C   0  0  0  0  0  0  0  0  0  0  0  0
   69.9354   43.5783   57.0021 O   0  0  0  0  0  0  0  0  0  0  0  0
   68.1530   42.0181   56.7941 C   0  0  0  0  0  0  0  0  0  0  0  0
   67.0944   41.7384   56.2234 O   0  0  0  0  0  0  0  0  0  0  0  0
   68.7526   41.0676   57.6619 N   0  0  0  0  0  0  0  0  0  0  0  0
   68.2005   39.7809   57.9273 C   0  0  0  0  0  0  0  0  0  0  0  0
   68.5853   39.1969   59.2591 C   0  0  0  0  0  0  0  0  0  0  0  0
   69.7379   38.2766   59.1102 C   0  0  0  0  0  0  0  0  0  0  0  0
   70.7547   38.5325   58.2283 C   0  0  0  0  0  0  0  0  0  0  0  0
   71.8267   37.6524   58.0898 C   0  0  0  0  0  0  0  0  0  0  0  0
   71.8739   36.5032   58.8478 C   0  0  0  0  0  0  0  0  0  0  0  0
   70.8679   36.2292   59.7341 C   0  0  0  0  0  0  0  0  0  0  0  0
   69.8231   37.1053   59.8562 C   0  0  0  0  0  0  0  0  0  0  0  0
  2  1  1  6
  2  3  1  0
  2 13  1  0
  3  4  2  0
  3  5  1  0
  5  6  1  0
  5 14  1  0
  6  7  1  0
  7  8  1  0
  8  9  1  0
  9 10  1  0
  9 14  2  0
 10 11  2  0
 11 15  1  0
 11 12  1  0
 15 16  1  0
 16 17  2  0
 16 18  1  0
 18 19  2  0
 18 20  1  0
 20 21  1  0
 21 22  1  0
 22 23  1  0
 23 24  2  0
 23 28  1  0
 24 25  1  0
 25 26  2  0
 26 27  1  0
 27 28  2  0
 12 13  2  0
 13 14  1  0
M  END
>  <minimizedAffinity>  (241) 
-8.54533

$$$$
data/200k_reference_output/data/smiles/19972.pdb
     RDKit          3D

 26 28  0  0  0  0  0  0  0  0999 V2000
   71.0961   41.8254   58.6171 C   0  0  0  0  0  0  0  0  0  0  0  0
   69.8532   41.4252   57.9156 C   0  0  0  0  0  0  0  0  0  0  0  0
   69.0193   42.2971   57.2500 C   0  0  0  0  0  0  0  0  0  0  0  0
   67.9984   41.4756   56.7569 C   0  0  0  0  0  0  0  0  0  0  0  0
   68.2744   40.2168   57.1425 N   0  0  0  0  0  0  0  0  0  0  0  0
   69.3831   40.1652   57.8384 N   0  0  0  0  0  0  0  0  0  0  0  0
   69.9326   38.9699   58.3816 C   0  0  0  0  0  0  0  0  0  0  0  0
   69.3308   38.2331   59.3828 C   0  0  0  0  0  0  0  0  0  0  0  0
   69.8997   37.0774   59.8824 C   0  0  0  0  0  0  0  0  0  0  0  0
   71.1082   36.6111   59.3885 C   0  0  0  0  0  0  0  0  0  0  0  0
   71.8280   35.1438   60.0220 Cl  0  0  0  0  0  0  0  0  0  0  0  0
   71.7264   37.3334   58.3874 C   0  0  0  0  0  0  0  0  0  0  0  0
   71.1448   38.4980   57.8906 C   0  0  0  0  0  0  0  0  0  0  0  0
   69.1258   43.7462   57.0663 C   0  0  0  0  0  0  0  0  0  0  0  0
   69.8329   44.3901   57.8755 O   0  0  0  0  0  0  0  0  0  0  0  0
   68.4743   44.4545   56.0259 N   0  0  0  0  0  0  0  0  0  0  0  0
   68.5364   45.8636   55.7996 C   0  0  0  0  0  0  0  0  0  0  0  0
   68.5823   46.2689   54.3782 C   0  0  0  0  0  0  0  0  0  0  0  0
   67.8225   45.5579   53.4696 C   0  0  0  0  0  0  0  0  0  0  0  0
   67.8343   45.9195   52.1280 C   0  0  0  0  0  0  0  0  0  0  0  0
   68.5866   46.9696   51.6735 C   0  0  0  0  0  0  0  0  0  0  0  0
   69.3595   47.6997   52.5738 C   0  0  0  0  0  0  0  0  0  0  0  0
   69.3298   47.3199   53.9034 C   0  0  0  0  0  0  0  0  0  0  0  0
   70.1601   48.8219   52.1250 C   0  0  0  0  0  0  0  0  0  0  0  0
   69.7445   49.6325   51.0447 N   0  0  0  0  0  0  0  0  0  0  0  0
   71.2387   49.0814   52.6984 O   0  0  0  0  0  0  0  0  0  0  0  0
  1  2  1  0
  2  3  2  0
  2  6  1  0
  3 14  1  0
  3  4  1  0
 14 15  2  0
 14 16  1  0
 16 17  1  0
 17 18  1  0
 18 19  2  0
 18 23  1  0
 19 20  1  0
 20 21  2  0
 21 22  1  0
 22 24  1  0
 22 23  2  0
 24 25  1  0
 24 26  2  0
  4  5  2  0
  5  6  1  0
  6  7  1  0
  7  8  2  0
  7 13  1  0
  8  9  1  0
  9 10  2  0
 10 11  1  0
 10 12  1  0
 12 13  2  0
M  END
>  <minimizedAffinity>  (242) 
-9.57674

$$$$
data/200k_reference_output/data/smiles/20284.pdb
     RDKit          3D

 29 32  0  0  0  0  0  0  0  0999 V2000
   67.9973   45.5961   54.0372 C   0  0  0  0  0  0  0  0  0  0  0  0
   68.2529   45.8943   52.6907 C   0  0  0  0  0  0  0  0  0  0  0  0
   68.9098   47.0456   52.3213 C   0  0  0  0  0  0  0  0  0  0  0  0
   69.3554   47.9715   53.2432 C   0  0  0  0  0  0  0  0  0  0  0  0
   69.1091   47.6868   54.5700 C   0  0  0  0  0  0  0  0  0  0  0  0
   68.4441   46.5226   54.9465 C   0  0  0  0  0  0  0  0  0  0  0  0
   70.1802   49.4264   52.7165 S   0  0  0  0  0  0  0  0  0  0  0  0
   71.6715   49.1202   52.7555 O   0  0  0  0  0  0  0  0  0  0  0  0
   69.8246   49.7557   51.2907 O   0  0  0  0  0  0  0  0  0  0  0  0
   69.8579   50.7552   53.7864 C   0  0  0  0  0  0  0  0  0  0  0  0
   68.5783   51.1755   54.0295 C   0  0  0  0  0  0  0  0  0  0  0  0
   68.3456   52.2474   54.8965 C   0  0  0  0  0  0  0  0  0  0  0  0
   69.4033   52.8835   55.5067 C   0  0  0  0  0  0  0  0  0  0  0  0
   70.6850   52.4729   55.2732 C   0  0  0  0  0  0  0  0  0  0  0  0
   70.8960   51.4011   54.4045 C   0  0  0  0  0  0  0  0  0  0  0  0
   67.2720   44.3502   54.4000 C   0  0  0  0  0  0  0  0  0  0  0  0
   71.4454   37.2432   58.7677 N   0  0  0  0  0  0  0  0  0  0  0  0
   71.0188   38.5835   58.5434 C   0  0  0  0  0  0  0  0  0  0  0  0
   69.6827   38.8688   58.3424 C   0  0  0  0  0  0  0  0  0  0  0  0
   69.2119   40.1424   58.1217 C   0  0  0  0  0  0  0  0  0  0  0  0
   70.1270   41.1695   58.1023 C   0  0  0  0  0  0  0  0  0  0  0  0
   71.4609   40.8890   58.3021 C   0  0  0  0  0  0  0  0  0  0  0  0
   71.8940   39.6257   58.5174 N   0  0  0  0  0  0  0  0  0  0  0  0
   69.3595   42.4168   57.8465 C   0  0  0  0  0  0  0  0  0  0  0  0
   68.1814   41.9151   57.2033 N   0  0  0  0  0  0  0  0  0  0  0  0
   67.5055   42.4959   56.1264 C   0  0  0  0  0  0  0  0  0  0  0  0
   66.4814   41.9318   55.6809 O   0  0  0  0  0  0  0  0  0  0  0  0
   67.9224   43.7089   55.5015 N   0  0  0  0  0  0  0  0  0  0  0  0
   67.8351   40.7003   57.8799 C   0  0  0  0  0  0  0  0  0  0  0  0
 17 18  1  0
 18 19  2  0
 18 23  1  0
 19 20  1  0
 20 21  2  0
 20 29  1  0
 21 22  1  0
 21 24  1  0
 22 23  2  0
 24 25  1  0
 25 26  1  0
 25 29  1  0
 26 27  2  0
 26 28  1  0
 28 16  1  0
 16  1  1  0
  1  2  2  0
  1  6  1  0
  2  3  1  0
  3  4  2  0
  4  7  1  0
  4  5  1  0
  7  8  2  0
  7  9  2  0
  7 10  1  0
 10 11  2  0
 10 15  1  0
 11 12  1  0
 12 13  2  0
 13 14  1  0
 14 15  2  0
  5  6  2  0
M  END
>  <minimizedAffinity>  (243) 
-8.91870

$$$$
data/200k_reference_output/data/smiles/20738.pdb
     RDKit          3D

 25 27  0  0  0  0  0  0  0  0999 V2000
   69.5241   46.6677   57.0898 C   0  0  0  0  0  0  0  0  0  0  0  0
   70.4735   47.3493   57.8015 C   0  0  0  0  0  0  0  0  0  0  0  0
   71.4373   46.6289   58.4520 C   0  0  0  0  0  0  0  0  0  0  0  0
   71.4314   45.2577   58.3794 C   0  0  0  0  0  0  0  0  0  0  0  0
   70.4890   44.5480   57.6709 C   0  0  0  0  0  0  0  0  0  0  0  0
   69.5279   45.2935   57.0234 C   0  0  0  0  0  0  0  0  0  0  0  0
   70.5489   43.0804   57.6403 C   0  0  2  0  0  0  0  0  0  0  0  0
   69.6483   42.5024   56.7838 O   0  0  0  0  0  0  0  0  0  0  0  0
   68.7710   41.6217   57.2974 C   0  0  1  0  0  0  0  0  0  0  0  0
   68.1692   41.9744   58.6238 C   0  0  1  0  0  0  0  0  0  0  0  0
   67.5571   40.8260   59.1263 O   0  0  0  0  0  0  0  0  0  0  0  0
   69.1856   42.4152   59.6419 C   0  0  2  0  0  0  0  0  0  0  0  0
   68.7618   43.6071   60.2093 O   0  0  0  0  0  0  0  0  0  0  0  0
   70.5346   42.5656   59.0385 C   0  0  1  0  0  0  0  0  0  0  0  0
   71.2736   41.3679   59.1269 O   0  0  0  0  0  0  0  0  0  0  0  0
   67.6035   41.4864   56.3083 C   0  0  0  0  0  0  0  0  0  0  0  0
   67.6880   40.3162   55.5841 O   0  0  0  0  0  0  0  0  0  0  0  0
   68.4455   47.4039   56.3572 C   0  0  0  0  0  0  0  0  0  0  0  0
   70.1229   48.5660   51.8220 C   0  0  0  0  0  0  0  0  0  0  0  0
   69.3400   47.7105   52.7389 C   0  0  0  0  0  0  0  0  0  0  0  0
   68.6650   46.6290   52.2000 C   0  0  0  0  0  0  0  0  0  0  0  0
   67.9228   45.7995   52.9968 C   0  0  0  0  0  0  0  0  0  0  0  0
   67.8613   46.0710   54.3696 C   0  0  0  0  0  0  0  0  0  0  0  0
   68.5240   47.1384   54.9135 C   0  0  0  0  0  0  0  0  0  0  0  0
   69.2588   47.9537   54.1027 C   0  0  0  0  0  0  0  0  0  0  0  0
 19 20  1  0
 20 21  2  0
 20 25  1  0
 21 22  1  0
 22 23  2  0
 23 24  1  0
 24 18  1  0
 24 25  2  0
 18  1  1  0
  1  2  2  0
  1  6  1  0
  2  3  1  0
  3  4  2  0
  4  5  1  0
  7  5  1  1
  5  6  2  0
  7  8  1  0
  7 14  1  0
  8  9  1  0
  9 16  1  6
  9 10  1  0
 16 17  1  0
 10 11  1  1
 10 12  1  0
 12 13  1  6
 12 14  1  0
 14 15  1  6
M  END
>  <minimizedAffinity>  (244) 
-8.65752

$$$$
data/200k_reference_output/data/smiles/20739.pdb
     RDKit          3D

 26 28  0  0  0  0  0  0  0  0999 V2000
   69.9474   47.5113   57.2719 C   0  0  0  0  0  0  0  0  0  0  0  0
   69.5092   45.0755   56.6735 N   0  0  0  0  0  0  0  0  0  0  0  0
   69.7357   46.0960   57.6308 C   0  0  0  0  0  0  0  0  0  0  0  0
   69.7483   45.7254   58.8215 O   0  0  0  0  0  0  0  0  0  0  0  0
   68.9055   40.9899   57.5763 C   0  0  0  0  0  0  0  0  0  0  0  0
   70.0057   41.6654   58.0592 C   0  0  0  0  0  0  0  0  0  0  0  0
   70.1893   43.0008   57.7561 C   0  0  0  0  0  0  0  0  0  0  0  0
   69.3045   43.7238   56.9692 C   0  0  0  0  0  0  0  0  0  0  0  0
   68.2049   43.0329   56.4924 C   0  0  0  0  0  0  0  0  0  0  0  0
   68.0068   41.6927   56.7880 C   0  0  0  0  0  0  0  0  0  0  0  0
   69.5722   38.8702   58.8597 C   0  0  0  0  0  0  0  0  0  0  0  0
   68.6991   39.5913   57.8861 C   0  0  0  0  0  0  0  0  0  0  0  0
   67.7672   38.9667   57.3280 O   0  0  0  0  0  0  0  0  0  0  0  0
   69.3113   48.1580   56.2006 C   0  0  0  0  0  0  0  0  0  0  0  0
   69.5286   48.3016   54.8606 N   0  0  0  0  0  0  0  0  0  0  0  0
   70.3634   49.2540   54.3994 C   0  0  0  0  0  0  0  0  0  0  0  0
   70.9687   50.0810   55.1723 O   0  0  0  0  0  0  0  0  0  0  0  0
   70.6501   49.4443   53.1011 N   0  0  0  0  0  0  0  0  0  0  0  0
   70.1096   48.6818   52.1644 C   0  0  0  0  0  0  0  0  0  0  0  0
   70.4056   48.8957   50.9548 O   0  0  0  0  0  0  0  0  0  0  0  0
   69.2546   47.6966   52.5425 C   0  0  0  0  0  0  0  0  0  0  0  0
   68.6897   46.8983   51.5697 C   0  0  0  0  0  0  0  0  0  0  0  0
   67.8085   45.8753   51.9305 C   0  0  0  0  0  0  0  0  0  0  0  0
   67.5476   45.7232   53.2975 C   0  0  0  0  0  0  0  0  0  0  0  0
   68.1342   46.5437   54.2369 C   0  0  0  0  0  0  0  0  0  0  0  0
   68.9888   47.5353   53.8854 C   0  0  0  0  0  0  0  0  0  0  0  0
 11 12  1  0
 12 13  2  0
 12  5  1  0
  5  6  2  0
  5 10  1  0
  6  7  1  0
  7  8  2  0
  8  2  1  0
  8  9  1  0
  2  3  1  0
  3  4  2  0
  3  1  1  0
  1 14  1  0
 14 15  1  0
 15 16  1  0
 15 26  1  0
 16 17  2  0
 16 18  1  0
 18 19  1  0
 19 20  2  0
 19 21  1  0
 21 22  1  0
 21 26  2  0
 22 23  2  0
 23 24  1  0
 24 25  2  0
 25 26  1  0
  9 10  2  0
M  END
>  <minimizedAffinity>  (245) 
-9.71211

$$$$
data/200k_reference_output/data/smiles/20849.pdb
     RDKit          3D

 20 22  0  0  0  0  0  0  0  0999 V2000
   66.6401   40.9660   55.2618 O   0  0  0  0  0  0  0  0  0  0  0  0
   67.4972   41.4621   56.0531 C   0  0  0  0  0  0  0  0  0  0  0  0
   67.8774   42.7868   56.0611 C   0  0  0  0  0  0  0  0  0  0  0  0
   67.4396   43.7468   55.2809 N   0  0  0  0  0  0  0  0  0  0  0  0
   68.8161   42.8847   57.0671 C   0  0  0  0  0  0  0  0  0  0  0  0
   69.4102   43.9459   57.3926 O   0  0  0  0  0  0  0  0  0  0  0  0
   69.0217   41.6626   57.6734 C   0  0  0  0  0  0  0  0  0  0  0  0
   69.8263   41.2074   58.7017 C   0  0  0  0  0  0  0  0  0  0  0  0
   69.8339   39.8909   59.1190 C   0  0  0  0  0  0  0  0  0  0  0  0
   68.9969   39.0033   58.4723 C   0  0  0  0  0  0  0  0  0  0  0  0
   68.1853   39.4354   57.4421 C   0  0  0  0  0  0  0  0  0  0  0  0
   68.1870   40.7736   57.0280 C   0  0  0  0  0  0  0  0  0  0  0  0
   67.9172   45.0504   55.4029 N   0  0  0  0  0  0  0  0  0  0  0  0
   68.2439   45.8791   54.3125 C   0  0  0  0  0  0  0  0  0  0  0  0
   67.9293   45.4950   53.0370 C   0  0  0  0  0  0  0  0  0  0  0  0
   68.2410   46.2969   51.9327 C   0  0  0  0  0  0  0  0  0  0  0  0
   68.8752   47.4956   52.1291 C   0  0  0  0  0  0  0  0  0  0  0  0
   69.1940   47.8834   53.4197 C   0  0  0  0  0  0  0  0  0  0  0  0
   68.8801   47.0786   54.5142 C   0  0  0  0  0  0  0  0  0  0  0  0
   69.3297   47.6709   56.0910 Cl  0  0  0  0  0  0  0  0  0  0  0  0
  1  2  2  0
  2  3  1  0
  2 12  1  0
  3  4  2  0
  3  5  1  0
  4 13  1  0
 13 14  1  0
 14 15  2  0
 14 19  1  0
 15 16  1  0
 16 17  2  0
 17 18  1  0
 18 19  2  0
 19 20  1  0
  5  6  2  0
  5  7  1  0
  7  8  1  0
  7 12  2  0
  8  9  2  0
  9 10  1  0
 10 11  2  0
 11 12  1  0
M  END
>  <minimizedAffinity>  (246) 
-8.65260

$$$$
data/200k_reference_output/data/smiles/21070.pdb
     RDKit          3D

 26 28  0  0  0  0  0  0  0  0999 V2000
   71.5475   42.7170   57.7564 C   0  0  0  0  0  0  0  0  0  0  0  0
   72.7380   42.1894   57.5358 N   0  0  0  0  0  0  0  0  0  0  0  0
   73.7836   42.6219   57.5997 C   0  0  0  0  0  0  0  0  0  0  0  0
   75.0708   42.4109   57.4642 O   0  0  0  0  0  0  0  0  0  0  0  0
   73.3570   44.4198   58.1422 S   0  0  0  0  0  0  0  0  0  0  0  0
   71.6243   44.0612   58.1394 C   0  0  0  0  0  0  0  0  0  0  0  0
   68.7550   38.8357   58.8846 C   0  0  0  0  0  0  0  0  0  0  0  0
   68.9343   40.1158   58.1561 C   0  0  0  0  0  0  0  0  0  0  0  0
   67.9142   40.6001   57.3634 C   0  0  0  0  0  0  0  0  0  0  0  0
   68.1007   41.7909   56.6974 C   0  0  0  0  0  0  0  0  0  0  0  0
   67.0072   42.3178   55.8427 C   0  0  0  0  0  0  0  0  0  0  0  0
   69.2936   42.4594   56.8426 C   0  0  0  0  0  0  0  0  0  0  0  0
   70.2955   41.9979   57.6123 N   0  0  0  0  0  0  0  0  0  0  0  0
   70.1125   40.8426   58.2576 C   0  0  0  0  0  0  0  0  0  0  0  0
   70.5116   44.9955   58.4789 C   0  0  0  0  0  0  0  0  0  0  0  0
   70.1742   45.8319   57.6025 N   0  0  0  0  0  0  0  0  0  0  0  0
   69.1755   46.7563   57.7508 N   0  0  0  0  0  0  0  0  0  0  0  0
   68.7779   47.6483   56.9215 C   0  0  0  0  0  0  0  0  0  0  0  0
   67.4165   48.7628   57.3612 S   0  0  0  0  0  0  0  0  0  0  0  0
   69.4114   47.7447   55.6509 N   0  0  0  0  0  0  0  0  0  0  0  0
   68.9024   47.1279   54.4896 C   0  0  0  0  0  0  0  0  0  0  0  0
   69.2240   47.6902   53.2652 C   0  0  0  0  0  0  0  0  0  0  0  0
   68.7947   47.1519   52.0672 C   0  0  0  0  0  0  0  0  0  0  0  0
   68.0268   46.0229   52.0898 C   0  0  0  0  0  0  0  0  0  0  0  0
   67.6924   45.4398   53.2923 C   0  0  0  0  0  0  0  0  0  0  0  0
   68.1301   45.9953   54.4613 C   0  0  0  0  0  0  0  0  0  0  0  0
  7  8  1  0
  8  9  2  0
  8 14  1  0
  9 10  1  0
 10 11  1  0
 10 12  2  0
 12 13  1  0
 13  1  1  0
 13 14  2  0
  1  2  1  0
  1  6  2  0
  2  3  1  0
  3  4  2  0
  3  5  1  0
  5  6  1  0
  6 15  1  0
 15 16  2  0
 16 17  1  0
 17 18  2  0
 18 19  1  0
 18 20  1  0
 20 21  1  0
 21 22  2  0
 21 26  1  0
 22 23  1  0
 23 24  2  0
 24 25  1  0
 25 26  2  0
M  CHG  3   2  -1  13   1  17   1
M  END
>  <minimizedAffinity>  (247) 
-8.59837

$$$$
data/200k_reference_output/data/smiles/21154.pdb
     RDKit          3D

 21 23  0  0  0  0  0  0  0  0999 V2000
   70.2847   49.0445   50.9942 O   0  0  0  0  0  0  0  0  0  0  0  0
   69.9572   48.6759   52.1457 C   0  0  0  0  0  0  0  0  0  0  0  0
   70.3914   49.3371   53.3809 C   0  0  0  0  0  0  0  0  0  0  0  0
   71.1267   50.3388   53.4395 O   0  0  0  0  0  0  0  0  0  0  0  0
   69.8024   48.6095   54.4759 N   0  0  0  0  0  0  0  0  0  0  0  0
   69.0201   47.5269   53.9225 C   0  0  0  0  0  0  0  0  0  0  0  0
   68.2404   46.5318   54.4683 C   0  0  0  0  0  0  0  0  0  0  0  0
   67.5636   45.5880   53.6842 C   0  0  0  0  0  0  0  0  0  0  0  0
   67.6845   45.6640   52.3260 C   0  0  0  0  0  0  0  0  0  0  0  0
   67.0406   44.7640   51.5393 F   0  0  0  0  0  0  0  0  0  0  0  0
   68.4544   46.6456   51.7372 C   0  0  0  0  0  0  0  0  0  0  0  0
   69.1088   47.5594   52.5287 C   0  0  0  0  0  0  0  0  0  0  0  0
   69.9631   48.8778   55.8810 C   0  0  0  0  0  0  0  0  0  0  0  0
   68.8130   49.5646   56.5043 C   0  0  0  0  0  0  0  0  0  0  0  0
   68.4870   50.8881   56.3561 C   0  0  0  0  0  0  0  0  0  0  0  0
   69.2623   51.6692   55.5663 F   0  0  0  0  0  0  0  0  0  0  0  0
   67.3640   51.4513   56.9776 C   0  0  0  0  0  0  0  0  0  0  0  0
   66.5303   50.7068   57.7659 C   0  0  0  0  0  0  0  0  0  0  0  0
   66.8322   49.3858   57.9273 C   0  0  0  0  0  0  0  0  0  0  0  0
   67.9373   48.8316   57.3165 C   0  0  0  0  0  0  0  0  0  0  0  0
   68.1943   47.5068   57.4541 F   0  0  0  0  0  0  0  0  0  0  0  0
  1  2  2  0
  2  3  1  0
  2 12  1  0
  3  4  2  0
  3  5  1  0
  5 13  1  0
  5  6  1  0
 13 14  1  0
 14 15  2  0
 14 20  1  0
 15 16  1  0
 15 17  1  0
 17 18  2  0
 18 19  1  0
 19 20  2  0
 20 21  1  0
  6  7  2  0
  6 12  1  0
  7  8  1  0
  8  9  2  0
  9 10  1  0
  9 11  1  0
 11 12  2  0
M  END
>  <minimizedAffinity>  (248) 
-8.90386

$$$$
data/200k_reference_output/data/smiles/21221.pdb
     RDKit          3D

 22 24  0  0  0  0  0  0  0  0999 V2000
   68.2506   44.5238   55.8274 N   0  0  0  0  0  0  0  0  0  0  0  0
   67.8522   45.0136   54.7063 C   0  0  0  0  0  0  0  0  0  0  0  0
   68.3883   46.2385   54.1295 C   0  0  0  0  0  0  0  0  0  0  0  0
   68.4169   47.4343   54.8127 C   0  0  0  0  0  0  0  0  0  0  0  0
   68.9427   48.5847   54.2128 C   0  0  0  0  0  0  0  0  0  0  0  0
   69.4419   48.5532   52.9355 C   0  0  0  0  0  0  0  0  0  0  0  0
   69.4176   47.3530   52.2401 C   0  0  0  0  0  0  0  0  0  0  0  0
   68.8931   46.2267   52.8493 C   0  0  0  0  0  0  0  0  0  0  0  0
   69.9620   47.6278   51.0418 N   0  0  0  0  0  0  0  0  0  0  0  0
   70.2840   48.8866   51.0258 O   0  0  0  0  0  0  0  0  0  0  0  0
   69.9920   49.4719   52.1322 N   0  0  0  0  0  0  0  0  0  0  0  0
   70.1950   50.7870   52.4517 O   0  0  0  0  0  0  0  0  0  0  0  0
   69.7703   42.9918   57.3613 O   0  0  0  0  0  0  0  0  0  0  0  0
   68.5875   42.5587   57.1958 C   0  0  0  0  0  0  0  0  0  0  0  0
   67.7352   43.3484   56.3799 N   0  0  0  0  0  0  0  0  0  0  0  0
   68.1494   41.3162   57.8212 C   0  0  0  0  0  0  0  0  0  0  0  0
   68.6456   40.0747   57.5107 C   0  0  0  0  0  0  0  0  0  0  0  0
   68.2120   38.9196   58.1200 C   0  0  0  0  0  0  0  0  0  0  0  0
   67.2374   38.9940   59.0849 C   0  0  0  0  0  0  0  0  0  0  0  0
   66.6107   37.4015   59.9525 Br  0  0  0  0  0  0  0  0  0  0  0  0
   66.7192   40.2035   59.4215 C   0  0  0  0  0  0  0  0  0  0  0  0
   67.1747   41.3601   58.7905 C   0  0  0  0  0  0  0  0  0  0  0  0
 13 14  2  0
 14 15  1  0
 14 16  1  0
 15  1  1  0
  1  2  2  0
  2  3  1  0
  3  4  1  0
  3  8  2  0
  4  5  2  0
  5  6  1  0
  6  7  1  0
  6 11  2  0
  7  8  1  0
  7  9  2  0
  9 10  1  0
 10 11  1  0
 11 12  1  0
 16 17  2  0
 16 22  1  0
 17 18  1  0
 18 19  2  0
 19 20  1  0
 19 21  1  0
 21 22  2  0
M  CHG  2  11   1  12  -1
M  END
>  <minimizedAffinity>  (249) 
-8.61746

$$$$
data/200k_reference_output/data/smiles/21338.pdb
     RDKit          3D

 29 32  0  0  0  0  0  0  0  0999 V2000
   70.4048   50.2622   57.2801 C   0  0  0  0  0  0  0  0  0  0  0  0
   69.6059   49.2217   57.7044 C   0  0  0  0  0  0  0  0  0  0  0  0
   69.0786   48.3116   56.8083 C   0  0  0  0  0  0  0  0  0  0  0  0
   69.3334   48.4063   55.4358 C   0  0  0  0  0  0  0  0  0  0  0  0
   70.1243   49.4351   55.0122 C   0  0  0  0  0  0  0  0  0  0  0  0
   70.6583   50.3595   55.9343 C   0  0  0  0  0  0  0  0  0  0  0  0
   70.2420   49.3191   53.5473 C   0  0  1  0  0  0  0  0  0  0  0  0
   71.5650   49.2184   53.1264 O   0  0  0  0  0  0  0  0  0  0  0  0
   69.4442   48.1317   53.1915 C   0  0  0  0  0  0  0  0  0  0  0  0
   69.1946   47.5426   51.9377 C   0  0  0  0  0  0  0  0  0  0  0  0
   68.4089   46.4290   51.8860 C   0  0  0  0  0  0  0  0  0  0  0  0
   67.8388   45.8476   53.0225 C   0  0  0  0  0  0  0  0  0  0  0  0
   68.1025   46.4484   54.2283 C   0  0  0  0  0  0  0  0  0  0  0  0
   68.8921   47.5750   54.3237 C   0  0  0  0  0  0  0  0  0  0  0  0
   69.5461   50.5098   52.9122 C   0  0  0  0  0  0  0  0  0  0  0  0
   69.4711   50.3937   51.5412 F   0  0  0  0  0  0  0  0  0  0  0  0
   70.3403   51.6192   53.1898 F   0  0  0  0  0  0  0  0  0  0  0  0
   68.3249   50.7374   53.4744 F   0  0  0  0  0  0  0  0  0  0  0  0
   70.9572   51.2040   58.1522 O   0  0  0  0  0  0  0  0  0  0  0  0
   72.0199   52.0268   57.8441 C   0  0  0  0  0  0  0  0  0  0  0  0
   74.0460   52.8746   58.5769 O   0  0  0  0  0  0  0  0  0  0  0  0
   73.3054   51.8161   58.4852 C   0  0  0  0  0  0  0  0  0  0  0  0
   73.8679   50.6501   59.0138 N   0  0  0  0  0  0  0  0  0  0  0  0
   73.4573   49.2692   59.0559 C   0  0  0  0  0  0  0  0  0  0  0  0
   73.7320   48.8783   60.5138 C   0  0  0  0  0  0  0  0  0  0  0  0
   74.7872   49.8571   60.9817 C   0  0  0  0  0  0  0  0  0  0  0  0
   75.1533   50.6201   59.7587 C   0  0  1  0  0  0  0  0  0  0  0  0
   76.2353   49.9207   58.9824 C   0  0  0  0  0  0  0  0  0  0  0  0
   76.6629   50.6901   57.8973 O   0  0  0  0  0  0  0  0  0  0  0  0
 21 22  2  0
 22 20  1  0
 22 23  1  0
 20 19  1  0
 19  1  1  0
  1  2  2  0
  1  6  1  0
  2  3  1  0
  3  4  2  0
  4  5  1  0
  4 14  1  0
  5  6  2  0
  5  7  1  0
  7  8  1  1
  7 15  1  0
  7  9  1  0
 15 16  1  0
 15 17  1  0
 15 18  1  0
  9 10  1  0
  9 14  2  0
 10 11  2  0
 11 12  1  0
 12 13  2  0
 13 14  1  0
 23 24  1  0
 23 27  1  0
 24 25  1  0
 25 26  1  0
 26 27  1  0
 27 28  1  6
 28 29  1  0
M  END
>  <minimizedAffinity>  (250) 
-8.64651

$$$$
data/200k_reference_output/data/smiles/21480.pdb
     RDKit          3D

 28 32  0  0  0  0  0  0  0  0999 V2000
   69.5754   46.4168   57.2184 C   0  0  0  0  0  0  0  0  0  0  0  0
   69.2681   45.1332   56.9766 N   0  0  0  0  0  0  0  0  0  0  0  0
   70.1899   44.3445   57.5157 N   0  0  0  0  0  0  0  0  0  0  0  0
   71.1285   45.0902   58.1266 C   0  0  0  0  0  0  0  0  0  0  0  0
   72.2823   44.8269   58.8295 C   0  0  0  0  0  0  0  0  0  0  0  0
   73.0457   45.8782   59.3452 C   0  0  0  0  0  0  0  0  0  0  0  0
   72.6860   47.1969   59.1758 C   0  0  0  0  0  0  0  0  0  0  0  0
   71.5250   47.4340   58.4667 C   0  0  0  0  0  0  0  0  0  0  0  0
   70.7476   46.3930   57.9427 C   0  0  0  0  0  0  0  0  0  0  0  0
   73.4888   48.2477   59.7110 N   0  0  0  0  0  0  0  0  0  0  0  0
   73.6934   48.2836   61.1577 C   0  0  0  0  0  0  0  0  0  0  0  0
   74.9320   49.1175   61.4297 C   0  0  0  0  0  0  0  0  0  0  0  0
   74.7447   50.4784   60.9878 N   0  0  0  0  0  0  0  0  0  0  0  0
   74.2292   50.5986   59.6597 C   0  0  0  0  0  0  0  0  0  0  0  0
   74.1090   49.2742   58.9327 C   0  0  0  0  0  0  0  0  0  0  0  0
   69.0175   48.9761   57.7052 O   0  0  0  0  0  0  0  0  0  0  0  0
   68.7092   47.8601   56.7459 S   0  0  0  0  0  0  0  0  0  0  0  0
   67.2628   47.4852   56.7755 O   0  0  0  0  0  0  0  0  0  0  0  0
   69.2663   48.2607   55.1242 C   0  0  0  0  0  0  0  0  0  0  0  0
   70.1265   49.3102   54.8783 C   0  0  0  0  0  0  0  0  0  0  0  0
   70.5477   49.5994   53.5863 C   0  0  0  0  0  0  0  0  0  0  0  0
   70.1013   48.8292   52.5318 C   0  0  0  0  0  0  0  0  0  0  0  0
   69.2311   47.7573   52.7322 C   0  0  0  0  0  0  0  0  0  0  0  0
   68.7854   46.9876   51.6764 C   0  0  0  0  0  0  0  0  0  0  0  0
   67.9268   45.9346   51.8907 C   0  0  0  0  0  0  0  0  0  0  0  0
   67.5325   45.6795   53.1875 C   0  0  0  0  0  0  0  0  0  0  0  0
   67.9795   46.4517   54.2456 C   0  0  0  0  0  0  0  0  0  0  0  0
   68.8442   47.5140   54.0346 C   0  0  0  0  0  0  0  0  0  0  0  0
 16 17  2  0
 17 18  2  0
 17 19  1  0
 17  1  1  0
 19 20  2  0
 19 28  1  0
 20 21  1  0
 21 22  2  0
 22 23  1  0
 23 24  1  0
 23 28  2  0
 24 25  2  0
 25 26  1  0
 26 27  2  0
 27 28  1  0
  1  2  2  0
  1  9  1  0
  2  3  1  0
  3  4  1  0
  4  5  1  0
  4  9  2  0
  5  6  2  0
  6  7  1  0
  7 10  1  0
  7  8  2  0
 10 11  1  0
 10 15  1  0
 11 12  1  0
 12 13  1  0
 13 14  1  0
 14 15  1  0
  8  9  1  0
M  CHG  1  13   1
M  END
>  <minimizedAffinity>  (251) 
-8.80155

$$$$
data/200k_reference_output/data/smiles/21502.pdb
     RDKit          3D

 28 32  0  0  0  0  0  0  0  0999 V2000
   77.5989   36.2520   53.6985 N   0  0  0  0  0  0  0  0  0  0  0  0
   77.0550   35.6137   52.5252 C   0  0  0  0  0  0  0  0  0  0  0  0
   75.9748   34.8996   52.7107 C   0  0  0  0  0  0  0  0  0  0  0  0
   75.3797   34.7894   54.0849 C   0  0  0  0  0  0  0  0  0  0  0  0
   76.0823   34.9859   55.0883 O   0  0  0  0  0  0  0  0  0  0  0  0
   73.9888   34.4558   54.1898 N   0  0  0  0  0  0  0  0  0  0  0  0
   73.2640   34.2500   52.9900 C   0  0  0  0  0  0  0  0  0  0  0  0
   72.0514   33.9482   53.0863 O   0  0  0  0  0  0  0  0  0  0  0  0
   73.8297   34.3657   51.6303 C   0  0  0  0  0  0  0  0  0  0  0  0
   75.3256   34.1889   51.6090 C   0  0  1  0  0  0  0  0  0  0  0  0
   75.9595   34.3691   50.3295 C   0  0  0  0  0  0  0  0  0  0  0  0
   75.4554   33.7671   49.1694 C   0  0  0  0  0  0  0  0  0  0  0  0
   76.0680   33.9321   47.9573 C   0  0  0  0  0  0  0  0  0  0  0  0
   77.2049   34.6917   47.7981 C   0  0  0  0  0  0  0  0  0  0  0  0
   77.7011   35.2831   48.9331 C   0  0  0  0  0  0  0  0  0  0  0  0
   77.0899   35.1286   50.1926 C   0  0  0  0  0  0  0  0  0  0  0  0
   77.6655   35.7697   51.2929 O   0  0  0  0  0  0  0  0  0  0  0  0
   73.3230   34.3046   55.4491 C   0  0  0  0  0  0  0  0  0  0  0  0
   73.1977   35.5707   56.2469 C   0  0  0  0  0  0  0  0  0  0  0  0
   72.4696   35.4587   57.5066 C   0  0  0  0  0  0  0  0  0  0  0  0
   72.3414   34.2768   58.2455 C   0  0  0  0  0  0  0  0  0  0  0  0
   71.5947   34.5286   59.3247 N   0  0  0  0  0  0  0  0  0  0  0  0
   71.2327   35.8282   59.3176 C   0  0  0  0  0  0  0  0  0  0  0  0
   70.4822   36.5906   60.1896 C   0  0  0  0  0  0  0  0  0  0  0  0
   70.2328   37.9423   59.9977 C   0  0  0  0  0  0  0  0  0  0  0  0
   70.7792   38.5108   58.8686 C   0  0  0  0  0  0  0  0  0  0  0  0
   71.5340   37.7794   57.9769 C   0  0  0  0  0  0  0  0  0  0  0  0
   71.7674   36.4204   58.1959 C   0  0  0  0  0  0  0  0  0  0  0  0
  1  2  1  0
  2  3  2  0
  2 17  1  0
  3  4  1  0
  3 10  1  0
  4  5  2  0
  4  6  1  0
  6 18  1  0
  6  7  1  0
 18 19  1  0
 19 20  1  0
 20 21  2  0
 20 28  1  0
 21 22  1  0
 22 23  1  0
 23 24  1  0
 23 28  2  0
 24 25  2  0
 25 26  1  0
 26 27  2  0
 27 28  1  0
  7  8  2  0
  7  9  1  0
 10  9  1  6
 10 11  1  0
 11 12  1  0
 11 16  2  0
 12 13  2  0
 13 14  1  0
 14 15  2  0
 15 16  1  0
 16 17  1  0
M  END
>  <minimizedAffinity>  (252) 
-8.51216

$$$$
data/200k_reference_output/data/smiles/21568.pdb
     RDKit          3D

 27 29  0  0  0  0  0  0  0  0999 V2000
   68.5042   46.9380   53.8805 C   0  0  0  0  0  0  0  0  0  0  0  0
   68.6465   46.5502   52.5676 C   0  0  0  0  0  0  0  0  0  0  0  0
   69.4644   47.2543   51.6804 C   0  0  0  0  0  0  0  0  0  0  0  0
   70.1630   48.3772   52.1112 C   0  0  0  0  0  0  0  0  0  0  0  0
   70.0205   48.7610   53.4161 C   0  0  0  0  0  0  0  0  0  0  0  0
   69.2069   48.0534   54.2814 C   0  0  0  0  0  0  0  0  0  0  0  0
   70.7129   49.9363   53.9700 C   0  0  0  0  0  0  0  0  0  0  0  0
   71.9755   49.8900   53.8781 O   0  0  0  0  0  0  0  0  0  0  0  0
   70.0189   51.0156   54.5495 N   0  0  0  0  0  0  0  0  0  0  0  0
   68.5984   51.1257   54.6898 C   0  0  0  0  0  0  0  0  0  0  0  0
   68.5043   51.6051   56.1480 C   0  0  0  0  0  0  0  0  0  0  0  0
   69.7142   52.5364   56.2560 C   0  0  2  0  0  0  0  0  0  0  0  0
   69.2791   53.8604   56.2109 O   0  0  0  0  0  0  0  0  0  0  0  0
   70.6103   52.1992   55.0917 C   0  0  0  0  0  0  0  0  0  0  0  0
   67.6800   46.2104   54.7286 O   0  0  0  0  0  0  0  0  0  0  0  0
   69.8263   44.3898   57.1377 C   0  0  0  0  0  0  0  0  0  0  0  0
   69.3203   45.4189   56.3504 C   0  0  0  0  0  0  0  0  0  0  0  0
   68.2211   45.2170   55.5320 C   0  0  0  0  0  0  0  0  0  0  0  0
   67.6574   44.0068   55.5163 N   0  0  0  0  0  0  0  0  0  0  0  0
   68.1001   42.9673   56.2555 C   0  0  0  0  0  0  0  0  0  0  0  0
   69.1947   43.1685   57.0717 C   0  0  0  0  0  0  0  0  0  0  0  0
   67.3933   41.6636   56.1532 C   0  0  0  0  0  0  0  0  0  0  0  0
   68.2263   40.6085   55.8964 F   0  0  0  0  0  0  0  0  0  0  0  0
   66.4060   41.7341   55.2055 F   0  0  0  0  0  0  0  0  0  0  0  0
   66.7371   41.3794   57.3618 F   0  0  0  0  0  0  0  0  0  0  0  0
   71.2468   46.0481   58.2470 N   0  0  0  0  0  0  0  0  0  0  0  0
   71.0062   44.6338   58.0012 C   0  0  0  0  0  0  0  0  0  0  0  0
 26 27  1  0
 27 16  1  0
 16 17  2  0
 16 21  1  0
 17 18  1  0
 18 15  1  0
 18 19  2  0
 15  1  1  0
  1  2  2  0
  1  6  1  0
  2  3  1  0
  3  4  2  0
  4  5  1  0
  5  7  1  0
  5  6  2  0
  7  8  2  0
  7  9  1  0
  9 10  1  0
  9 14  1  0
 10 11  1  0
 11 12  1  0
 12 13  1  6
 12 14  1  0
 19 20  1  0
 20 22  1  0
 20 21  2  0
 22 23  1  0
 22 24  1  0
 22 25  1  0
M  CHG  1  26   1
M  END
>  <minimizedAffinity>  (253) 
-8.74553

$$$$
data/200k_reference_output/data/smiles/21786.pdb
     RDKit          3D

 19 20  0  0  0  0  0  0  0  0999 V2000
   69.2473   47.6613   52.7321 C   0  0  0  0  0  0  0  0  0  0  0  0
   69.3944   47.5756   54.0768 N   0  0  0  0  0  0  0  0  0  0  0  0
   68.7771   46.6994   54.8468 C   0  0  0  0  0  0  0  0  0  0  0  0
   67.9336   45.8224   54.2364 N   0  0  0  0  0  0  0  0  0  0  0  0
   67.7504   45.8610   52.9180 C   0  0  0  0  0  0  0  0  0  0  0  0
   66.9627   45.0421   52.3479 O   0  0  0  0  0  0  0  0  0  0  0  0
   68.3925   46.7726   52.1122 C   0  0  0  0  0  0  0  0  0  0  0  0
   68.1662   46.7702   50.7398 O   0  0  0  0  0  0  0  0  0  0  0  0
   70.5832   48.2545   50.9190 O   0  0  0  0  0  0  0  0  0  0  0  0
   69.9539   48.6454   51.9303 C   0  0  0  0  0  0  0  0  0  0  0  0
   69.9788   50.0009   52.2093 O   0  0  0  0  0  0  0  0  0  0  0  0
   68.9488   46.6230   56.2909 C   0  0  0  0  0  0  0  0  0  0  0  0
   69.5447   47.7978   56.9484 C   0  0  0  0  0  0  0  0  0  0  0  0
   68.5920   48.9200   57.1133 C   0  0  0  0  0  0  0  0  0  0  0  0
   67.4071   48.8360   57.7933 C   0  0  0  0  0  0  0  0  0  0  0  0
   66.5417   49.8976   57.9720 C   0  0  0  0  0  0  0  0  0  0  0  0
   66.8556   51.1213   57.4498 C   0  0  0  0  0  0  0  0  0  0  0  0
   68.0454   51.2375   56.7563 C   0  0  0  0  0  0  0  0  0  0  0  0
   68.8954   50.1820   56.5849 C   0  0  0  0  0  0  0  0  0  0  0  0
  9 10  2  0
 10 11  1  0
 10  1  1  0
  1  2  1  0
  1  7  2  0
  2  3  2  0
  3 12  1  0
  3  4  1  0
 12 13  1  0
 13 14  1  0
 14 15  2  0
 14 19  1  0
 15 16  1  0
 16 17  2  0
 17 18  1  0
 18 19  2  0
  4  5  1  0
  5  6  2  0
  5  7  1  0
  7  8  1  0
M  END
>  <minimizedAffinity>  (254) 
-8.61104

$$$$
data/200k_reference_output/data/smiles/21797.pdb
     RDKit          3D

 31 35  0  0  0  0  0  0  0  0999 V2000
   73.9478   35.3142   55.3847 N   0  0  0  0  0  0  0  0  0  0  0  0
   75.3946   35.2325   55.4268 C   0  0  0  0  0  0  0  0  0  0  0  0
   75.9802   34.9604   54.0654 C   0  0  0  0  0  0  0  0  0  0  0  0
   75.0711   34.1281   53.2581 N   0  0  1  0  0  0  0  0  0  0  0  0
   74.0194   35.0761   52.8489 C   0  0  0  0  0  0  0  0  0  0  0  0
   73.3025   35.4380   54.1236 C   0  0  0  0  0  0  0  0  0  0  0  0
   72.1164   35.8591   54.1209 O   0  0  0  0  0  0  0  0  0  0  0  0
   67.7059   35.9977   61.1603 C   0  0  0  0  0  0  0  0  0  0  0  0
   68.9877   36.4563   61.8436 C   0  0  2  0  0  0  0  0  0  0  0  0
   69.7223   37.4856   61.0261 C   0  0  0  0  0  0  0  0  0  0  0  0
   70.5638   36.8249   59.9801 C   0  0  0  0  0  0  0  0  0  0  0  0
   70.8388   35.4742   60.0134 C   0  0  0  0  0  0  0  0  0  0  0  0
   71.6340   35.1769   58.9155 C   0  0  0  0  0  0  0  0  0  0  0  0
   72.2157   34.0361   58.4167 C   0  0  0  0  0  0  0  0  0  0  0  0
   72.9724   34.0876   57.2623 C   0  0  0  0  0  0  0  0  0  0  0  0
   73.1651   35.2711   56.5815 C   0  0  0  0  0  0  0  0  0  0  0  0
   72.5826   36.3645   57.0967 N   0  0  0  0  0  0  0  0  0  0  0  0
   71.8329   36.3540   58.2265 C   0  0  0  0  0  0  0  0  0  0  0  0
   71.1692   37.3091   58.9103 N   0  0  0  0  0  0  0  0  0  0  0  0
   71.1519   38.7082   58.4731 C   0  0  0  0  0  0  0  0  0  0  0  0
   70.3203   34.5981   61.0814 C   0  0  0  0  0  0  0  0  0  0  0  0
   69.8193   35.3333   62.1976 N   0  0  0  0  0  0  0  0  0  0  0  0
   75.8409   33.7201   52.1078 C   0  0  0  0  0  0  0  0  0  0  0  0
   76.8477   34.7404   51.6541 C   0  0  0  0  0  0  0  0  0  0  0  0
   76.9872   34.8040   50.1836 C   0  0  0  0  0  0  0  0  0  0  0  0
   77.8955   35.6440   49.5732 C   0  0  0  0  0  0  0  0  0  0  0  0
   78.0284   35.7065   48.1956 C   0  0  0  0  0  0  0  0  0  0  0  0
   77.2519   34.9247   47.3844 C   0  0  0  0  0  0  0  0  0  0  0  0
   77.4159   35.0175   46.0397 F   0  0  0  0  0  0  0  0  0  0  0  0
   76.3334   34.0723   47.9702 C   0  0  0  0  0  0  0  0  0  0  0  0
   76.2124   34.0212   49.3574 C   0  0  0  0  0  0  0  0  0  0  0  0
  9  8  1  6
  9 10  1  0
  9 22  1  0
 10 11  1  0
 11 12  2  0
 11 19  1  0
 12 13  1  0
 12 21  1  0
 13 14  2  0
 13 18  1  0
 14 15  1  0
 15 16  2  0
 16  1  1  0
 16 17  1  0
  1  2  1  0
  1  6  1  0
  2  3  1  0
  3  4  1  0
  4 23  1  6
  4  5  1  0
 23 24  1  0
 24 25  1  0
 25 26  2  0
 25 31  1  0
 26 27  1  0
 27 28  2  0
 28 29  1  0
 28 30  1  0
 30 31  2  0
  5  6  1  0
  6  7  2  0
 17 18  2  0
 18 19  1  0
 19 20  1  0
 21 22  1  0
M  CHG  2   4   1  22   1
M  END
>  <minimizedAffinity>  (255) 
-8.66545

$$$$
data/200k_reference_output/data/smiles/21875.pdb
     RDKit          3D

 30 33  0  0  0  0  0  0  0  0999 V2000
   69.6215   44.3873   59.3248 O   0  0  0  0  0  0  0  0  0  0  0  0
   70.6506   44.9639   58.9418 C   0  0  0  0  0  0  0  0  0  0  0  0
   71.8931   44.5277   59.4175 N   0  0  0  0  0  0  0  0  0  0  0  0
   73.1023   45.1802   58.9898 C   0  0  0  0  0  0  0  0  0  0  0  0
   73.8985   45.6231   60.1619 C   0  0  0  0  0  0  0  0  0  0  0  0
   73.5213   45.0700   61.4362 N   0  0  0  0  0  0  0  0  0  0  0  0
   72.5579   44.0247   61.6369 C   0  0  0  0  0  0  0  0  0  0  0  0
   72.0240   43.4311   60.3397 C   0  0  0  0  0  0  0  0  0  0  0  0
   74.1783   45.6154   62.5805 C   0  0  0  0  0  0  0  0  0  0  0  0
   75.0258   44.8328   63.3718 C   0  0  0  0  0  0  0  0  0  0  0  0
   75.6761   45.2852   64.4742 C   0  0  0  0  0  0  0  0  0  0  0  0
   75.4995   46.5947   64.8502 C   0  0  0  0  0  0  0  0  0  0  0  0
   74.6922   47.4140   64.1305 C   0  0  0  0  0  0  0  0  0  0  0  0
   74.0421   46.9153   63.0059 C   0  0  0  0  0  0  0  0  0  0  0  0
   73.2579   47.7846   62.3349 F   0  0  0  0  0  0  0  0  0  0  0  0
   70.5284   46.0976   57.9912 C   0  0  0  0  0  0  0  0  0  0  0  0
   69.3447   45.9537   57.1695 N   0  0  0  0  0  0  0  0  0  0  0  0
   68.8408   47.4289   56.5803 S   0  0  0  0  0  0  0  0  0  0  0  0
   67.3440   47.5717   56.8464 O   0  0  0  0  0  0  0  0  0  0  0  0
   69.4463   48.4667   57.5363 O   0  0  0  0  0  0  0  0  0  0  0  0
   69.1839   47.9187   55.0097 C   0  0  0  0  0  0  0  0  0  0  0  0
   69.9198   49.0560   54.7610 C   0  0  0  0  0  0  0  0  0  0  0  0
   70.2084   49.4702   53.4773 C   0  0  0  0  0  0  0  0  0  0  0  0
   69.7633   48.7502   52.4047 C   0  0  0  0  0  0  0  0  0  0  0  0
   69.0210   47.6010   52.6150 C   0  0  0  0  0  0  0  0  0  0  0  0
   68.5483   46.8397   51.5663 C   0  0  0  0  0  0  0  0  0  0  0  0
   67.8293   45.7295   51.8251 N   0  0  0  0  0  0  0  0  0  0  0  0
   67.5521   45.3313   53.0784 C   0  0  0  0  0  0  0  0  0  0  0  0
   68.0191   46.0849   54.1303 C   0  0  0  0  0  0  0  0  0  0  0  0
   68.7485   47.2130   53.9110 C   0  0  0  0  0  0  0  0  0  0  0  0
  1  2  2  0
  2 16  1  0
  2  3  1  0
 16 17  1  0
 17 18  1  0
 18 19  2  0
 18 20  2  0
 18 21  1  0
 21 22  2  0
 21 30  1  0
 22 23  1  0
 23 24  2  0
 24 25  1  0
 25 26  1  0
 25 30  2  0
 26 27  2  0
 27 28  1  0
 28 29  2  0
 29 30  1  0
  3  4  1  0
  3  8  1  0
  4  5  1  0
  5  6  1  0
  6  9  1  0
  6  7  1  0
  9 10  2  0
  9 14  1  0
 10 11  1  0
 11 12  2  0
 12 13  1  0
 13 14  2  0
 14 15  1  0
  7  8  1  0
M  END
>  <minimizedAffinity>  (256) 
-8.58875

$$$$
data/200k_reference_output/data/smiles/21896.pdb
     RDKit          3D

 30 33  0  0  0  0  0  0  0  0999 V2000
   70.0262   41.5227   61.0118 C   0  0  0  0  0  0  0  0  0  0  0  0
   69.8067   41.3150   59.5310 C   0  0  2  0  0  0  0  0  0  0  0  0
   68.5896   42.1306   59.0892 C   0  0  0  0  0  0  0  0  0  0  0  0
   68.0173   41.5946   57.8921 N   0  0  0  0  0  0  0  0  0  0  0  0
   67.9560   42.1428   56.6115 C   0  0  0  0  0  0  0  0  0  0  0  0
   67.3807   41.5044   55.6839 O   0  0  0  0  0  0  0  0  0  0  0  0
   67.4219   40.2432   58.0711 C   0  0  0  0  0  0  0  0  0  0  0  0
   68.1871   39.5050   59.1567 C   0  0  0  0  0  0  0  0  0  0  0  0
   69.5684   39.8923   59.2312 N   0  0  0  0  0  0  0  0  0  0  0  0
   70.6541   39.0091   59.0312 C   0  0  0  0  0  0  0  0  0  0  0  0
   71.9547   39.4473   58.9990 C   0  0  0  0  0  0  0  0  0  0  0  0
   73.0445   38.5912   58.7953 C   0  0  0  0  0  0  0  0  0  0  0  0
   72.8061   37.2539   58.6210 C   0  0  0  0  0  0  0  0  0  0  0  0
   73.8831   36.4346   58.4240 F   0  0  0  0  0  0  0  0  0  0  0  0
   71.5166   36.7837   58.6479 C   0  0  0  0  0  0  0  0  0  0  0  0
   71.2967   35.4681   58.4745 F   0  0  0  0  0  0  0  0  0  0  0  0
   70.4612   37.6405   58.8482 C   0  0  0  0  0  0  0  0  0  0  0  0
   68.5277   43.4303   56.2788 C   0  0  0  0  0  0  0  0  0  0  0  0
   69.6444   43.7577   56.7252 O   0  0  0  0  0  0  0  0  0  0  0  0
   67.8565   44.3637   55.4444 N   0  0  0  0  0  0  0  0  0  0  0  0
   68.3043   45.6372   55.0497 C   0  0  0  0  0  0  0  0  0  0  0  0
   68.5817   46.7100   55.8491 C   0  0  0  0  0  0  0  0  0  0  0  0
   69.0251   47.9474   55.3655 C   0  0  0  0  0  0  0  0  0  0  0  0
   69.1971   48.1152   54.0114 C   0  0  0  0  0  0  0  0  0  0  0  0
   69.5993   49.1504   53.2489 N   0  0  0  0  0  0  0  0  0  0  0  0
   69.5726   48.7273   51.9850 C   0  0  0  0  0  0  0  0  0  0  0  0
   69.8944   49.4482   50.9793 O   0  0  0  0  0  0  0  0  0  0  0  0
   69.1703   47.4833   51.9711 O   0  0  0  0  0  0  0  0  0  0  0  0
   68.9254   47.0516   53.1814 C   0  0  0  0  0  0  0  0  0  0  0  0
   68.4914   45.8460   53.6807 C   0  0  0  0  0  0  0  0  0  0  0  0
  2  1  1  1
  2  3  1  0
  2  9  1  0
  3  4  1  0
  4  5  1  0
  4  7  1  0
  5  6  2  0
  5 18  1  0
 18 19  2  0
 18 20  1  0
 20 21  1  0
 21 22  2  0
 21 30  1  0
 22 23  1  0
 23 24  2  0
 24 25  1  0
 24 29  1  0
 25 26  1  0
 26 27  2  0
 26 28  1  0
 28 29  1  0
 29 30  2  0
  7  8  1  0
  8  9  1  0
  9 10  1  0
 10 11  2  0
 10 17  1  0
 11 12  1  0
 12 13  2  0
 13 14  1  0
 13 15  1  0
 15 16  1  0
 15 17  2  0
M  END
>  <minimizedAffinity>  (257) 
-8.60921

$$$$
data/200k_reference_output/data/smiles/21911.pdb
     RDKit          3D

 28 31  0  0  0  0  0  0  0  0999 V2000
   69.2463   42.9852   57.2320 C   0  0  0  0  0  0  0  0  0  0  0  0
   68.1010   42.2763   56.9079 C   0  0  0  0  0  0  0  0  0  0  0  0
   67.9370   40.9662   57.3012 C   0  0  0  0  0  0  0  0  0  0  0  0
   68.8934   40.2952   58.0317 C   0  0  0  0  0  0  0  0  0  0  0  0
   70.0402   40.9828   58.3643 C   0  0  0  0  0  0  0  0  0  0  0  0
   70.1883   42.2961   57.9615 C   0  0  0  0  0  0  0  0  0  0  0  0
   70.8648   40.0488   59.1229 C   0  0  0  0  0  0  0  0  0  0  0  0
   71.9922   40.3513   59.5860 O   0  0  0  0  0  0  0  0  0  0  0  0
   70.2119   38.7896   59.2502 N   0  0  0  0  0  0  0  0  0  0  0  0
   68.9717   38.9301   58.5687 C   0  0  0  0  0  0  0  0  0  0  0  0
   68.1031   38.0358   58.4535 O   0  0  0  0  0  0  0  0  0  0  0  0
   70.4242   44.9802   57.2158 O   0  0  0  0  0  0  0  0  0  0  0  0
   69.3928   44.3730   56.8019 C   0  0  0  0  0  0  0  0  0  0  0  0
   68.4645   45.0322   55.9770 N   0  0  0  0  0  0  0  0  0  0  0  0
   68.6102   46.4066   55.5543 C   0  0  0  0  0  0  0  0  0  0  0  0
   68.5360   46.5533   54.0746 C   0  0  0  0  0  0  0  0  0  0  0  0
   69.3017   47.5374   53.4433 C   0  0  0  0  0  0  0  0  0  0  0  0
   69.1947   47.6501   52.0811 C   0  0  0  0  0  0  0  0  0  0  0  0
   68.3736   46.8397   51.3281 C   0  0  0  0  0  0  0  0  0  0  0  0
   67.6571   45.9125   51.9592 N   0  0  0  0  0  0  0  0  0  0  0  0
   67.7234   45.7556   53.3080 C   0  0  0  0  0  0  0  0  0  0  0  0
   70.7587   37.6362   59.9481 C   0  0  0  0  0  0  0  0  0  0  0  0
   71.4445   36.7042   59.0191 C   0  0  0  0  0  0  0  0  0  0  0  0
   72.0799   37.1419   57.8804 C   0  0  0  0  0  0  0  0  0  0  0  0
   72.7161   36.2293   57.0297 C   0  0  0  0  0  0  0  0  0  0  0  0
   72.7168   34.8677   57.3218 C   0  0  0  0  0  0  0  0  0  0  0  0
   72.0791   34.4327   58.4658 C   0  0  0  0  0  0  0  0  0  0  0  0
   71.4568   35.3600   59.2900 C   0  0  0  0  0  0  0  0  0  0  0  0
 12 13  2  0
 13 14  1  0
 13  1  1  0
 14 15  1  0
 15 16  1  0
 16 17  2  0
 16 21  1  0
 17 18  1  0
 18 19  2  0
 19 20  1  0
 20 21  2  0
  1  2  2  0
  1  6  1  0
  2  3  1  0
  3  4  2  0
  4  5  1  0
  4 10  1  0
  5  6  2  0
  5  7  1  0
  7  8  2  0
  7  9  1  0
  9 22  1  0
  9 10  1  0
 22 23  1  0
 23 24  2  0
 23 28  1  0
 24 25  1  0
 25 26  2  0
 26 27  1  0
 27 28  2  0
 10 11  2  0
M  END
>  <minimizedAffinity>  (258) 
-8.88243

$$$$
data/200k_reference_output/data/smiles/21942.pdb
     RDKit          3D

 22 23  0  0  0  0  0  0  0  0999 V2000
   71.5972   49.9343   53.9824 N   0  0  0  0  0  0  0  0  0  0  0  0
   70.4939   50.7192   53.5585 C   0  0  0  0  0  0  0  0  0  0  0  0
   69.6434   50.2137   52.7326 N   0  0  0  0  0  0  0  0  0  0  0  0
   69.7782   48.8992   52.2354 C   0  0  0  0  0  0  0  0  0  0  0  0
   70.4560   48.7086   51.1696 O   0  0  0  0  0  0  0  0  0  0  0  0
   69.1818   47.7549   52.8808 C   0  0  0  0  0  0  0  0  0  0  0  0
   69.3578   47.5287   54.2399 C   0  0  0  0  0  0  0  0  0  0  0  0
   68.8167   46.4640   54.9013 C   0  0  0  0  0  0  0  0  0  0  0  0
   69.1011   46.2673   56.6313 Cl  0  0  0  0  0  0  0  0  0  0  0  0
   68.0507   45.5504   54.1985 C   0  0  0  0  0  0  0  0  0  0  0  0
   67.8730   45.7718   52.8468 C   0  0  0  0  0  0  0  0  0  0  0  0
   68.4168   46.8438   52.1778 C   0  0  0  0  0  0  0  0  0  0  0  0
   68.2193   47.0382   50.8130 O   0  0  0  0  0  0  0  0  0  0  0  0
   70.2741   52.0449   53.9985 N   0  0  0  0  0  0  0  0  0  0  0  0
   69.0028   52.3729   54.5833 C   0  0  0  0  0  0  0  0  0  0  0  0
   69.1053   52.4478   56.1143 C   0  0  0  0  0  0  0  0  0  0  0  0
   68.3681   51.3440   56.7469 C   0  0  0  0  0  0  0  0  0  0  0  0
   67.0632   51.4835   57.1748 C   0  0  0  0  0  0  0  0  0  0  0  0
   66.3798   50.4536   57.7652 C   0  0  0  0  0  0  0  0  0  0  0  0
   66.9807   49.2214   57.9553 C   0  0  0  0  0  0  0  0  0  0  0  0
   68.2779   49.0552   57.5388 C   0  0  0  0  0  0  0  0  0  0  0  0
   68.9605   50.0942   56.9462 C   0  0  0  0  0  0  0  0  0  0  0  0
  1  2  1  0
  2  3  2  0
  2 14  1  0
  3  4  1  0
  4  5  2  0
  4  6  1  0
  6  7  2  0
  6 12  1  0
  7  8  1  0
  8  9  1  0
  8 10  2  0
 10 11  1  0
 11 12  2  0
 12 13  1  0
 14 15  1  0
 15 16  1  0
 16 17  1  0
 17 18  2  0
 17 22  1  0
 18 19  1  0
 19 20  2  0
 20 21  1  0
 21 22  2  0
M  CHG  1   3   1
M  END
>  <minimizedAffinity>  (259) 
-8.74825

$$$$
data/200k_reference_output/data/smiles/21951.pdb
     RDKit          3D

 26 30  0  0  0  0  0  0  0  0999 V2000
   69.5041   43.2765   57.2677 C   0  0  0  0  0  0  0  0  0  0  0  0
   68.2888   42.8592   56.5338 C   0  0  0  0  0  0  0  0  0  0  0  0
   67.6020   41.6654   56.7318 C   0  0  0  0  0  0  0  0  0  0  0  0
   66.5546   41.7201   55.8341 C   0  0  0  0  0  0  0  0  0  0  0  0
   66.6517   42.8846   55.1698 N   0  0  0  0  0  0  0  0  0  0  0  0
   67.6966   43.5845   55.5822 N   0  0  0  0  0  0  0  0  0  0  0  0
   67.9521   40.6251   57.6864 C   0  0  0  0  0  0  0  0  0  0  0  0
   68.6256   39.6422   57.2975 O   0  0  0  0  0  0  0  0  0  0  0  0
   67.5655   40.6678   59.0487 N   0  0  0  0  0  0  0  0  0  0  0  0
   66.8057   41.6154   59.8391 C   0  0  0  0  0  0  0  0  0  0  0  0
   67.3118   41.0153   61.1314 C   0  0  0  0  0  0  0  0  0  0  0  0
   66.2812   40.7173   62.1680 C   0  0  0  0  0  0  0  0  0  0  0  0
   66.8785   41.1725   63.4814 C   0  0  0  0  0  0  0  0  0  0  0  0
   67.8380   42.2608   63.1284 C   0  0  0  0  0  0  0  0  0  0  0  0
   68.4242   41.7483   61.8068 C   0  0  0  0  0  0  0  0  0  0  0  0
   67.7180   39.8613   60.2422 C   0  0  0  0  0  0  0  0  0  0  0  0
   68.1135   44.8612   55.1097 C   0  0  0  0  0  0  0  0  0  0  0  0
   68.2548   45.1715   53.8153 N   0  0  0  0  0  0  0  0  0  0  0  0
   68.6489   46.3769   53.3635 C   0  0  0  0  0  0  0  0  0  0  0  0
   68.9228   47.3457   54.3058 C   0  0  0  0  0  0  0  0  0  0  0  0
   68.7855   47.0519   55.6516 C   0  0  0  0  0  0  0  0  0  0  0  0
   69.0381   47.9431   56.5076 O   0  0  0  0  0  0  0  0  0  0  0  0
   68.3860   45.8198   56.0118 N   0  0  0  0  0  0  0  0  0  0  0  0
   69.3442   48.6136   53.6584 C   0  0  0  0  0  0  0  0  0  0  0  0
   69.5446   48.2502   52.2243 C   0  0  0  0  0  0  0  0  0  0  0  0
   68.8718   46.9396   51.9822 C   0  0  0  0  0  0  0  0  0  0  0  0
  1  2  1  0
  2  3  2  0
  2  6  1  0
  3  7  1  0
  3  4  1  0
  7  8  2  0
  7  9  1  0
  9 10  1  0
  9 16  1  0
 10 11  1  0
 11 12  1  0
 11 15  1  0
 11 16  1  0
 12 13  1  0
 13 14  1  0
 14 15  1  0
  4  5  2  0
  5  6  1  0
  6 17  1  0
 17 18  2  0
 17 23  1  0
 18 19  1  0
 19 20  2  0
 19 26  1  0
 20 21  1  0
 20 24  1  0
 21 22  2  0
 21 23  1  0
 24 25  1  0
 25 26  1  0
M  END
>  <minimizedAffinity>  (260) 
-8.68163

$$$$
data/200k_reference_output/data/smiles/21959.pdb
     RDKit          3D

 24 26  0  0  0  0  0  0  0  0999 V2000
   68.0500   46.6940   54.4502 C   0  0  2  0  0  0  0  0  0  0  0  0
   67.7233   46.2307   53.0835 C   0  0  0  0  0  0  0  0  0  0  0  0
   68.7223   46.4785   52.0094 C   0  0  0  0  0  0  0  0  0  0  0  0
   69.4769   47.7590   52.1272 C   0  0  0  0  0  0  0  0  0  0  0  0
   69.1620   48.5261   53.2953 N   0  0  0  0  0  0  0  0  0  0  0  0
   69.0687   47.7738   54.4958 C   0  0  0  0  0  0  0  0  0  0  0  0
   69.2503   45.6966   56.2806 O   0  0  0  0  0  0  0  0  0  0  0  0
   68.4130   45.5502   55.3603 C   0  0  0  0  0  0  0  0  0  0  0  0
   67.8248   44.2613   55.2130 N   0  0  0  0  0  0  0  0  0  0  0  0
   68.1704   43.1746   56.0759 C   0  0  0  0  0  0  0  0  0  0  0  0
   67.4476   42.0173   56.1633 C   0  0  0  0  0  0  0  0  0  0  0  0
   67.8338   41.0065   57.0194 C   0  0  0  0  0  0  0  0  0  0  0  0
   68.9512   41.1039   57.8230 C   0  0  0  0  0  0  0  0  0  0  0  0
   69.6827   42.2727   57.7372 C   0  0  0  0  0  0  0  0  0  0  0  0
   70.7915   42.3932   58.5219 F   0  0  0  0  0  0  0  0  0  0  0  0
   69.2954   43.2956   56.8733 C   0  0  0  0  0  0  0  0  0  0  0  0
   69.9854   50.0012   53.3983 S   0  0  0  0  0  0  0  0  0  0  0  0
   71.4281   49.7006   53.7263 O   0  0  0  0  0  0  0  0  0  0  0  0
   69.9640   50.6838   52.0664 O   0  0  0  0  0  0  0  0  0  0  0  0
   69.3372   51.0773   54.6109 C   0  0  0  0  0  0  0  0  0  0  0  0
   69.3515   52.4536   54.5560 C   0  0  0  0  0  0  0  0  0  0  0  0
   68.7557   52.8964   55.6768 N   0  0  0  0  0  0  0  0  0  0  0  0
   68.3751   51.8441   56.4156 C   0  0  0  0  0  0  0  0  0  0  0  0
   68.7369   50.7402   55.7511 N   0  0  0  0  0  0  0  0  0  0  0  0
  7  8  2  0
  8  9  1  0
  1  8  1  1
  9 10  1  0
 10 11  2  0
 10 16  1  0
 11 12  1  0
 12 13  2  0
 13 14  1  0
 14 15  1  0
 14 16  2  0
  1  2  1  0
  1  6  1  0
  2  3  1  0
  3  4  1  0
  4  5  1  0
  5 17  1  0
  5  6  1  0
 17 18  2  0
 17 19  2  0
 17 20  1  0
 20 21  2  0
 20 24  1  0
 21 22  1  0
 22 23  1  0
 23 24  2  0
M  CHG  1  24   1
M  END
>  <minimizedAffinity>  (261) 
-8.62474

$$$$
data/200k_reference_output/data/smiles/21970.pdb
     RDKit          3D

 25 27  0  0  0  0  0  0  0  0999 V2000
   68.2231   43.6831   55.8601 C   0  0  0  0  0  0  0  0  0  0  0  0
   67.2098   42.7630   55.6502 C   0  0  0  0  0  0  0  0  0  0  0  0
   67.4659   41.7119   56.4999 C   0  0  0  0  0  0  0  0  0  0  0  0
   68.6154   42.0088   57.2003 C   0  0  0  0  0  0  0  0  0  0  0  0
   69.0116   43.1778   56.7806 O   0  0  0  0  0  0  0  0  0  0  0  0
   68.2229   46.2950   53.1592 C   0  0  0  0  0  0  0  0  0  0  0  0
   68.5673   47.4118   53.8802 C   0  0  0  0  0  0  0  0  0  0  0  0
   68.7989   47.3285   55.2291 C   0  0  0  0  0  0  0  0  0  0  0  0
   68.6788   46.0911   55.8546 C   0  0  0  0  0  0  0  0  0  0  0  0
   68.3360   44.9547   55.1600 C   0  0  0  0  0  0  0  0  0  0  0  0
   68.1085   45.0671   53.8082 C   0  0  0  0  0  0  0  0  0  0  0  0
   68.7419   46.9862   50.9463 O   0  0  0  0  0  0  0  0  0  0  0  0
   67.9758   46.3785   51.7306 C   0  0  0  0  0  0  0  0  0  0  0  0
   66.8465   45.7651   51.1800 O   0  0  0  0  0  0  0  0  0  0  0  0
   69.2448   41.1690   58.2061 C   0  0  0  0  0  0  0  0  0  0  0  0
   69.6077   40.0500   58.2336 N   0  0  0  0  0  0  0  0  0  0  0  0
   70.0030   38.8245   58.2638 N   0  0  0  0  0  0  0  0  0  0  0  0
   71.3803   38.3677   58.2956 C   0  0  0  0  0  0  0  0  0  0  0  0
   72.2422   39.2757   58.2850 O   0  0  0  0  0  0  0  0  0  0  0  0
   71.7736   36.9854   58.3408 C   0  0  0  0  0  0  0  0  0  0  0  0
   72.6569   36.3925   57.4682 C   0  0  0  0  0  0  0  0  0  0  0  0
   72.9500   35.0346   57.6059 C   0  0  0  0  0  0  0  0  0  0  0  0
   72.3822   34.2638   58.5916 C   0  0  0  0  0  0  0  0  0  0  0  0
   71.5243   34.8664   59.4299 N   0  0  0  0  0  0  0  0  0  0  0  0
   71.2211   36.1677   59.3247 C   0  0  0  0  0  0  0  0  0  0  0  0
 12 13  2  0
 13 14  1  0
 13  6  1  0
  6  7  2  0
  6 11  1  0
  7  8  1  0
  8  9  2  0
  9 10  1  0
 10  1  1  0
 10 11  2  0
  1  2  2  0
  1  5  1  0
  2  3  1  0
  3  4  2  0
  4 15  1  0
  4  5  1  0
 15 16  2  3
 16 17  1  0
 17 18  1  0
 18 19  2  0
 18 20  1  0
 20 21  2  0
 20 25  1  0
 21 22  1  0
 22 23  2  0
 23 24  1  0
 24 25  2  0
M  END
>  <minimizedAffinity>  (262) 
-8.88948

$$$$
data/200k_reference_output/data/smiles/21983.pdb
     RDKit          3D

 27 30  0  0  0  0  0  0  0  0999 V2000
   71.3051   46.9845   58.8175 C   0  0  0  0  0  0  0  0  0  0  0  0
   71.3062   45.6096   58.9068 C   0  0  0  0  0  0  0  0  0  0  0  0
   70.4938   44.8271   58.0754 C   0  0  0  0  0  0  0  0  0  0  0  0
   69.7107   45.4581   57.1853 N   0  0  0  0  0  0  0  0  0  0  0  0
   69.6638   46.7955   57.0492 C   0  0  0  0  0  0  0  0  0  0  0  0
   70.4760   47.5621   57.8817 C   0  0  0  0  0  0  0  0  0  0  0  0
   70.2156   48.8654   57.5164 C   0  0  0  0  0  0  0  0  0  0  0  0
   69.3015   48.8287   56.5260 N   0  0  0  0  0  0  0  0  0  0  0  0
   68.9546   47.6075   56.2277 N   0  0  0  0  0  0  0  0  0  0  0  0
   73.0146   48.5828   59.2447 O   0  0  0  0  0  0  0  0  0  0  0  0
   72.1598   47.7769   59.6946 C   0  0  0  0  0  0  0  0  0  0  0  0
   72.0830   47.6901   61.0771 O   0  0  0  0  0  0  0  0  0  0  0  0
   70.5083   43.3925   58.1828 C   0  0  0  0  0  0  0  0  0  0  0  0
   70.5409   42.1873   58.2694 C   0  0  0  0  0  0  0  0  0  0  0  0
   70.5689   40.7554   58.3924 C   0  0  0  0  0  0  0  0  0  0  0  0
   69.4292   39.9911   58.4825 C   0  0  0  0  0  0  0  0  0  0  0  0
   69.4640   38.6088   58.6019 C   0  0  0  0  0  0  0  0  0  0  0  0
   70.6710   37.9682   58.6317 C   0  0  0  0  0  0  0  0  0  0  0  0
   71.8486   38.7017   58.5428 C   0  0  0  0  0  0  0  0  0  0  0  0
   71.7829   40.0745   58.4256 C   0  0  0  0  0  0  0  0  0  0  0  0
   68.0092   47.1133   55.2341 C   0  0  0  0  0  0  0  0  0  0  0  0
   68.5653   47.1976   53.8586 C   0  0  0  0  0  0  0  0  0  0  0  0
   68.1268   46.3273   52.8805 C   0  0  0  0  0  0  0  0  0  0  0  0
   68.5968   46.3464   51.5837 C   0  0  0  0  0  0  0  0  0  0  0  0
   69.5267   47.2646   51.2743 N   0  0  0  0  0  0  0  0  0  0  0  0
   69.9891   48.1314   52.1750 C   0  0  0  0  0  0  0  0  0  0  0  0
   69.5233   48.1229   53.4876 C   0  0  0  0  0  0  0  0  0  0  0  0
 10 11  2  0
 11 12  1  0
 11  1  1  0
  1  2  2  0
  1  6  1  0
  2  3  1  0
  3 13  1  0
  3  4  2  0
 13 14  3  0
 14 15  1  0
 15 16  2  0
 15 20  1  0
 16 17  1  0
 17 18  2  0
 18 19  1  0
 19 20  2  0
  4  5  1  0
  5  6  2  0
  5  9  1  0
  6  7  1  0
  7  8  2  0
  8  9  1  0
  9 21  1  0
 21 22  1  0
 22 23  2  0
 22 27  1  0
 23 24  1  0
 24 25  2  0
 25 26  1  0
 26 27  2  0
M  END
>  <minimizedAffinity>  (263) 
-8.84162

$$$$
data/200k_reference_output/data/smiles/22306.pdb
     RDKit          3D

 19 21  0  0  0  0  0  0  0  0999 V2000
   70.3923   48.9559   50.9390 O   0  0  0  0  0  0  0  0  0  0  0  0
   70.2820   49.2095   52.4305 S   0  0  0  0  0  0  0  0  0  0  0  0
   71.6872   49.1611   53.0285 O   0  0  0  0  0  0  0  0  0  0  0  0
   69.3421   47.9579   53.1650 C   0  0  0  0  0  0  0  0  0  0  0  0
   69.3561   47.7978   54.5546 C   0  0  0  0  0  0  0  0  0  0  0  0
   68.6185   46.8281   55.1731 C   0  0  0  0  0  0  0  0  0  0  0  0
   67.8341   45.9779   54.4300 C   0  0  0  0  0  0  0  0  0  0  0  0
   67.7969   46.1063   53.0664 C   0  0  0  0  0  0  0  0  0  0  0  0
   67.1730   45.4711   52.0633 N   0  0  0  0  0  0  0  0  0  0  0  0
   67.5089   46.0142   50.9440 O   0  0  0  0  0  0  0  0  0  0  0  0
   68.3370   46.9926   51.1374 N   0  0  0  0  0  0  0  0  0  0  0  0
   68.5599   47.1043   52.4554 C   0  0  0  0  0  0  0  0  0  0  0  0
   69.6424   50.7731   52.6797 N   0  0  0  0  0  0  0  0  0  0  0  0
   69.5964   51.4757   53.8993 C   0  0  0  0  0  0  0  0  0  0  0  0
   70.6876   52.1333   54.4265 C   0  0  0  0  0  0  0  0  0  0  0  0
   70.6068   52.7742   55.6399 C   0  0  0  0  0  0  0  0  0  0  0  0
   69.4386   52.7852   56.3704 C   0  0  0  0  0  0  0  0  0  0  0  0
   68.3377   52.1464   55.8834 C   0  0  0  0  0  0  0  0  0  0  0  0
   68.4291   51.5101   54.6721 C   0  0  0  0  0  0  0  0  0  0  0  0
  1  2  2  0
  2  3  2  0
  2 13  1  0
  2  4  1  0
 13 14  1  0
 14 15  2  0
 14 19  1  0
 15 16  1  0
 16 17  2  0
 17 18  1  0
 18 19  2  0
  4  5  2  0
  4 12  1  0
  5  6  1  0
  6  7  2  0
  7  8  1  0
  8  9  2  0
  8 12  1  0
  9 10  1  0
 10 11  1  0
 11 12  2  0
M  END
>  <minimizedAffinity>  (264) 
-8.52743

$$$$
data/200k_reference_output/data/smiles/22308.pdb
     RDKit          3D

 30 33  0  0  0  0  0  0  0  0999 V2000
   71.2640   44.4682   58.8435 C   0  0  1  0  0  0  0  0  0  0  0  0
   72.2957   45.5650   58.6917 C   0  0  0  0  0  0  0  0  0  0  0  0
   71.5881   46.7499   58.0755 C   0  0  0  0  0  0  0  0  0  0  0  0
   70.2749   46.2743   57.6729 N   0  0  0  0  0  0  0  0  0  0  0  0
   70.2745   44.8558   57.7874 C   0  0  0  0  0  0  0  0  0  0  0  0
   69.5430   44.1016   57.0890 O   0  0  0  0  0  0  0  0  0  0  0  0
   71.7827   43.1661   58.6594 N   0  0  0  0  0  0  0  0  0  0  0  0
   71.2276   41.9917   59.7620 S   0  0  0  0  0  0  0  0  0  0  0  0
   69.7336   42.0983   59.8681 O   0  0  0  0  0  0  0  0  0  0  0  0
   71.7965   42.2672   61.1239 O   0  0  0  0  0  0  0  0  0  0  0  0
   72.3522   37.7165   58.5886 C   0  0  0  0  0  0  0  0  0  0  0  0
   71.1810   38.3084   58.1594 C   0  0  0  0  0  0  0  0  0  0  0  0
   70.8161   39.5917   58.4956 C   0  0  0  0  0  0  0  0  0  0  0  0
   71.6249   40.3623   59.2959 C   0  0  0  0  0  0  0  0  0  0  0  0
   72.8005   39.7926   59.7374 C   0  0  0  0  0  0  0  0  0  0  0  0
   73.1518   38.5031   59.3898 C   0  0  0  0  0  0  0  0  0  0  0  0
   72.7164   36.1524   56.7274 C   0  0  0  0  0  0  0  0  0  0  0  0
   72.7403   36.3400   58.2256 C   0  0  0  0  0  0  0  0  0  0  0  0
   74.1335   36.0312   58.7075 C   0  0  0  0  0  0  0  0  0  0  0  0
   71.8118   35.3062   58.8210 C   0  0  0  0  0  0  0  0  0  0  0  0
   69.2010   47.1380   57.2427 C   0  0  0  0  0  0  0  0  0  0  0  0
   68.9890   47.0642   55.7742 C   0  0  0  0  0  0  0  0  0  0  0  0
   68.1430   46.1813   55.1220 C   0  0  0  0  0  0  0  0  0  0  0  0
   68.2128   46.4128   53.7659 C   0  0  0  0  0  0  0  0  0  0  0  0
   67.6270   45.8783   52.6305 C   0  0  0  0  0  0  0  0  0  0  0  0
   67.9114   46.3408   51.3717 C   0  0  0  0  0  0  0  0  0  0  0  0
   68.7911   47.3487   51.2467 N   0  0  0  0  0  0  0  0  0  0  0  0
   69.3812   47.8964   52.3213 C   0  0  0  0  0  0  0  0  0  0  0  0
   69.1021   47.4367   53.5912 C   0  0  0  0  0  0  0  0  0  0  0  0
   69.5542   47.8116   54.8120 N   0  0  0  0  0  0  0  0  0  0  0  0
 17 18  1  0
 18 19  1  0
 18 20  1  0
 18 11  1  0
 11 12  2  0
 11 16  1  0
 12 13  1  0
 13 14  2  0
 14  8  1  0
 14 15  1  0
  8  9  2  0
  8 10  2  0
  8  7  1  0
  1  7  1  6
  1  2  1  0
  1  5  1  0
  2  3  1  0
  3  4  1  0
  4 21  1  0
  4  5  1  0
 21 22  1  0
 22 23  2  0
 22 30  1  0
 23 24  1  0
 24 25  2  0
 24 29  1  0
 25 26  1  0
 26 27  2  0
 27 28  1  0
 28 29  2  0
 29 30  1  0
  5  6  2  0
 15 16  2  0
M  END
>  <minimizedAffinity>  (265) 
-8.63016

$$$$
data/200k_reference_output/data/smiles/22401.pdb
     RDKit          3D

 21 23  0  0  0  0  0  0  0  0999 V2000
   69.2546   47.5134   54.7157 C   0  0  0  0  0  0  0  0  0  0  0  0
   70.0527   48.6311   54.6475 C   0  0  0  0  0  0  0  0  0  0  0  0
   70.3004   49.2247   53.4318 C   0  0  0  0  0  0  0  0  0  0  0  0
   69.7643   48.7208   52.2739 C   0  0  0  0  0  0  0  0  0  0  0  0
   70.0111   49.3180   51.0315 O   0  0  0  0  0  0  0  0  0  0  0  0
   68.9620   47.6053   52.2941 C   0  0  0  0  0  0  0  0  0  0  0  0
   68.4260   47.0917   51.1632 N   0  0  0  0  0  0  0  0  0  0  0  0
   67.6475   45.9989   51.2192 C   0  0  0  0  0  0  0  0  0  0  0  0
   67.3887   45.3911   52.4292 C   0  0  0  0  0  0  0  0  0  0  0  0
   67.9208   45.8877   53.6193 C   0  0  0  0  0  0  0  0  0  0  0  0
   68.7152   47.0098   53.5289 C   0  0  0  0  0  0  0  0  0  0  0  0
   70.1490   46.3933   56.9827 O   0  0  0  0  0  0  0  0  0  0  0  0
   68.8844   46.6780   56.1928 S   0  0  0  0  0  0  0  0  0  0  0  0
   68.1458   45.3813   55.9561 O   0  0  0  0  0  0  0  0  0  0  0  0
   67.8237   47.6521   57.1150 N   0  0  0  0  0  0  0  0  0  0  0  0
   68.0583   49.0281   57.3015 C   0  0  0  0  0  0  0  0  0  0  0  0
   67.1480   50.0198   57.0300 C   0  0  0  0  0  0  0  0  0  0  0  0
   67.3835   51.3548   57.2186 C   0  0  0  0  0  0  0  0  0  0  0  0
   68.5972   51.7569   57.7091 C   0  0  0  0  0  0  0  0  0  0  0  0
   69.5577   50.8161   58.0038 C   0  0  0  0  0  0  0  0  0  0  0  0
   69.2896   49.4947   57.8037 C   0  0  0  0  0  0  0  0  0  0  0  0
 12 13  2  0
 13 14  2  0
 13 15  1  0
 13  1  1  0
 15 16  1  0
 16 17  2  0
 16 21  1  0
 17 18  1  0
 18 19  2  0
 19 20  1  0
 20 21  2  0
  1  2  2  0
  1 11  1  0
  2  3  1  0
  3  4  2  0
  4  5  1  0
  4  6  1  0
  6  7  1  0
  6 11  2  0
  7  8  2  0
  8  9  1  0
  9 10  2  0
 10 11  1  0
M  END
>  <minimizedAffinity>  (266) 
-8.87810

$$$$
data/200k_reference_output/data/smiles/22427.pdb
     RDKit          3D

 27 31  0  0  0  0  0  0  0  0999 V2000
   70.5635   50.0927   57.1023 C   0  0  0  0  0  0  0  0  0  0  0  0
   70.6025   48.6170   57.3441 C   0  0  0  0  0  0  0  0  0  0  0  0
   71.5522   47.9176   57.9526 N   0  0  0  0  0  0  0  0  0  0  0  0
   71.2447   46.6162   57.9813 N   0  0  0  0  0  0  0  0  0  0  0  0
   71.8594   45.5302   58.4694 C   0  0  0  0  0  0  0  0  0  0  0  0
   72.9687   45.6153   59.0462 O   0  0  0  0  0  0  0  0  0  0  0  0
   71.2500   44.2786   58.3308 C   0  0  0  0  0  0  0  0  0  0  0  0
   70.0363   44.1140   57.7097 C   0  0  0  0  0  0  0  0  0  0  0  0
   69.4631   45.2355   57.2395 N   0  0  0  0  0  0  0  0  0  0  0  0
   70.0598   46.4643   57.3741 C   0  0  0  0  0  0  0  0  0  0  0  0
   69.6414   47.7372   56.9639 C   0  0  0  0  0  0  0  0  0  0  0  0
   69.3841   42.7956   57.5594 C   0  0  0  0  0  0  0  0  0  0  0  0
   68.4004   42.5915   56.6169 C   0  0  0  0  0  0  0  0  0  0  0  0
   67.7916   41.3454   56.4831 C   0  0  0  0  0  0  0  0  0  0  0  0
   68.1572   40.2904   57.2867 C   0  0  0  0  0  0  0  0  0  0  0  0
   67.7959   38.9961   57.4289 N   0  0  0  0  0  0  0  0  0  0  0  0
   68.5072   38.4385   58.3932 N   0  0  0  0  0  0  0  0  0  0  0  0
   69.3375   39.3264   58.9014 N   0  0  0  0  0  0  0  0  0  0  0  0
   69.1412   40.4984   58.2276 C   0  0  0  0  0  0  0  0  0  0  0  0
   69.7281   41.7228   58.3466 C   0  0  0  0  0  0  0  0  0  0  0  0
   68.3477   47.9826   56.2429 C   0  0  0  0  0  0  0  0  0  0  0  0
   68.5490   47.5644   54.8313 C   0  0  0  0  0  0  0  0  0  0  0  0
   69.3251   48.2654   53.9337 C   0  0  0  0  0  0  0  0  0  0  0  0
   69.4973   47.8622   52.6169 C   0  0  0  0  0  0  0  0  0  0  0  0
   68.8867   46.7209   52.1447 C   0  0  0  0  0  0  0  0  0  0  0  0
   68.1074   46.0101   53.0323 C   0  0  0  0  0  0  0  0  0  0  0  0
   67.9345   46.4080   54.3403 C   0  0  0  0  0  0  0  0  0  0  0  0
  1  2  1  0
  2  3  2  0
  2 11  1  0
  3  4  1  0
  4  5  1  0
  4 10  1  0
  5  6  2  0
  5  7  1  0
  7  8  2  0
  8 12  1  0
  8  9  1  0
 12 13  2  0
 12 20  1  0
 13 14  1  0
 14 15  2  0
 15 16  1  0
 15 19  1  0
 16 17  1  0
 17 18  2  0
 18 19  1  0
 19 20  2  0
  9 10  1  0
 10 11  2  0
 11 21  1  0
 21 22  1  0
 22 23  2  0
 22 27  1  0
 23 24  1  0
 24 25  2  0
 25 26  1  0
 26 27  2  0
M  END
>  <minimizedAffinity>  (267) 
-8.51798

$$$$
data/200k_reference_output/data/smiles/22459.pdb
     RDKit          3D

 29 32  0  0  0  0  0  0  0  0999 V2000
   70.9043   49.8947   58.2223 C   0  0  0  0  0  0  0  0  0  0  0  0
   69.8488   50.3932   58.6910 O   0  0  0  0  0  0  0  0  0  0  0  0
   70.7939   49.1267   57.0309 N   0  0  0  0  0  0  0  0  0  0  0  0
   73.1265   48.0780   58.4117 N   0  0  0  0  0  0  0  0  0  0  0  0
   72.6843   48.8483   59.5559 C   0  0  0  0  0  0  0  0  0  0  0  0
   72.1729   50.1278   58.9204 C   0  0  1  0  0  0  0  0  0  0  0  0
   73.2665   50.4279   57.9386 C   0  0  0  0  0  0  0  0  0  0  0  0
   73.6568   49.0333   57.5084 C   0  0  0  0  0  0  0  0  0  0  0  0
   74.3558   48.7588   56.4925 O   0  0  0  0  0  0  0  0  0  0  0  0
   72.7384   42.3580   57.8963 C   0  0  0  0  0  0  0  0  0  0  0  0
   72.8531   43.8383   58.0275 C   0  0  0  0  0  0  0  0  0  0  0  0
   74.0679   44.4814   58.0792 C   0  0  0  0  0  0  0  0  0  0  0  0
   74.1476   45.8756   58.2034 C   0  0  0  0  0  0  0  0  0  0  0  0
   73.0145   46.6572   58.2789 C   0  0  0  0  0  0  0  0  0  0  0  0
   71.8096   45.9946   58.2245 C   0  0  0  0  0  0  0  0  0  0  0  0
   71.7169   44.6136   58.1020 C   0  0  0  0  0  0  0  0  0  0  0  0
   70.3770   43.9437   58.0490 C   0  0  0  0  0  0  0  0  0  0  0  0
   69.4961   48.9293   56.3781 C   0  0  0  0  0  0  0  0  0  0  0  0
   69.7320   48.8772   54.9165 C   0  0  0  0  0  0  0  0  0  0  0  0
   70.5043   49.7797   54.2835 N   0  0  0  0  0  0  0  0  0  0  0  0
   70.7308   49.7425   52.9833 N   0  0  0  0  0  0  0  0  0  0  0  0
   70.1932   48.7845   52.2159 C   0  0  0  0  0  0  0  0  0  0  0  0
   70.4370   48.7824   50.9603 O   0  0  0  0  0  0  0  0  0  0  0  0
   69.3867   47.8139   52.7729 C   0  0  0  0  0  0  0  0  0  0  0  0
   68.8332   46.8298   51.9780 C   0  0  0  0  0  0  0  0  0  0  0  0
   68.0292   45.8765   52.5721 C   0  0  0  0  0  0  0  0  0  0  0  0
   67.7986   45.9248   53.9306 C   0  0  0  0  0  0  0  0  0  0  0  0
   68.3560   46.9080   54.7036 C   0  0  0  0  0  0  0  0  0  0  0  0
   69.1651   47.8794   54.1493 C   0  0  0  0  0  0  0  0  0  0  0  0
 10 11  1  0
 11 12  2  0
 11 16  1  0
 12 13  1  0
 13 14  2  0
 14  4  1  0
 14 15  1  0
  4  5  1  0
  4  8  1  0
  5  6  1  0
  6  1  1  6
  6  7  1  0
  1  2  2  0
  1  3  1  0
  3 18  1  0
 18 19  1  0
 19 20  2  0
 19 29  1  0
 20 21  1  0
 21 22  1  0
 22 23  2  0
 22 24  1  0
 24 25  1  0
 24 29  2  0
 25 26  2  0
 26 27  1  0
 27 28  2  0
 28 29  1  0
  7  8  1  0
  8  9  2  0
 15 16  2  0
 16 17  1  0
M  END
>  <minimizedAffinity>  (268) 
-8.92208

$$$$
data/200k_reference_output/data/smiles/22470.pdb
     RDKit          3D

 26 29  0  0  0  0  0  0  0  0999 V2000
   66.6886   42.5432   56.2247 O   0  0  0  0  0  0  0  0  0  0  0  0
   67.7735   42.1245   56.7376 C   0  0  0  0  0  0  0  0  0  0  0  0
   68.0782   40.8220   57.2338 N   0  0  0  0  0  0  0  0  0  0  0  0
   69.4350   40.8034   57.7261 C   0  0  0  0  0  0  0  0  0  0  0  0
   70.2030   39.8105   58.3027 C   0  0  0  0  0  0  0  0  0  0  0  0
   71.5070   40.0735   58.7009 C   0  0  0  0  0  0  0  0  0  0  0  0
   72.0889   41.3275   58.5383 C   0  0  0  0  0  0  0  0  0  0  0  0
   71.3055   42.2948   57.9632 C   0  0  0  0  0  0  0  0  0  0  0  0
   69.9996   42.0480   57.5589 C   0  0  0  0  0  0  0  0  0  0  0  0
   68.9740   42.9062   56.9377 C   0  0  0  0  0  0  0  0  0  0  0  0
   69.1180   44.1331   56.6405 N   0  0  0  0  0  0  0  0  0  0  0  0
   73.7330   41.5624   59.0787 S   0  0  0  0  0  0  0  0  0  0  0  0
   74.3220   40.2575   59.5761 O   0  0  0  0  0  0  0  0  0  0  0  0
   73.8432   42.5192   60.2258 O   0  0  0  0  0  0  0  0  0  0  0  0
   74.6898   42.1678   57.8166 O   0  0  0  0  0  0  0  0  0  0  0  0
   68.1372   44.9492   56.0716 N   0  0  0  0  0  0  0  0  0  0  0  0
   68.6321   46.1803   55.5103 C   0  0  0  0  0  0  0  0  0  0  0  0
   69.2086   47.1552   56.2584 C   0  0  0  0  0  0  0  0  0  0  0  0
   69.6571   48.3092   55.6558 C   0  0  0  0  0  0  0  0  0  0  0  0
   69.5496   48.5339   54.3041 C   0  0  0  0  0  0  0  0  0  0  0  0
   68.9617   47.5428   53.5397 C   0  0  0  0  0  0  0  0  0  0  0  0
   68.8086   47.6939   52.1807 C   0  0  0  0  0  0  0  0  0  0  0  0
   68.2239   46.7385   51.3944 C   0  0  0  0  0  0  0  0  0  0  0  0
   67.7784   45.5858   52.0065 C   0  0  0  0  0  0  0  0  0  0  0  0
   67.9049   45.3731   53.3802 C   0  0  0  0  0  0  0  0  0  0  0  0
   68.4987   46.3603   54.1338 C   0  0  0  0  0  0  0  0  0  0  0  0
  1  2  2  0
  2  3  1  0
  2 10  1  0
  3  4  1  0
  4  5  2  0
  4  9  1  0
  5  6  1  0
  6  7  2  0
  7 12  1  0
  7  8  1  0
 12 13  2  0
 12 14  2  0
 12 15  1  0
  8  9  2  0
  9 10  1  0
 10 11  2  0
 11 16  1  0
 16 17  1  0
 17 18  2  0
 17 26  1  0
 18 19  1  0
 19 20  2  0
 20 21  1  0
 21 22  1  0
 21 26  2  0
 22 23  2  0
 23 24  1  0
 24 25  2  0
 25 26  1  0
M  CHG  1  15  -1
M  END
>  <minimizedAffinity>  (269) 
-8.70390

$$$$
data/200k_reference_output/data/smiles/22576.pdb
     RDKit          3D

 33 38  0  0  0  0  0  0  0  0999 V2000
   71.8655   45.1650   58.3542 C   0  0  0  0  0  0  0  0  0  0  0  0
   70.8237   45.7361   57.6753 C   0  0  0  0  0  0  0  0  0  0  0  0
   70.3123   46.9988   58.0067 C   0  0  0  0  0  0  0  0  0  0  0  0
   70.9025   47.6490   59.0501 C   0  0  0  0  0  0  0  0  0  0  0  0
   71.9649   47.0629   59.7422 C   0  0  0  0  0  0  0  0  0  0  0  0
   72.4576   45.8244   59.4077 C   0  0  0  0  0  0  0  0  0  0  0  0
   73.4983   45.2626   60.0942 F   0  0  0  0  0  0  0  0  0  0  0  0
   70.0763   41.7976   63.6779 O   0  0  0  0  0  0  0  0  0  0  0  0
   69.4415   42.3184   62.6902 C   0  0  0  0  0  0  0  0  0  0  0  0
   70.1803   42.5222   61.5029 N   0  0  0  0  0  0  0  0  0  0  0  0
   69.9765   43.0410   60.1778 C   0  0  0  0  0  0  0  0  0  0  0  0
   71.1400   42.2450   59.7272 C   0  0  0  0  0  0  0  0  0  0  0  0
   70.9403   40.9395   59.0486 C   0  0  0  0  0  0  0  0  0  0  0  0
   72.3425   41.2642   58.5058 C   0  0  0  0  0  0  0  0  0  0  0  0
   71.9660   42.6773   58.6896 N   0  0  0  0  0  0  0  0  0  0  0  0
   72.3931   43.8353   57.9884 C   0  0  0  0  0  0  0  0  0  0  0  0
   73.2180   43.8163   57.0405 O   0  0  0  0  0  0  0  0  0  0  0  0
   71.5720   42.2709   61.1265 C   0  0  0  0  0  0  0  0  0  0  0  0
   68.0356   42.6368   62.9206 C   0  0  0  0  0  0  0  0  0  0  0  0
   67.0083   41.8114   62.1612 C   0  0  0  0  0  0  0  0  0  0  0  0
   67.0981   41.7596   63.6736 C   0  0  0  0  0  0  0  0  0  0  0  0
   69.2214   47.6078   57.2459 C   0  0  0  0  0  0  0  0  0  0  0  0
   68.8662   46.8873   55.9887 C   0  0  0  0  0  0  0  0  0  0  0  0
   68.2432   45.6878   56.0587 N   0  0  0  0  0  0  0  0  0  0  0  0
   67.8586   45.0272   55.0036 N   0  0  0  0  0  0  0  0  0  0  0  0
   68.0809   45.5432   53.7839 C   0  0  0  0  0  0  0  0  0  0  0  0
   67.7251   44.9397   52.7237 O   0  0  0  0  0  0  0  0  0  0  0  0
   68.7146   46.7666   53.6266 C   0  0  0  0  0  0  0  0  0  0  0  0
   68.9518   47.2811   52.3631 C   0  0  0  0  0  0  0  0  0  0  0  0
   69.5943   48.4825   52.2285 C   0  0  0  0  0  0  0  0  0  0  0  0
   70.0065   49.1840   53.3397 C   0  0  0  0  0  0  0  0  0  0  0  0
   69.7617   48.6557   54.6035 C   0  0  0  0  0  0  0  0  0  0  0  0
   69.1140   47.4453   54.7845 C   0  0  0  0  0  0  0  0  0  0  0  0
  8  9  2  0
  9 19  1  0
  9 10  1  0
 19 20  1  0
 19 21  1  0
 20 21  1  0
 10 11  1  0
 10 18  1  0
 11 12  1  0
 12 13  1  0
 12 15  1  0
 12 18  1  0
 13 14  1  0
 14 15  1  0
 15 16  1  0
 16 17  2  0
 16  1  1  0
  1  2  2  0
  1  6  1  0
  2  3  1  0
  3 22  1  0
  3  4  2  0
 22 23  1  0
 23 24  2  0
 23 33  1  0
 24 25  1  0
 25 26  1  0
 26 27  2  0
 26 28  1  0
 28 29  1  0
 28 33  2  0
 29 30  2  0
 30 31  1  0
 31 32  2  0
 32 33  1  0
  4  5  1  0
  5  6  2  0
  6  7  1  0
M  END
>  <minimizedAffinity>  (270) 
-8.57688

$$$$
data/200k_reference_output/data/smiles/22677.pdb
     RDKit          3D

 31 34  0  0  0  0  0  0  0  0999 V2000
   69.4275   41.7293   58.1827 C   0  0  2  0  0  0  0  0  0  0  0  0
   69.8787   40.3876   58.4072 C   0  0  0  0  0  0  0  0  0  0  0  0
   70.2298   39.3583   58.5602 C   0  0  0  0  0  0  0  0  0  0  0  0
   70.7015   38.0436   58.7470 C   0  0  0  0  0  0  0  0  0  0  0  0
   72.1110   38.1923   58.9527 C   0  0  0  0  0  0  0  0  0  0  0  0
   72.4166   39.5729   58.8862 C   0  0  0  0  0  0  0  0  0  0  0  0
   72.6406   40.6654   58.8263 C   0  0  0  0  0  0  0  0  0  0  0  0
   72.9150   42.0487   58.7732 C   0  0  0  0  0  0  0  0  0  0  0  0
   71.5951   42.8163   58.7870 C   0  0  1  0  0  0  0  0  0  0  0  0
   71.7165   44.1132   58.0805 C   0  0  0  0  0  0  0  0  0  0  0  0
   72.5941   44.9997   58.0468 O   0  0  0  0  0  0  0  0  0  0  0  0
   70.4342   43.8680   57.5042 N   0  0  0  0  0  0  0  0  0  0  0  0
   69.4039   44.7371   56.9738 C   0  0  0  0  0  0  0  0  0  0  0  0
   68.3847   44.2057   56.5032 O   0  0  0  0  0  0  0  0  0  0  0  0
   69.5838   46.1140   57.0038 N   0  0  0  0  0  0  0  0  0  0  0  0
   70.6734   42.4916   57.6715 C   0  0  2  0  0  0  0  0  0  0  0  0
   68.9102   42.3246   59.3275 O   0  0  0  0  0  0  0  0  0  0  0  0
   67.5901   41.6052   61.3414 C   0  0  0  0  0  0  0  0  0  0  0  0
   67.7009   42.0941   59.9235 C   0  0  0  0  0  0  0  0  0  0  0  0
   66.6508   42.2898   59.2919 O   0  0  0  0  0  0  0  0  0  0  0  0
   68.6726   47.1157   56.5183 C   0  0  0  0  0  0  0  0  0  0  0  0
   69.0459   47.6832   55.2288 C   0  0  0  0  0  0  0  0  0  0  0  0
   69.8895   48.8118   55.2216 C   0  0  0  0  0  0  0  0  0  0  0  0
   70.3799   49.3605   54.0606 C   0  0  0  0  0  0  0  0  0  0  0  0
   70.0674   48.8301   52.8386 C   0  0  0  0  0  0  0  0  0  0  0  0
   69.2455   47.7320   52.8094 C   0  0  0  0  0  0  0  0  0  0  0  0
   68.8942   47.2251   51.5783 C   0  0  0  0  0  0  0  0  0  0  0  0
   68.0375   46.1563   51.4929 C   0  0  0  0  0  0  0  0  0  0  0  0
   67.5487   45.6149   52.6472 C   0  0  0  0  0  0  0  0  0  0  0  0
   67.9004   46.1183   53.8563 C   0  0  0  0  0  0  0  0  0  0  0  0
   68.7485   47.1767   53.9931 C   0  0  0  0  0  0  0  0  0  0  0  0
 18 19  1  0
 19 20  2  0
 19 17  1  0
  1 17  1  1
  1  2  1  0
  1 16  1  0
  2  3  3  0
  3  4  1  0
  4  5  2  0
  5  6  1  0
  6  7  3  0
  7  8  1  0
  9  8  1  6
  9 10  1  0
  9 16  1  0
 10 11  2  0
 10 12  1  0
 12 13  1  0
 16 12  1  1
 13 14  2  0
 13 15  1  0
 15 21  1  0
 21 22  1  0
 22 23  2  0
 22 31  1  0
 23 24  1  0
 24 25  2  0
 25 26  1  0
 26 27  1  0
 26 31  2  0
 27 28  2  0
 28 29  1  0
 29 30  2  0
 30 31  1  0
M  END
>  <minimizedAffinity>  (271) 
-9.05097

$$$$
data/200k_reference_output/data/smiles/22722.pdb
     RDKit          3D

 26 27  0  0  0  0  0  0  0  0999 V2000
   68.9640   50.2434   57.1283 C   0  0  0  0  0  0  0  0  0  0  0  0
   68.5521   51.7545   57.2162 C   0  0  0  0  0  0  0  0  0  0  0  0
   68.5352   52.1890   56.0423 C   0  0  0  0  0  0  0  0  0  0  0  0
   68.6008   52.3755   54.6933 C   0  0  0  0  0  0  0  0  0  0  0  0
   69.0462   50.7386   54.4434 C   0  0  0  0  0  0  0  0  0  0  0  0
   69.0620   50.3573   55.5145 C   0  0  0  0  0  0  0  0  0  0  0  0
   69.7007   48.0229   57.5621 C   0  0  0  0  0  0  0  0  0  0  0  0
   69.3426   49.0869   57.3624 C   0  0  0  0  0  0  0  0  0  0  0  0
   70.4833   45.6248   57.9698 C   0  0  0  0  0  0  0  0  0  0  0  0
   70.1065   46.7949   57.7813 C   0  0  0  0  0  0  0  0  0  0  0  0
   70.1922   43.3791   57.8529 C   0  0  0  0  0  0  0  0  0  0  0  0
   70.8462   44.4481   58.1463 C   0  0  0  0  0  0  0  0  0  0  0  0
   71.4820   41.4711   57.8234 O   0  0  0  0  0  0  0  0  0  0  0  0
   70.2464   41.9712   57.8438 C   0  0  0  0  0  0  0  0  0  0  0  0
   69.1624   41.1294   57.8656 N   0  0  0  0  0  0  0  0  0  0  0  0
   69.0888   39.7924   57.8361 O   0  0  0  0  0  0  0  0  0  0  0  0
   69.3072   50.5449   53.1118 N   0  0  0  0  0  0  0  0  0  0  0  0
   70.0585   49.1032   52.4623 S   0  0  0  0  0  0  0  0  0  0  0  0
   71.4596   49.0947   52.9937 O   0  0  0  0  0  0  0  0  0  0  0  0
   70.1634   49.2529   50.9577 O   0  0  0  0  0  0  0  0  0  0  0  0
   69.1447   47.6866   52.7941 C   0  0  0  0  0  0  0  0  0  0  0  0
   68.9248   47.2085   54.0217 C   0  0  0  0  0  0  0  0  0  0  0  0
   68.2616   46.1686   54.5303 C   0  0  0  0  0  0  0  0  0  0  0  0
   67.6096   45.3544   53.4405 C   0  0  0  0  0  0  0  0  0  0  0  0
   67.8277   45.8335   52.2253 C   0  0  0  0  0  0  0  0  0  0  0  0
   68.4975   46.8640   51.7397 C   0  0  0  0  0  0  0  0  0  0  0  0
 13 14  2  0
 14 11  1  0
 14 15  1  0
 11 12  2  0
 12  9  1  0
  9 10  3  0
 10  7  1  0
  7  8  3  0
  8  1  1  0
  1  2  2  0
  1  6  1  0
  2  3  1  0
  3  4  2  0
  4  5  1  0
  5 17  1  0
  5  6  2  0
 17 18  1  0
 18 19  2  0
 18 20  2  0
 18 21  1  0
 21 22  2  0
 21 26  1  0
 22 23  1  0
 23 24  2  0
 24 25  1  0
 25 26  2  0
 15 16  1  0
M  END
>  <minimizedAffinity>  (272) 
-9.35950

$$$$
data/200k_reference_output/data/smiles/22848.pdb
     RDKit          3D

 23 24  0  0  0  0  0  0  0  0999 V2000
   68.3817   47.5067   56.5513 C   0  0  0  0  0  0  0  0  0  0  0  0
   67.3677   45.0935   52.3058 C   0  0  0  0  0  0  0  0  0  0  0  0
   68.0877   46.1828   53.0121 C   0  0  0  0  0  0  0  0  0  0  0  0
   67.9209   46.3440   54.3772 C   0  0  0  0  0  0  0  0  0  0  0  0
   68.5636   47.3384   55.0855 C   0  0  0  0  0  0  0  0  0  0  0  0
   69.3974   48.1785   54.3445 C   0  0  0  0  0  0  0  0  0  0  0  0
   69.5627   48.0166   52.9865 C   0  0  0  0  0  0  0  0  0  0  0  0
   68.9099   47.0177   52.3042 C   0  0  0  0  0  0  0  0  0  0  0  0
   69.1136   46.9010   50.9319 O   0  0  0  0  0  0  0  0  0  0  0  0
   70.4451   48.9202   52.2534 C   0  0  0  0  0  0  0  0  0  0  0  0
   71.6286   49.1143   52.6321 O   0  0  0  0  0  0  0  0  0  0  0  0
   70.0303   49.6025   51.1174 O   0  0  0  0  0  0  0  0  0  0  0  0
   69.4868   46.9019   57.3310 C   0  0  0  0  0  0  0  0  0  0  0  0
   69.7433   45.5509   57.2513 C   0  0  0  0  0  0  0  0  0  0  0  0
   70.7786   45.0072   57.9872 C   0  0  0  0  0  0  0  0  0  0  0  0
   71.0334   43.5492   57.8817 C   0  0  0  0  0  0  0  0  0  0  0  0
   71.5763   45.7723   58.8081 C   0  0  0  0  0  0  0  0  0  0  0  0
   72.6075   45.1706   59.5282 O   0  0  0  0  0  0  0  0  0  0  0  0
   71.3269   47.1338   58.8965 C   0  0  0  0  0  0  0  0  0  0  0  0
   70.2902   47.6598   58.1562 C   0  0  0  0  0  0  0  0  0  0  0  0
   72.1568   47.9609   59.7583 C   0  0  0  0  0  0  0  0  0  0  0  0
   72.1130   47.8130   61.0015 O   0  0  0  0  0  0  0  0  0  0  0  0
   73.0037   48.9196   59.2307 O   0  0  0  0  0  0  0  0  0  0  0  0
  2  3  1  0
  3  4  2  0
  3  8  1  0
  4  5  1  0
  5  1  1  0
  5  6  2  0
  1 13  1  0
 13 14  2  0
 13 20  1  0
 14 15  1  0
 15 16  1  0
 15 17  2  0
 17 18  1  0
 17 19  1  0
 19 21  1  0
 19 20  2  0
 21 22  2  0
 21 23  1  0
  6  7  1  0
  7 10  1  0
  7  8  2  0
 10 11  2  0
 10 12  1  0
  8  9  1  0
M  END
>  <minimizedAffinity>  (273) 
-8.50643

$$$$
data/200k_reference_output/data/smiles/22857.pdb
     RDKit          3D

 25 27  0  0  0  0  0  0  0  0999 V2000
   68.9265   48.2489   56.3711 C   0  0  0  0  0  0  0  0  0  0  0  0
   68.2455   49.1588   56.9582 O   0  0  0  0  0  0  0  0  0  0  0  0
   69.5749   48.5540   55.1208 C   0  0  0  0  0  0  0  0  0  0  0  0
   70.5827   49.4401   54.8918 C   0  0  0  0  0  0  0  0  0  0  0  0
   70.9097   49.4276   53.5687 N   0  0  0  0  0  0  0  0  0  0  0  0
   70.1064   48.5304   52.9622 C   0  0  0  0  0  0  0  0  0  0  0  0
   69.9966   48.1111   51.6458 C   0  0  0  0  0  0  0  0  0  0  0  0
   69.0775   47.1692   51.3010 C   0  0  0  0  0  0  0  0  0  0  0  0
   68.2160   46.5879   52.2292 C   0  0  0  0  0  0  0  0  0  0  0  0
   68.3276   47.0058   53.5310 C   0  0  0  0  0  0  0  0  0  0  0  0
   69.2629   47.9709   53.9112 C   0  0  0  0  0  0  0  0  0  0  0  0
   67.2672   45.6059   51.8290 N   0  0  0  0  0  0  0  0  0  0  0  0
   66.9353   44.6871   52.5928 O   0  0  0  0  0  0  0  0  0  0  0  0
   66.7237   45.6889   50.5905 O   0  0  0  0  0  0  0  0  0  0  0  0
   69.7634   46.7604   58.2009 N   0  0  0  0  0  0  0  0  0  0  0  0
   69.0272   46.9282   56.9836 C   0  0  0  0  0  0  0  0  0  0  0  0
   68.4821   45.9447   56.4612 O   0  0  0  0  0  0  0  0  0  0  0  0
   69.8834   45.4952   58.8229 N   0  0  0  0  0  0  0  0  0  0  0  0
   74.6730   44.2609   58.3471 C   0  0  0  0  0  0  0  0  0  0  0  0
   73.2304   43.9582   58.2025 C   0  0  0  0  0  0  0  0  0  0  0  0
   72.8678   42.7389   57.6782 C   0  0  0  0  0  0  0  0  0  0  0  0
   71.5183   42.4274   57.5312 C   0  0  0  0  0  0  0  0  0  0  0  0
   70.5610   43.3596   57.9186 C   0  0  0  0  0  0  0  0  0  0  0  0
   70.9055   44.5839   58.4443 C   0  0  0  0  0  0  0  0  0  0  0  0
   72.2437   44.8594   58.5760 C   0  0  0  0  0  0  0  0  0  0  0  0
 19 20  1  0
 20 21  2  0
 20 25  1  0
 21 22  1  0
 22 23  2  0
 23 24  1  0
 24 18  1  0
 24 25  2  0
 18 15  1  0
 15 16  1  0
 16 17  2  0
 16  1  1  0
  1  2  2  0
  1  3  1  0
  3  4  2  0
  3 11  1  0
  4  5  1  0
  5  6  1  0
  6  7  1  0
  6 11  2  0
  7  8  2  0
  8  9  1  0
  9 12  1  0
  9 10  2  0
 12 13  2  0
 12 14  1  0
 10 11  1  0
M  CHG  2  12   1  14  -1
M  END
>  <minimizedAffinity>  (274) 
-8.97162

$$$$
data/200k_reference_output/data/smiles/22873.pdb
     RDKit          3D

 32 36  0  0  0  0  0  0  0  0999 V2000
   68.5200   42.7883   56.9340 N   0  0  0  0  0  0  0  0  0  0  0  0
   67.4919   41.8003   56.8234 C   0  0  0  0  0  0  0  0  0  0  0  0
   68.1242   40.4814   57.2125 C   0  0  0  0  0  0  0  0  0  0  0  0
   68.4871   40.4626   58.7059 C   0  0  0  0  0  0  0  0  0  0  0  0
   69.2066   41.7338   59.0497 C   0  0  0  0  0  0  0  0  0  0  0  0
   69.5902   42.5346   57.8562 C   0  0  0  0  0  0  0  0  0  0  0  0
   67.2160   40.3151   59.4201 C   0  0  0  0  0  0  0  0  0  0  0  0
   66.2411   41.1305   59.4960 O   0  0  0  0  0  0  0  0  0  0  0  0
   67.2015   39.0627   60.0638 N   0  0  0  0  0  0  0  0  0  0  0  0
   68.4567   38.4450   59.7930 C   0  0  0  0  0  0  0  0  0  0  0  0
   68.9674   37.2030   60.2074 C   0  0  0  0  0  0  0  0  0  0  0  0
   70.2254   36.7863   59.8521 C   0  0  0  0  0  0  0  0  0  0  0  0
   70.7378   35.6014   60.2356 F   0  0  0  0  0  0  0  0  0  0  0  0
   70.9941   37.6144   59.0703 C   0  0  0  0  0  0  0  0  0  0  0  0
   70.5222   38.8308   58.6510 C   0  0  0  0  0  0  0  0  0  0  0  0
   71.3337   39.6001   57.8805 F   0  0  0  0  0  0  0  0  0  0  0  0
   69.2343   39.2510   59.0179 C   0  0  0  0  0  0  0  0  0  0  0  0
   70.2404   47.2927   57.8229 C   0  0  0  0  0  0  0  0  0  0  0  0
   69.6279   47.4168   56.4788 C   0  0  0  0  0  0  0  0  0  0  0  0
   69.6164   48.5777   55.7594 C   0  0  0  0  0  0  0  0  0  0  0  0
   69.0227   48.6296   54.5043 C   0  0  0  0  0  0  0  0  0  0  0  0
   68.4267   47.5095   53.9524 C   0  0  0  0  0  0  0  0  0  0  0  0
   68.4390   46.3382   54.6825 C   0  0  0  0  0  0  0  0  0  0  0  0
   67.8699   45.1733   54.2029 C   0  0  0  0  0  0  0  0  0  0  0  0
   67.3227   45.1797   53.0756 O   0  0  0  0  0  0  0  0  0  0  0  0
   67.9061   44.0573   54.9408 N   0  0  0  0  0  0  0  0  0  0  0  0
   68.4732   43.9653   56.1600 C   0  0  0  0  0  0  0  0  0  0  0  0
   69.0279   45.1315   56.6091 N   0  0  0  0  0  0  0  0  0  0  0  0
   69.0274   46.2820   55.9265 C   0  0  0  0  0  0  0  0  0  0  0  0
   66.1450   38.4466   60.8648 C   0  0  0  0  0  0  0  0  0  0  0  0
   65.2796   37.5893   59.9335 C   0  0  0  0  0  0  0  0  0  0  0  0
   63.9743   38.0854   59.9064 O   0  0  0  0  0  0  0  0  0  0  0  0
 18 19  1  0
 19 20  2  0
 19 29  1  0
 20 21  1  0
 21 22  2  0
 22 23  1  0
 23 24  1  0
 23 29  2  0
 24 25  2  0
 24 26  1  0
 26 27  1  0
 27  1  1  0
 27 28  2  0
  1  2  1  0
  1  6  1  0
  2  3  1  0
  3  4  1  0
  4  5  1  0
  4  7  1  0
  4 17  1  0
  5  6  1  0
  7  8  2  0
  7  9  1  0
  9 30  1  0
  9 10  1  0
 30 31  1  0
 31 32  1  0
 10 11  1  0
 10 17  2  0
 11 12  2  0
 12 13  1  0
 12 14  1  0
 14 15  2  0
 15 16  1  0
 15 17  1  0
 28 29  1  0
M  END
>  <minimizedAffinity>  (275) 
-8.73057

$$$$
data/200k_reference_output/data/smiles/23024.pdb
     RDKit          3D

 25 27  0  0  0  0  0  0  0  0999 V2000
   69.8335   42.8116   57.3134 O   0  0  0  0  0  0  0  0  0  0  0  0
   68.6182   42.5250   57.2281 C   0  0  0  0  0  0  0  0  0  0  0  0
   67.8207   43.4307   56.5084 N   0  0  0  0  0  0  0  0  0  0  0  0
   68.1191   41.2916   57.8716 C   0  0  0  0  0  0  0  0  0  0  0  0
   68.6126   40.0541   57.5251 C   0  0  0  0  0  0  0  0  0  0  0  0
   68.1302   38.9137   58.1414 C   0  0  0  0  0  0  0  0  0  0  0  0
   67.1525   39.0099   59.1057 C   0  0  0  0  0  0  0  0  0  0  0  0
   66.6779   40.2516   59.4324 C   0  0  0  0  0  0  0  0  0  0  0  0
   67.1408   41.3803   58.8379 C   0  0  0  0  0  0  0  0  0  0  0  0
   66.5924   37.8258   59.8048 C   0  0  0  0  0  0  0  0  0  0  0  0
   67.5977   37.0008   60.3045 F   0  0  0  0  0  0  0  0  0  0  0  0
   65.8638   37.0578   58.9139 F   0  0  0  0  0  0  0  0  0  0  0  0
   65.7387   38.2418   60.8112 F   0  0  0  0  0  0  0  0  0  0  0  0
   68.2652   44.5875   55.9005 N   0  0  0  0  0  0  0  0  0  0  0  0
   67.9664   45.0147   54.7527 C   0  0  0  0  0  0  0  0  0  0  0  0
   68.4692   46.2520   54.1575 C   0  0  0  0  0  0  0  0  0  0  0  0
   68.4936   47.4458   54.8499 C   0  0  0  0  0  0  0  0  0  0  0  0
   68.9720   48.6130   54.2770 C   0  0  0  0  0  0  0  0  0  0  0  0
   69.4455   48.6212   52.9803 C   0  0  0  0  0  0  0  0  0  0  0  0
   69.4292   47.4367   52.2725 C   0  0  0  0  0  0  0  0  0  0  0  0
   68.9449   46.2699   52.8625 C   0  0  0  0  0  0  0  0  0  0  0  0
   69.9386   47.7352   51.0622 N   0  0  0  0  0  0  0  0  0  0  0  0
   70.2466   49.0026   51.0221 O   0  0  0  0  0  0  0  0  0  0  0  0
   69.9598   49.5611   52.1636 N   0  0  0  0  0  0  0  0  0  0  0  0
   70.1454   50.8964   52.5015 O   0  0  0  0  0  0  0  0  0  0  0  0
  1  2  2  0
  2  3  1  0
  2  4  1  0
  3 14  1  0
 14 15  2  0
 15 16  1  0
 16 17  1  0
 16 21  2  0
 17 18  2  0
 18 19  1  0
 19 20  1  0
 19 24  2  0
 20 21  1  0
 20 22  2  0
 22 23  1  0
 23 24  1  0
 24 25  1  0
  4  5  2  0
  4  9  1  0
  5  6  1  0
  6  7  2  0
  7 10  1  0
  7  8  1  0
 10 11  1  0
 10 12  1  0
 10 13  1  0
  8  9  2  0
M  CHG  2  24   1  25  -1
M  END
>  <minimizedAffinity>  (276) 
-9.05193

$$$$
data/200k_reference_output/data/smiles/23130.pdb
     RDKit          3D

 24 26  0  0  0  0  0  0  0  0999 V2000
   71.9443   54.0060   56.7200 C   0  0  0  0  0  0  0  0  0  0  0  0
   71.6275   53.0079   55.6335 C   0  0  0  0  0  0  0  0  0  0  0  0
   72.4898   52.5188   54.7648 O   0  0  0  0  0  0  0  0  0  0  0  0
   71.9023   51.6853   53.9622 N   0  0  0  0  0  0  0  0  0  0  0  0
   70.5852   51.5914   54.2844 C   0  0  0  0  0  0  0  0  0  0  0  0
   70.4130   52.4405   55.3571 C   0  0  0  0  0  0  0  0  0  0  0  0
   69.6215   50.7725   53.6416 N   0  0  0  0  0  0  0  0  0  0  0  0
   70.0478   49.3655   52.7583 S   0  0  0  0  0  0  0  0  0  0  0  0
   69.7172   49.5471   51.2820 O   0  0  0  0  0  0  0  0  0  0  0  0
   71.5395   49.1674   52.8165 O   0  0  0  0  0  0  0  0  0  0  0  0
   69.2959   47.9102   53.3638 C   0  0  0  0  0  0  0  0  0  0  0  0
   68.7784   46.9432   52.5432 C   0  0  0  0  0  0  0  0  0  0  0  0
   68.2138   45.8333   53.0946 C   0  0  0  0  0  0  0  0  0  0  0  0
   68.1470   45.6543   54.4517 C   0  0  0  0  0  0  0  0  0  0  0  0
   67.5511   44.4800   54.9749 N   0  0  0  0  0  0  0  0  0  0  0  0
   68.6567   46.6054   55.3030 C   0  0  0  0  0  0  0  0  0  0  0  0
   69.2245   47.7231   54.7250 C   0  0  0  0  0  0  0  0  0  0  0  0
   69.1758   52.6845   56.0910 C   0  0  0  0  0  0  0  0  0  0  0  0
   68.6188   51.5145   56.7679 C   0  0  0  0  0  0  0  0  0  0  0  0
   69.3185   50.4183   57.2173 C   0  0  0  0  0  0  0  0  0  0  0  0
   68.6522   49.3743   57.8432 C   0  0  0  0  0  0  0  0  0  0  0  0
   67.2857   49.3918   58.0368 C   0  0  0  0  0  0  0  0  0  0  0  0
   66.5663   50.4908   57.5893 C   0  0  0  0  0  0  0  0  0  0  0  0
   67.2345   51.5029   56.9790 C   0  0  0  0  0  0  0  0  0  0  0  0
  1  2  1  0
  2  3  1  0
  2  6  2  0
  3  4  1  0
  4  5  2  0
  5  7  1  0
  5  6  1  0
  7  8  1  0
  8  9  2  0
  8 10  2  0
  8 11  1  0
 11 12  2  0
 11 17  1  0
 12 13  1  0
 13 14  2  0
 14 15  1  0
 14 16  1  0
 16 17  2  0
  6 18  1  0
 18 19  1  0
 19 20  2  0
 19 24  1  0
 20 21  1  0
 21 22  2  0
 22 23  1  0
 23 24  2  0
M  END
>  <minimizedAffinity>  (277) 
-8.66823

$$$$
data/200k_reference_output/data/smiles/23166.pdb
     RDKit          3D

 19 21  0  0  0  0  0  0  0  0999 V2000
   69.8780   48.3404   54.9328 C   0  0  0  0  0  0  0  0  0  0  0  0
   70.8000   49.2054   54.3600 N   0  0  0  0  0  0  0  0  0  0  0  0
   70.9909   49.3052   53.0746 N   0  0  0  0  0  0  0  0  0  0  0  0
   70.3153   48.5831   52.1782 C   0  0  0  0  0  0  0  0  0  0  0  0
   70.5048   48.6851   50.9384 O   0  0  0  0  0  0  0  0  0  0  0  0
   69.3680   47.6843   52.6452 C   0  0  0  0  0  0  0  0  0  0  0  0
   68.6748   46.9149   51.7343 C   0  0  0  0  0  0  0  0  0  0  0  0
   67.7563   46.0101   52.2093 C   0  0  0  0  0  0  0  0  0  0  0  0
   67.5637   45.9052   53.5766 C   0  0  0  0  0  0  0  0  0  0  0  0
   68.2570   46.6740   54.4664 C   0  0  0  0  0  0  0  0  0  0  0  0
   69.1877   47.5986   54.0278 C   0  0  0  0  0  0  0  0  0  0  0  0
   69.7274   48.3847   56.3748 C   0  0  0  0  0  0  0  0  0  0  0  0
   67.0645   47.7515   57.6441 N   0  0  0  0  0  0  0  0  0  0  0  0
   67.4778   49.0840   57.3580 C   0  0  0  0  0  0  0  0  0  0  0  0
   66.6002   50.1298   57.6887 C   0  0  0  0  0  0  0  0  0  0  0  0
   66.9514   51.4396   57.5109 C   0  0  0  0  0  0  0  0  0  0  0  0
   68.1989   51.7294   56.9954 C   0  0  0  0  0  0  0  0  0  0  0  0
   69.0356   50.6938   56.6808 C   0  0  0  0  0  0  0  0  0  0  0  0
   68.6978   49.3325   56.8516 C   0  0  0  0  0  0  0  0  0  0  0  0
 13 14  1  0
 14 15  2  0
 14 19  1  0
 15 16  1  0
 16 17  2  0
 17 18  1  0
 18 19  2  0
 19 12  1  0
 12  1  1  0
  1  2  2  0
  1 11  1  0
  2  3  1  0
  3  4  1  0
  4  5  2  0
  4  6  1  0
  6  7  1  0
  6 11  2  0
  7  8  2  0
  8  9  1  0
  9 10  2  0
 10 11  1  0
M  END
>  <minimizedAffinity>  (278) 
-8.73919

$$$$
data/200k_reference_output/data/smiles/23176.pdb
     RDKit          3D

 27 30  0  0  0  0  0  0  0  0999 V2000
   70.6855   46.8278   58.2344 C   0  0  2  0  0  0  0  0  0  0  0  0
   71.7506   47.7127   58.8646 C   0  0  0  0  0  0  0  0  0  0  0  0
   71.8936   46.9110   60.1794 C   0  0  0  0  0  0  0  0  0  0  0  0
   71.6822   45.5654   59.8236 N   0  0  1  0  0  0  0  0  0  0  0  0
   71.4252   45.4890   58.4052 C   0  0  0  0  0  0  0  0  0  0  0  0
   70.2303   47.1279   57.0050 N   0  0  0  0  0  0  0  0  0  0  0  0
   68.8618   46.7240   56.2018 S   0  0  0  0  0  0  0  0  0  0  0  0
   67.6253   47.3256   56.9214 O   0  0  0  0  0  0  0  0  0  0  0  0
   68.6071   45.2392   56.5406 O   0  0  0  0  0  0  0  0  0  0  0  0
   69.9698   49.0198   54.3938 C   0  0  0  0  0  0  0  0  0  0  0  0
   69.2780   47.8936   53.8083 C   0  0  0  0  0  0  0  0  0  0  0  0
   69.1662   47.9354   52.4049 C   0  0  0  0  0  0  0  0  0  0  0  0
   68.5031   46.9579   51.6998 C   0  0  0  0  0  0  0  0  0  0  0  0
   67.9462   45.9312   52.3940 C   0  0  0  0  0  0  0  0  0  0  0  0
   67.2897   44.9608   51.7197 F   0  0  0  0  0  0  0  0  0  0  0  0
   68.0569   45.8917   53.7584 C   0  0  0  0  0  0  0  0  0  0  0  0
   68.7253   46.8694   54.5115 C   0  0  0  0  0  0  0  0  0  0  0  0
   72.5483   44.5689   60.2736 C   0  0  0  0  0  0  0  0  0  0  0  0
   71.9796   43.8039   61.4088 C   0  0  0  0  0  0  0  0  0  0  0  0
   70.7252   43.1924   61.2873 C   0  0  0  0  0  0  0  0  0  0  0  0
   70.1850   42.4851   62.3364 C   0  0  0  0  0  0  0  0  0  0  0  0
   70.8392   42.3436   63.5414 C   0  0  0  0  0  0  0  0  0  0  0  0
   72.0719   42.9366   63.6832 C   0  0  0  0  0  0  0  0  0  0  0  0
   72.6195   43.6547   62.6163 C   0  0  0  0  0  0  0  0  0  0  0  0
   72.5290   42.6621   64.9618 O   0  0  0  0  0  0  0  0  0  0  0  0
   71.7497   41.5937   65.5200 C   0  0  0  0  0  0  0  0  0  0  0  0
   70.5579   41.7037   64.7602 O   0  0  0  0  0  0  0  0  0  0  0  0
 10 11  1  0
 11 12  2  0
 11 17  1  0
 12 13  1  0
 13 14  2  0
 14 15  1  0
 14 16  1  0
 16 17  2  0
 17  7  1  0
  7  8  2  0
  7  9  2  0
  7  6  1  0
  1  6  1  6
  1  2  1  0
  1  5  1  0
  2  3  1  0
  3  4  1  0
  4 18  1  6
  4  5  1  0
 18 19  1  0
 19 20  2  0
 19 24  1  0
 20 21  1  0
 21 22  2  0
 22 23  1  0
 22 27  1  0
 23 24  2  0
 23 25  1  0
 25 26  1  0
 26 27  1  0
M  CHG  1   4   1
M  END
>  <minimizedAffinity>  (279) 
-8.74665

$$$$
data/200k_reference_output/data/smiles/23334.pdb
     RDKit          3D

 25 28  0  0  0  0  0  0  0  0999 V2000
   68.7557   52.0063   55.0671 C   0  0  0  0  0  0  0  0  0  0  0  0
   70.0139   51.2567   55.3184 C   0  0  2  0  0  0  0  0  0  0  0  0
   70.7364   50.8549   54.0573 C   0  0  0  0  0  0  0  0  0  0  0  0
   70.1021   49.7114   53.3511 C   0  0  0  0  0  0  0  0  0  0  0  0
   69.6589   48.5820   54.2187 C   0  0  2  0  0  0  0  0  0  0  0  0
   68.9478   47.5776   53.4378 C   0  0  0  0  0  0  0  0  0  0  0  0
   68.9119   47.5042   52.0737 C   0  0  0  0  0  0  0  0  0  0  0  0
   68.1821   46.4867   51.4407 C   0  0  0  0  0  0  0  0  0  0  0  0
   67.4982   45.5601   52.1916 C   0  0  0  0  0  0  0  0  0  0  0  0
   66.7825   44.5636   51.5759 O   0  0  0  0  0  0  0  0  0  0  0  0
   67.5238   45.6205   53.5630 C   0  0  0  0  0  0  0  0  0  0  0  0
   68.2352   46.6094   54.1647 C   0  0  0  0  0  0  0  0  0  0  0  0
   68.2976   46.7021   55.6134 C   0  0  0  0  0  0  0  0  0  0  0  0
   68.4143   45.6446   56.3015 N   0  0  0  0  0  0  0  0  0  0  0  0
   68.2487   48.0603   56.2543 C   0  0  0  0  0  0  0  0  0  0  0  0
   68.8593   49.1185   55.4042 C   0  0  1  0  0  0  0  0  0  0  0  0
   69.8072   49.9954   56.1468 C   0  0  2  0  0  0  0  0  0  0  0  0
   69.3429   50.5327   57.4356 C   0  0  0  0  0  0  0  0  0  0  0  0
   70.2374   51.7571   57.6361 C   0  0  0  0  0  0  0  0  0  0  0  0
   70.8690   52.0360   56.2772 C   0  0  2  0  0  0  0  0  0  0  0  0
   70.8516   53.4008   56.0517 O   0  0  0  0  0  0  0  0  0  0  0  0
   68.4885   44.3939   55.7249 N   0  0  0  0  0  0  0  0  0  0  0  0
   68.4550   43.2421   56.5542 C   0  0  0  0  0  0  0  0  0  0  0  0
   69.2728   43.1245   57.7015 N   0  0  0  0  0  0  0  0  0  0  0  0
   67.4380   42.0225   56.1582 S   0  0  0  0  0  0  0  0  0  0  0  0
  2  1  1  6
  2  3  1  0
  2 17  1  0
  2 20  1  0
  3  4  1  0
  5  4  1  6
  5  6  1  0
  5 16  1  0
  6  7  2  0
  6 12  1  0
  7  8  1  0
  8  9  2  0
  9 10  1  0
  9 11  1  0
 11 12  2  0
 12 13  1  0
 13 14  2  0
 13 15  1  0
 14 22  1  0
 22 23  1  0
 23 24  1  0
 23 25  2  0
 16 15  1  1
 16 17  1  0
 17 18  1  1
 18 19  1  0
 19 20  1  0
 20 21  1  6
M  END
>  <minimizedAffinity>  (280) 
-8.82457

$$$$
data/200k_reference_output/data/smiles/23400.pdb
     RDKit          3D

 27 29  0  0  0  0  0  0  0  0999 V2000
   69.2431   40.1412   57.8362 C   0  0  0  0  0  0  0  0  0  0  0  0
   68.0844   39.9963   57.1031 C   0  0  0  0  0  0  0  0  0  0  0  0
   67.5144   41.0995   56.4694 C   0  0  0  0  0  0  0  0  0  0  0  0
   68.1151   42.3349   56.5802 C   0  0  0  0  0  0  0  0  0  0  0  0
   69.2723   42.5087   57.3048 C   0  0  0  0  0  0  0  0  0  0  0  0
   69.8024   41.3997   57.9132 C   0  0  0  0  0  0  0  0  0  0  0  0
   71.5491   37.2889   58.6685 C   0  0  0  0  0  0  0  0  0  0  0  0
   70.9100   36.6703   59.7224 C   0  0  0  0  0  0  0  0  0  0  0  0
   69.7138   37.2184   60.1387 C   0  0  0  0  0  0  0  0  0  0  0  0
   69.1643   38.3345   59.5429 C   0  0  0  0  0  0  0  0  0  0  0  0
   69.8056   38.9596   58.4822 C   0  0  0  0  0  0  0  0  0  0  0  0
   71.0028   38.4043   58.0709 C   0  0  0  0  0  0  0  0  0  0  0  0
   73.8028   36.2634   57.8532 N   0  0  0  0  0  0  0  0  0  0  0  0
   72.7932   36.7245   58.2301 C   0  0  0  0  0  0  0  0  0  0  0  0
   69.8800   43.8336   57.3992 C   0  0  0  0  0  0  0  0  0  0  0  0
   71.0119   43.9496   57.9355 O   0  0  0  0  0  0  0  0  0  0  0  0
   69.2484   44.9889   56.9110 N   0  0  0  0  0  0  0  0  0  0  0  0
   69.8955   46.2204   57.0390 N   0  0  0  0  0  0  0  0  0  0  0  0
   68.9103   47.4217   56.2704 S   0  0  0  0  0  0  0  0  0  0  0  0
   67.5845   47.4358   56.9660 O   0  0  0  0  0  0  0  0  0  0  0  0
   69.5516   48.7667   56.3987 O   0  0  0  0  0  0  0  0  0  0  0  0
   68.7132   47.0724   54.5746 C   0  0  0  0  0  0  0  0  0  0  0  0
   69.3042   47.8783   53.5996 C   0  0  0  0  0  0  0  0  0  0  0  0
   69.1419   47.5939   52.2622 C   0  0  0  0  0  0  0  0  0  0  0  0
   68.3963   46.5121   51.8477 C   0  0  0  0  0  0  0  0  0  0  0  0
   67.8137   45.7195   52.8232 C   0  0  0  0  0  0  0  0  0  0  0  0
   67.9698   45.9952   54.1619 C   0  0  0  0  0  0  0  0  0  0  0  0
 13 14  3  0
 14  7  1  0
  7  8  2  0
  7 12  1  0
  8  9  1  0
  9 10  2  0
 10 11  1  0
 11  1  1  0
 11 12  2  0
  1  2  2  0
  1  6  1  0
  2  3  1  0
  3  4  2  0
  4  5  1  0
  5 15  1  0
  5  6  2  0
 15 16  2  0
 15 17  1  0
 17 18  1  0
 18 19  1  0
 19 20  2  0
 19 21  2  0
 19 22  1  0
 22 23  2  0
 22 27  1  0
 23 24  1  0
 24 25  2  0
 25 26  1  0
 26 27  2  0
M  END
>  <minimizedAffinity>  (281) 
-9.32376

$$$$
data/200k_reference_output/data/smiles/23433.pdb
     RDKit          3D

 27 28  0  0  0  0  0  0  0  0999 V2000
   69.3861   50.7359   54.8182 C   0  0  0  0  0  0  0  0  0  0  0  0
   68.4045   50.2575   55.6910 C   0  0  0  0  0  0  0  0  0  0  0  0
   68.0349   50.9347   56.8259 C   0  0  0  0  0  0  0  0  0  0  0  0
   68.6563   52.1364   57.1220 C   0  0  0  0  0  0  0  0  0  0  0  0
   69.6343   52.6629   56.2987 C   0  0  0  0  0  0  0  0  0  0  0  0
   69.9641   51.9405   55.1742 C   0  0  0  0  0  0  0  0  0  0  0  0
   66.9920   50.4104   57.7370 C   0  0  0  0  0  0  0  0  0  0  0  0
   65.8735   51.2350   57.6898 F   0  0  0  0  0  0  0  0  0  0  0  0
   67.4886   50.3982   59.0345 F   0  0  0  0  0  0  0  0  0  0  0  0
   66.5944   49.1543   57.3913 F   0  0  0  0  0  0  0  0  0  0  0  0
   70.2813   53.9549   56.6461 C   0  0  0  0  0  0  0  0  0  0  0  0
   70.9833   54.3484   55.5022 F   0  0  0  0  0  0  0  0  0  0  0  0
   71.2374   53.6554   57.6041 F   0  0  0  0  0  0  0  0  0  0  0  0
   69.4066   54.9120   57.0551 F   0  0  0  0  0  0  0  0  0  0  0  0
   69.7215   49.9914   53.6067 C   0  0  0  0  0  0  0  0  0  0  0  0
   70.0646   48.5502   53.7584 C   0  0  0  0  0  0  0  0  0  0  0  0
   68.3263   46.7569   53.7255 C   0  0  0  0  0  0  0  0  0  0  0  0
   67.5009   45.9624   52.9605 N   0  0  0  0  0  0  0  0  0  0  0  0
   67.5341   45.9713   51.6369 C   0  0  0  0  0  0  0  0  0  0  0  0
   66.7557   45.2231   50.9477 O   0  0  0  0  0  0  0  0  0  0  0  0
   68.3790   46.7613   50.9892 N   0  0  0  0  0  0  0  0  0  0  0  0
   69.1973   47.5498   51.6936 C   0  0  0  0  0  0  0  0  0  0  0  0
   69.9876   48.2881   51.0687 O   0  0  0  0  0  0  0  0  0  0  0  0
   69.2095   47.5886   53.0925 C   0  0  0  0  0  0  0  0  0  0  0  0
   67.3843   47.0973   55.9275 O   0  0  0  0  0  0  0  0  0  0  0  0
   68.2329   46.6068   55.1553 C   0  0  0  0  0  0  0  0  0  0  0  0
   69.1955   45.8177   55.8095 O   0  0  0  0  0  0  0  0  0  0  0  0
 25 26  2  0
 26 27  1  0
 26 17  1  0
 17 18  1  0
 17 24  2  0
 18 19  1  0
 19 20  2  0
 19 21  1  0
 21 22  1  0
 22 23  2  0
 22 24  1  0
 24 16  1  0
 16 15  1  0
 15  1  1  0
  1  2  2  0
  1  6  1  0
  2  3  1  0
  3  7  1  0
  3  4  2  0
  7  8  1  0
  7  9  1  0
  7 10  1  0
  4  5  1  0
  5 11  1  0
  5  6  2  0
 11 12  1  0
 11 13  1  0
 11 14  1  0
M  END
>  <minimizedAffinity>  (282) 
-8.73781

$$$$
data/200k_reference_output/data/smiles/23449.pdb
     RDKit          3D

 26 27  0  0  0  0  0  0  0  0999 V2000
   68.7549   48.3449   56.8787 S   0  0  0  0  0  0  0  0  0  0  0  0
   68.4950   49.7016   57.4460 O   0  0  0  0  0  0  0  0  0  0  0  0
   67.5308   47.4993   56.9569 O   0  0  0  0  0  0  0  0  0  0  0  0
   70.0411   47.5216   57.7694 C   0  0  0  0  0  0  0  0  0  0  0  0
   70.2144   46.2218   57.7049 C   0  0  0  0  0  0  0  0  0  0  0  0
   71.2622   45.5169   58.4256 C   0  0  0  0  0  0  0  0  0  0  0  0
   71.8397   45.9603   59.5864 C   0  0  0  0  0  0  0  0  0  0  0  0
   72.8420   45.2189   60.2139 C   0  0  0  0  0  0  0  0  0  0  0  0
   73.2704   44.0325   59.6833 C   0  0  0  0  0  0  0  0  0  0  0  0
   72.6887   43.5859   58.5146 C   0  0  0  0  0  0  0  0  0  0  0  0
   71.7083   44.3202   57.9089 C   0  0  0  0  0  0  0  0  0  0  0  0
   73.1107   42.3017   57.8860 C   0  0  0  0  0  0  0  0  0  0  0  0
   73.6973   42.6221   56.6820 F   0  0  0  0  0  0  0  0  0  0  0  0
   74.0229   41.6441   58.6598 F   0  0  0  0  0  0  0  0  0  0  0  0
   72.0003   41.4972   57.7013 F   0  0  0  0  0  0  0  0  0  0  0  0
   69.3002   48.5020   55.2510 N   0  0  0  0  0  0  0  0  0  0  0  0
   69.1358   47.8129   52.9259 C   0  0  0  0  0  0  0  0  0  0  0  0
   68.7143   46.9295   51.9806 C   0  0  0  0  0  0  0  0  0  0  0  0
   68.0171   45.8109   52.3644 C   0  0  0  0  0  0  0  0  0  0  0  0
   67.7268   45.5502   53.6746 C   0  0  0  0  0  0  0  0  0  0  0  0
   68.1564   46.4501   54.6302 C   0  0  0  0  0  0  0  0  0  0  0  0
   68.8646   47.5874   54.2652 C   0  0  0  0  0  0  0  0  0  0  0  0
   69.2912   50.6330   53.1246 N   0  0  0  0  0  0  0  0  0  0  0  0
   70.0237   49.2378   52.4600 S   0  0  0  0  0  0  0  0  0  0  0  0
   70.0572   49.3676   50.9533 O   0  0  0  0  0  0  0  0  0  0  0  0
   71.4428   49.1783   52.9692 O   0  0  0  0  0  0  0  0  0  0  0  0
 23 24  1  0
 24 25  2  0
 24 26  2  0
 24 17  1  0
 17 18  2  0
 17 22  1  0
 18 19  1  0
 19 20  2  0
 20 21  1  0
 21 22  2  0
 22 16  1  0
 16  1  1  0
  1  2  2  0
  1  3  2  0
  1  4  1  0
  4  5  2  0
  5  6  1  0
  6  7  2  0
  6 11  1  0
  7  8  1  0
  8  9  2  0
  9 10  1  0
 10 12  1  0
 10 11  2  0
 12 13  1  0
 12 14  1  0
 12 15  1  0
M  END
>  <minimizedAffinity>  (283) 
-8.59076

$$$$
data/200k_reference_output/data/smiles/23577.pdb
     RDKit          3D

 27 29  0  0  0  0  0  0  0  0999 V2000
   70.4848   46.6703   58.2405 C   0  0  1  0  0  0  0  0  0  0  0  0
   71.4996   47.3309   59.0475 C   0  0  0  0  0  0  0  0  0  0  0  0
   72.4668   48.0128   58.6363 O   0  0  0  0  0  0  0  0  0  0  0  0
   71.4372   47.2170   60.4516 O   0  0  0  0  0  0  0  0  0  0  0  0
   70.1001   45.4148   58.8270 N   0  0  0  0  0  0  0  0  0  0  0  0
   70.3064   41.6106   58.4611 C   0  0  0  0  0  0  0  0  0  0  0  0
   71.5319   41.4715   58.0230 C   0  0  0  0  0  0  0  0  0  0  0  0
   72.3734   42.6576   57.8216 C   0  0  0  0  0  0  0  0  0  0  0  0
   73.5534   42.5380   57.4012 O   0  0  0  0  0  0  0  0  0  0  0  0
   71.8560   43.9771   58.1042 C   0  0  0  0  0  0  0  0  0  0  0  0
   70.5840   44.1254   58.5582 C   0  0  0  0  0  0  0  0  0  0  0  0
   69.7700   42.9491   58.7513 C   0  0  0  0  0  0  0  0  0  0  0  0
   68.5780   42.9427   59.1663 O   0  0  0  0  0  0  0  0  0  0  0  0
   70.2627   39.1475   58.5007 C   0  0  0  0  0  0  0  0  0  0  0  0
   69.4661   40.4124   58.6606 C   0  0  0  0  0  0  0  0  0  0  0  0
   68.3364   40.3963   57.6528 C   0  0  0  0  0  0  0  0  0  0  0  0
   68.8458   40.4072   60.0386 C   0  0  0  0  0  0  0  0  0  0  0  0
   69.3700   47.5128   57.7359 C   0  0  0  0  0  0  0  0  0  0  0  0
   69.0172   47.1225   56.3413 C   0  0  0  0  0  0  0  0  0  0  0  0
   69.3767   47.8677   55.2101 C   0  0  0  0  0  0  0  0  0  0  0  0
   68.8633   47.1916   54.1250 C   0  0  0  0  0  0  0  0  0  0  0  0
   68.8883   47.4271   52.7673 C   0  0  0  0  0  0  0  0  0  0  0  0
   68.2899   46.5871   51.8545 C   0  0  0  0  0  0  0  0  0  0  0  0
   67.6293   45.4559   52.2825 C   0  0  0  0  0  0  0  0  0  0  0  0
   67.6022   45.2164   53.6396 C   0  0  0  0  0  0  0  0  0  0  0  0
   68.2052   46.0609   54.5590 C   0  0  0  0  0  0  0  0  0  0  0  0
   68.3229   46.0601   55.9014 N   0  0  0  0  0  0  0  0  0  0  0  0
 14 15  1  0
 15 16  1  0
 15 17  1  0
 15  6  1  0
  6  7  2  0
  6 12  1  0
  7  8  1  0
  8  9  2  0
  8 10  1  0
 10 11  2  0
 11  5  1  0
 11 12  1  0
  5  1  1  0
  1 18  1  1
  1  2  1  0
 18 19  1  0
 19 20  2  0
 19 27  1  0
 20 21  1  0
 21 22  2  0
 21 26  1  0
 22 23  1  0
 23 24  2  0
 24 25  1  0
 25 26  2  0
 26 27  1  0
  2  3  2  0
  2  4  1  0
 12 13  2  0
M  END
>  <minimizedAffinity>  (284) 
-8.84790

$$$$
data/200k_reference_output/data/smiles/23610.pdb
     RDKit          3D

 27 29  0  0  0  0  0  0  0  0999 V2000
   68.9976   46.6502   55.8439 C   0  0  0  0  0  0  0  0  0  0  0  0
   69.2401   47.8570   55.2380 C   0  0  0  0  0  0  0  0  0  0  0  0
   68.9133   48.0322   53.9035 C   0  0  0  0  0  0  0  0  0  0  0  0
   68.3528   46.9765   53.2364 C   0  0  0  0  0  0  0  0  0  0  0  0
   68.0966   45.7381   53.8304 C   0  0  0  0  0  0  0  0  0  0  0  0
   68.4296   45.5891   55.1573 C   0  0  0  0  0  0  0  0  0  0  0  0
   68.1940   44.3946   55.7684 F   0  0  0  0  0  0  0  0  0  0  0  0
   70.6888   46.7430   59.2269 N   0  0  0  0  0  0  0  0  0  0  0  0
   70.4594   47.0254   57.8346 C   0  0  0  0  0  0  0  0  0  0  0  0
   71.2256   47.7578   57.1856 O   0  0  0  0  0  0  0  0  0  0  0  0
   69.3217   46.4400   57.2132 N   0  0  0  0  0  0  0  0  0  0  0  0
   71.8126   47.2976   59.9202 C   0  0  0  0  0  0  0  0  0  0  0  0
   73.7026   46.4035   61.1114 O   0  0  0  0  0  0  0  0  0  0  0  0
   72.5078   46.2696   60.7456 C   0  0  0  0  0  0  0  0  0  0  0  0
   71.7845   45.1396   61.1039 O   0  0  0  0  0  0  0  0  0  0  0  0
   69.1684   49.3474   53.2594 C   0  0  0  0  0  0  0  0  0  0  0  0
   70.2928   50.1018   53.8150 C   0  0  0  0  0  0  0  0  0  0  0  0
   71.5660   49.6881   53.5258 N   0  0  0  0  0  0  0  0  0  0  0  0
   72.6426   50.3199   53.9498 N   0  0  0  0  0  0  0  0  0  0  0  0
   72.5659   51.4345   54.7068 C   0  0  0  0  0  0  0  0  0  0  0  0
   73.6088   52.0195   55.0977 O   0  0  0  0  0  0  0  0  0  0  0  0
   71.3130   51.9211   55.0457 C   0  0  0  0  0  0  0  0  0  0  0  0
   70.2073   51.2379   54.5890 C   0  0  0  0  0  0  0  0  0  0  0  0
   68.8823   51.7250   54.9692 C   0  0  0  0  0  0  0  0  0  0  0  0
   68.9867   52.3134   56.3646 C   0  0  0  0  0  0  0  0  0  0  0  0
   69.8720   53.5441   56.2438 C   0  0  0  0  0  0  0  0  0  0  0  0
   71.2847   53.1522   55.8677 C   0  0  0  0  0  0  0  0  0  0  0  0
 13 14  2  0
 14 15  1  0
 14 12  1  0
 12  8  1  0
  8  9  1  0
  9 10  2  0
  9 11  1  0
 11  1  1  0
  1  2  2  0
  1  6  1  0
  2  3  1  0
  3 16  1  0
  3  4  2  0
 16 17  1  0
 17 18  2  0
 17 23  1  0
 18 19  1  0
 19 20  1  0
 20 21  2  0
 20 22  1  0
 22 23  2  0
 22 27  1  0
 23 24  1  0
 24 25  1  0
 25 26  1  0
 26 27  1  0
  4  5  1  0
  5  6  2  0
  6  7  1  0
M  END
>  <minimizedAffinity>  (285) 
-8.94056

$$$$
data/200k_reference_output/data/smiles/23623.pdb
     RDKit          3D

 22 24  0  0  0  0  0  0  0  0999 V2000
   67.2436   47.5026   56.6513 O   0  0  0  0  0  0  0  0  0  0  0  0
   68.7643   47.5600   56.4998 S   0  0  0  0  0  0  0  0  0  0  0  0
   69.2115   46.1520   56.8030 O   0  0  0  0  0  0  0  0  0  0  0  0
   69.1057   47.9928   54.8457 C   0  0  0  0  0  0  0  0  0  0  0  0
   69.9417   49.0868   54.5840 C   0  0  0  0  0  0  0  0  0  0  0  0
   70.3335   49.4453   53.3213 C   0  0  0  0  0  0  0  0  0  0  0  0
   69.9115   48.7275   52.2259 C   0  0  0  0  0  0  0  0  0  0  0  0
   70.3153   49.0972   50.9420 O   0  0  0  0  0  0  0  0  0  0  0  0
   69.0864   47.6463   52.4512 C   0  0  0  0  0  0  0  0  0  0  0  0
   68.6576   46.9677   51.3756 N   0  0  0  0  0  0  0  0  0  0  0  0
   67.8337   45.9251   51.5060 C   0  0  0  0  0  0  0  0  0  0  0  0
   67.4280   45.5576   52.7744 C   0  0  0  0  0  0  0  0  0  0  0  0
   67.8389   46.2198   53.9116 C   0  0  0  0  0  0  0  0  0  0  0  0
   68.6915   47.2901   53.7418 C   0  0  0  0  0  0  0  0  0  0  0  0
   69.3391   48.7038   57.5665 N   0  0  0  0  0  0  0  0  0  0  0  0
   68.5921   49.7966   57.9896 C   0  0  0  0  0  0  0  0  0  0  0  0
   69.1264   51.0325   57.2896 C   0  0  0  0  0  0  0  0  0  0  0  0
   68.3652   51.7334   56.3815 C   0  0  0  0  0  0  0  0  0  0  0  0
   68.8537   52.8548   55.7467 C   0  0  0  0  0  0  0  0  0  0  0  0
   70.1287   53.3038   56.0112 C   0  0  0  0  0  0  0  0  0  0  0  0
   70.8940   52.6097   56.9167 C   0  0  0  0  0  0  0  0  0  0  0  0
   70.3991   51.4894   57.5471 C   0  0  0  0  0  0  0  0  0  0  0  0
  1  2  2  0
  2  3  2  0
  2 15  1  0
  2  4  1  0
 15 16  1  0
 16 17  1  0
 17 18  2  0
 17 22  1  0
 18 19  1  0
 19 20  2  0
 20 21  1  0
 21 22  2  0
  4  5  2  0
  4 14  1  0
  5  6  1  0
  6  7  2  0
  7  8  1  0
  7  9  1  0
  9 10  1  0
  9 14  2  0
 10 11  2  0
 11 12  1  0
 12 13  2  0
 13 14  1  0
M  END
>  <minimizedAffinity>  (286) 
-8.70522

$$$$
data/200k_reference_output/data/smiles/23678.pdb
     RDKit          3D

 30 33  0  0  0  0  0  0  0  0999 V2000
   72.0617   43.7559   59.0312 N   0  0  0  0  0  0  0  0  0  0  0  0
   71.7483   43.2915   60.3117 C   0  0  0  0  0  0  0  0  0  0  0  0
   71.1727   41.9053   60.2355 C   0  0  0  0  0  0  0  0  0  0  0  0
   70.2308   41.7878   59.0594 C   0  0  0  0  0  0  0  0  0  0  0  0
   70.8754   42.1448   57.7520 C   0  0  0  0  0  0  0  0  0  0  0  0
   72.1949   42.8151   58.0114 C   0  0  0  0  0  0  0  0  0  0  0  0
   69.1044   42.7116   59.3605 C   0  0  0  0  0  0  0  0  0  0  0  0
   69.0703   43.7974   59.9885 O   0  0  0  0  0  0  0  0  0  0  0  0
   67.9573   42.0888   58.7525 N   0  0  0  0  0  0  0  0  0  0  0  0
   68.2022   40.6659   58.7862 C   0  0  0  0  0  0  0  0  0  0  0  0
   69.6356   40.5126   58.9315 N   0  0  0  0  0  0  0  0  0  0  0  0
   70.2054   39.1855   58.9361 C   0  0  0  0  0  0  0  0  0  0  0  0
   71.2266   38.8134   58.1073 C   0  0  0  0  0  0  0  0  0  0  0  0
   71.7893   37.5301   58.1243 C   0  0  0  0  0  0  0  0  0  0  0  0
   71.3100   36.5900   59.0015 C   0  0  0  0  0  0  0  0  0  0  0  0
   70.2785   36.9405   59.8483 C   0  0  0  0  0  0  0  0  0  0  0  0
   69.6801   35.7415   60.9535 Cl  0  0  0  0  0  0  0  0  0  0  0  0
   69.7376   38.2095   59.8162 C   0  0  0  0  0  0  0  0  0  0  0  0
   71.9727   45.1209   58.7512 C   0  0  0  0  0  0  0  0  0  0  0  0
   70.6251   45.7080   58.5202 C   0  0  0  0  0  0  0  0  0  0  0  0
   68.5601   47.2374   57.4840 O   0  0  0  0  0  0  0  0  0  0  0  0
   69.1934   46.5566   56.6362 C   0  0  0  0  0  0  0  0  0  0  0  0
   70.2590   45.7567   57.1121 N   0  0  0  0  0  0  0  0  0  0  0  0
   68.8555   46.5801   55.2186 C   0  0  0  0  0  0  0  0  0  0  0  0
   68.1599   45.5001   54.6582 C   0  0  0  0  0  0  0  0  0  0  0  0
   67.8170   45.4700   53.3279 C   0  0  0  0  0  0  0  0  0  0  0  0
   68.1426   46.5022   52.4873 C   0  0  0  0  0  0  0  0  0  0  0  0
   67.7862   46.4368   51.1740 F   0  0  0  0  0  0  0  0  0  0  0  0
   68.8189   47.5642   53.0035 C   0  0  0  0  0  0  0  0  0  0  0  0
   69.1671   47.5955   54.3532 C   0  0  0  0  0  0  0  0  0  0  0  0
 21 22  2  0
 22 23  1  0
 22 24  1  0
 23 20  1  0
 20 19  1  0
 19  1  1  0
  1  2  1  0
  1  6  1  0
  2  3  1  0
  3  4  1  0
  4  5  1  0
  4  7  1  0
  4 11  1  0
  5  6  1  0
  7  8  2  0
  7  9  1  0
  9 10  1  0
 10 11  1  0
 11 12  1  0
 12 13  2  0
 12 18  1  0
 13 14  1  0
 14 15  2  0
 15 16  1  0
 16 17  1  0
 16 18  2  0
 24 25  2  0
 24 30  1  0
 25 26  1  0
 26 27  2  0
 27 28  1  0
 27 29  1  0
 29 30  2  0
M  CHG  1   1   1
M  END
>  <minimizedAffinity>  (287) 
-8.61229

$$$$
data/200k_reference_output/data/smiles/23815.pdb
     RDKit          3D

 22 25  0  0  0  0  0  0  0  0999 V2000
   66.2453   41.9784   55.0404 O   0  0  0  0  0  0  0  0  0  0  0  0
   67.1841   42.6441   55.5503 C   0  0  0  0  0  0  0  0  0  0  0  0
   67.3815   43.9355   55.1567 N   0  0  0  0  0  0  0  0  0  0  0  0
   68.3692   44.6657   55.6808 C   0  0  0  0  0  0  0  0  0  0  0  0
   69.1518   44.0639   56.6077 N   0  0  0  0  0  0  0  0  0  0  0  0
   69.0095   42.8106   57.0299 C   0  0  0  0  0  0  0  0  0  0  0  0
   69.8389   42.2358   57.9847 C   0  0  0  0  0  0  0  0  0  0  0  0
   69.6793   40.9379   58.4130 C   0  0  0  0  0  0  0  0  0  0  0  0
   68.6559   40.1959   57.8651 C   0  0  0  0  0  0  0  0  0  0  0  0
   67.8176   40.7504   56.9112 C   0  0  0  0  0  0  0  0  0  0  0  0
   67.9977   42.0593   56.4961 C   0  0  0  0  0  0  0  0  0  0  0  0
   68.6196   46.0581   55.2884 C   0  0  0  0  0  0  0  0  0  0  0  0
   68.5486   47.0933   56.1835 C   0  0  0  0  0  0  0  0  0  0  0  0
   68.7977   48.4032   55.7539 C   0  0  0  0  0  0  0  0  0  0  0  0
   69.1122   48.6631   54.4504 C   0  0  0  0  0  0  0  0  0  0  0  0
   69.3615   49.9369   53.9981 C   0  0  0  0  0  0  0  0  0  0  0  0
   69.6777   50.1805   52.6780 C   0  0  0  0  0  0  0  0  0  0  0  0
   69.7469   49.1462   51.7954 C   0  0  0  0  0  0  0  0  0  0  0  0
   69.4962   47.8701   52.2492 C   0  0  0  0  0  0  0  0  0  0  0  0
   69.5561   46.7883   51.3790 O   0  0  0  0  0  0  0  0  0  0  0  0
   69.1774   47.6070   53.5714 C   0  0  0  0  0  0  0  0  0  0  0  0
   68.9353   46.3660   54.0051 N   0  0  0  0  0  0  0  0  0  0  0  0
  1  2  2  0
  2  3  1  0
  2 11  1  0
  3  4  1  0
  4 12  1  0
  4  5  2  0
 12 13  2  0
 12 22  1  0
 13 14  1  0
 14 15  2  0
 15 16  1  0
 15 21  1  0
 16 17  2  0
 17 18  1  0
 18 19  2  0
 19 20  1  0
 19 21  1  0
 21 22  2  0
  5  6  1  0
  6  7  1  0
  6 11  2  0
  7  8  2  0
  8  9  1  0
  9 10  2  0
 10 11  1  0
M  END
>  <minimizedAffinity>  (288) 
-8.51432

$$$$
data/200k_reference_output/data/smiles/23998.pdb
     RDKit          3D

 31 34  0  0  0  0  0  0  0  0999 V2000
   71.1105   45.3576   59.9124 O   0  0  0  0  0  0  0  0  0  0  0  0
   70.8188   44.8996   58.7811 C   0  0  0  0  0  0  0  0  0  0  0  0
   70.6845   43.4934   58.6424 N   0  0  0  0  0  0  0  0  0  0  0  0
   70.8782   42.6120   59.7700 C   0  0  0  0  0  0  0  0  0  0  0  0
   70.4187   41.2055   59.3954 C   0  0  0  0  0  0  0  0  0  0  0  0
   69.1220   41.3460   58.7938 N   0  0  0  0  0  0  0  0  0  0  0  0
   69.0328   42.1406   57.5895 C   0  0  0  0  0  0  0  0  0  0  0  0
   70.3498   42.8956   57.3676 C   0  0  0  0  0  0  0  0  0  0  0  0
   67.9745   40.7397   59.3681 C   0  0  0  0  0  0  0  0  0  0  0  0
   67.1490   41.3829   60.2613 C   0  0  0  0  0  0  0  0  0  0  0  0
   66.0275   40.7890   60.8046 C   0  0  0  0  0  0  0  0  0  0  0  0
   65.7255   39.5063   60.4382 C   0  0  0  0  0  0  0  0  0  0  0  0
   66.5493   38.8563   59.5441 C   0  0  0  0  0  0  0  0  0  0  0  0
   66.2435   37.5832   59.1849 F   0  0  0  0  0  0  0  0  0  0  0  0
   67.6591   39.4269   58.9988 C   0  0  0  0  0  0  0  0  0  0  0  0
   68.4627   38.7503   58.1166 F   0  0  0  0  0  0  0  0  0  0  0  0
   70.6336   45.8381   57.6748 C   0  0  0  0  0  0  0  0  0  0  0  0
   69.2861   45.8577   57.1593 N   0  0  0  0  0  0  0  0  0  0  0  0
   68.7923   47.4528   56.7797 S   0  0  0  0  0  0  0  0  0  0  0  0
   69.5580   48.3903   57.7070 O   0  0  0  0  0  0  0  0  0  0  0  0
   67.3445   47.6890   57.1228 O   0  0  0  0  0  0  0  0  0  0  0  0
   69.1573   47.9334   55.1520 C   0  0  0  0  0  0  0  0  0  0  0  0
   69.9387   49.0711   54.9076 C   0  0  0  0  0  0  0  0  0  0  0  0
   70.2793   49.4598   53.6378 C   0  0  0  0  0  0  0  0  0  0  0  0
   69.8654   48.7477   52.5483 C   0  0  0  0  0  0  0  0  0  0  0  0
   69.0957   47.6266   52.7529 C   0  0  0  0  0  0  0  0  0  0  0  0
   68.6625   46.9055   51.6614 C   0  0  0  0  0  0  0  0  0  0  0  0
   67.8960   45.8059   51.8284 N   0  0  0  0  0  0  0  0  0  0  0  0
   67.5598   45.4252   53.0781 C   0  0  0  0  0  0  0  0  0  0  0  0
   67.9603   46.1021   54.2091 C   0  0  0  0  0  0  0  0  0  0  0  0
   68.7461   47.2277   54.0487 C   0  0  0  0  0  0  0  0  0  0  0  0
  1  2  2  0
  2 17  1  0
  2  3  1  0
 17 18  1  0
 18 19  1  0
 19 20  2  0
 19 21  2  0
 19 22  1  0
 22 23  2  0
 22 31  1  0
 23 24  1  0
 24 25  2  0
 25 26  1  0
 26 27  1  0
 26 31  2  0
 27 28  2  0
 28 29  1  0
 29 30  2  0
 30 31  1  0
  3  4  1  0
  3  8  1  0
  4  5  1  0
  5  6  1  0
  6  9  1  0
  6  7  1  0
  9 10  2  0
  9 15  1  0
 10 11  1  0
 11 12  2  0
 12 13  1  0
 13 14  1  0
 13 15  2  0
 15 16  1  0
  7  8  1  0
M  END
>  <minimizedAffinity>  (289) 
-8.85923

$$$$
data/200k_reference_output/data/smiles/24010.pdb
     RDKit          3D

 26 28  0  0  0  0  0  0  0  0999 V2000
   69.1767   40.2375   57.7590 C   0  0  0  0  0  0  0  0  0  0  0  0
   68.1439   40.0946   56.8583 C   0  0  0  0  0  0  0  0  0  0  0  0
   67.6809   41.2126   56.1932 C   0  0  0  0  0  0  0  0  0  0  0  0
   66.6587   41.0277   55.3112 F   0  0  0  0  0  0  0  0  0  0  0  0
   68.2314   42.4505   56.4175 C   0  0  0  0  0  0  0  0  0  0  0  0
   69.2835   42.6350   57.3271 C   0  0  0  0  0  0  0  0  0  0  0  0
   69.7041   41.4927   57.9593 C   0  0  0  0  0  0  0  0  0  0  0  0
   69.5355   36.3478   60.8696 C   0  0  0  0  0  0  0  0  0  0  0  0
   69.8702   37.3766   59.8258 C   0  0  0  0  0  0  0  0  0  0  0  0
   71.0532   37.4837   59.1275 C   0  0  0  0  0  0  0  0  0  0  0  0
   70.9010   38.5682   58.2867 C   0  0  0  0  0  0  0  0  0  0  0  0
   69.6820   39.0918   58.4694 N   0  0  0  0  0  0  0  0  0  0  0  0
   69.0879   38.3701   59.3856 N   0  0  0  0  0  0  0  0  0  0  0  0
   69.8417   43.9638   57.5377 C   0  0  0  0  0  0  0  0  0  0  0  0
   70.8586   44.0870   58.2330 O   0  0  0  0  0  0  0  0  0  0  0  0
   69.2415   45.0990   56.9648 N   0  0  0  0  0  0  0  0  0  0  0  0
   69.7238   46.4007   57.1254 N   0  0  0  0  0  0  0  0  0  0  0  0
   68.7493   47.5569   56.3186 S   0  0  0  0  0  0  0  0  0  0  0  0
   67.3729   47.5535   56.9235 O   0  0  0  0  0  0  0  0  0  0  0  0
   69.3714   48.9138   56.5438 O   0  0  0  0  0  0  0  0  0  0  0  0
   68.6566   47.1877   54.5975 C   0  0  0  0  0  0  0  0  0  0  0  0
   67.9227   46.1223   54.1268 C   0  0  0  0  0  0  0  0  0  0  0  0
   67.8478   45.8291   52.7662 C   0  0  0  0  0  0  0  0  0  0  0  0
   68.5131   46.6065   51.8537 C   0  0  0  0  0  0  0  0  0  0  0  0
   69.2530   47.6787   52.3085 C   0  0  0  0  0  0  0  0  0  0  0  0
   69.3155   47.9535   53.6574 C   0  0  0  0  0  0  0  0  0  0  0  0
  8  9  1  0
  9 10  1  0
  9 13  2  0
 10 11  2  0
 11 12  1  0
 12  1  1  0
 12 13  1  0
  1  2  2  0
  1  7  1  0
  2  3  1  0
  3  4  1  0
  3  5  2  0
  5  6  1  0
  6 14  1  0
  6  7  2  0
 14 15  2  0
 14 16  1  0
 16 17  1  0
 17 18  1  0
 18 19  2  0
 18 20  2  0
 18 21  1  0
 21 22  2  0
 21 26  1  0
 22 23  1  0
 23 24  2  0
 24 25  1  0
 25 26  2  0
M  END
>  <minimizedAffinity>  (290) 
-8.95636

$$$$
data/200k_reference_output/data/smiles/24185.pdb
     RDKit          3D

 28 31  0  0  0  0  0  0  0  0999 V2000
   70.9655   45.9866   58.1148 C   0  0  0  0  0  0  0  0  0  0  0  0
   70.0619   46.6023   57.2482 C   0  0  0  0  0  0  0  0  0  0  0  0
   69.8253   47.9595   57.2296 C   0  0  0  0  0  0  0  0  0  0  0  0
   70.5457   48.7430   58.1384 C   0  0  0  0  0  0  0  0  0  0  0  0
   71.4414   48.1687   59.0036 C   0  0  0  0  0  0  0  0  0  0  0  0
   71.6493   46.7927   58.9895 C   0  0  0  0  0  0  0  0  0  0  0  0
   72.7930   46.0252   60.0875 Cl  0  0  0  0  0  0  0  0  0  0  0  0
   69.4949   44.2354   59.5975 O   0  0  0  0  0  0  0  0  0  0  0  0
   70.3719   43.7002   58.8547 C   0  0  0  0  0  0  0  0  0  0  0  0
   71.1521   44.5811   58.0719 N   0  0  0  0  0  0  0  0  0  0  0  0
   70.5234   42.2293   58.8484 C   0  0  1  0  0  0  0  0  0  0  0  0
   71.6709   41.7408   58.0368 C   0  0  0  0  0  0  0  0  0  0  0  0
   72.7893   41.4829   59.0043 C   0  0  0  0  0  0  0  0  0  0  0  0
   72.2326   41.4920   60.3252 N   0  0  0  0  0  0  0  0  0  0  0  0
   70.8155   41.6742   60.2209 C   0  0  0  0  0  0  0  0  0  0  0  0
   68.8661   48.6289   56.3018 C   0  0  0  0  0  0  0  0  0  0  0  0
   69.2964   48.6261   54.9292 N   0  0  0  0  0  0  0  0  0  0  0  0
   70.1901   49.5481   54.4876 C   0  0  0  0  0  0  0  0  0  0  0  0
   70.6621   50.4193   55.2509 O   0  0  0  0  0  0  0  0  0  0  0  0
   70.6226   49.5833   53.2136 N   0  0  0  0  0  0  0  0  0  0  0  0
   70.1882   48.6996   52.3059 C   0  0  0  0  0  0  0  0  0  0  0  0
   70.5850   48.7233   51.1125 O   0  0  0  0  0  0  0  0  0  0  0  0
   69.2842   47.7440   52.7028 C   0  0  0  0  0  0  0  0  0  0  0  0
   68.8603   46.8362   51.7683 C   0  0  0  0  0  0  0  0  0  0  0  0
   67.9681   45.8442   52.1108 C   0  0  0  0  0  0  0  0  0  0  0  0
   67.5369   45.8187   53.4179 C   0  0  0  0  0  0  0  0  0  0  0  0
   67.9706   46.7467   54.3698 C   0  0  0  0  0  0  0  0  0  0  0  0
   68.8620   47.7387   54.0216 C   0  0  0  0  0  0  0  0  0  0  0  0
  8  9  2  0
  9 10  1  0
 11  9  1  1
 10  1  1  0
  1  2  2  0
  1  6  1  0
  2  3  1  0
  3 16  1  0
  3  4  2  0
 16 17  1  0
 17 18  1  0
 17 28  1  0
 18 19  2  0
 18 20  1  0
 20 21  1  0
 21 22  2  0
 21 23  1  0
 23 24  1  0
 23 28  2  0
 24 25  2  0
 25 26  1  0
 26 27  2  0
 27 28  1  0
  4  5  1  0
  5  6  2  0
  6  7  1  0
 11 12  1  0
 11 15  1  0
 12 13  1  0
 13 14  1  0
 14 15  1  0
M  CHG  1  14   1
M  END
>  <minimizedAffinity>  (291) 
-8.75878

$$$$
data/200k_reference_output/data/smiles/24307.pdb
     RDKit          3D

 26 28  0  0  0  0  0  0  0  0999 V2000
   72.5118   50.9859   54.7995 C   0  0  0  0  0  0  0  0  0  0  0  0
   70.2911   50.9030   53.1526 O   0  0  0  0  0  0  0  0  0  0  0  0
   70.5753   49.7756   53.7180 C   0  0  0  0  0  0  0  0  0  0  0  0
   71.7020   49.7684   54.5631 N   0  0  0  0  0  0  0  0  0  0  0  0
   69.7451   48.6160   53.4590 C   0  0  0  0  0  0  0  0  0  0  0  0
   69.7309   48.1475   52.1458 C   0  0  0  0  0  0  0  0  0  0  0  0
   70.4832   48.7782   51.1662 O   0  0  0  0  0  0  0  0  0  0  0  0
   68.9876   47.0625   51.7737 C   0  0  0  0  0  0  0  0  0  0  0  0
   68.2174   46.3894   52.6951 C   0  0  0  0  0  0  0  0  0  0  0  0
   67.4691   45.3114   52.3631 F   0  0  0  0  0  0  0  0  0  0  0  0
   68.2122   46.8262   53.9867 C   0  0  0  0  0  0  0  0  0  0  0  0
   68.9789   47.9418   54.3609 C   0  0  0  0  0  0  0  0  0  0  0  0
   68.9504   48.3476   55.6419 F   0  0  0  0  0  0  0  0  0  0  0  0
   73.3115   50.7882   56.0574 C   0  0  0  0  0  0  0  0  0  0  0  0
   72.7867   52.0606   57.1958 S   0  0  0  0  0  0  0  0  0  0  0  0
   73.5870   53.2963   56.8537 O   0  0  0  0  0  0  0  0  0  0  0  0
   73.0725   51.6234   58.5834 O   0  0  0  0  0  0  0  0  0  0  0  0
   71.1347   52.4467   57.0060 N   0  0  0  0  0  0  0  0  0  0  0  0
   70.6502   53.7108   56.4443 C   0  0  0  0  0  0  0  0  0  0  0  0
   69.4531   53.2205   55.6486 C   0  0  0  0  0  0  0  0  0  0  0  0
   68.9643   52.1131   56.5272 C   0  0  0  0  0  0  0  0  0  0  0  0
   67.7360   51.4968   56.6646 C   0  0  0  0  0  0  0  0  0  0  0  0
   67.5796   50.4796   57.5788 C   0  0  0  0  0  0  0  0  0  0  0  0
   68.6316   50.0457   58.3789 C   0  0  0  0  0  0  0  0  0  0  0  0
   69.8611   50.6553   58.2497 C   0  0  0  0  0  0  0  0  0  0  0  0
   70.0016   51.6650   57.3358 C   0  0  0  0  0  0  0  0  0  0  0  0
  2  3  2  0
  3  4  1  0
  3  5  1  0
  4  1  1  0
  1 14  1  0
 14 15  1  0
 15 16  2  0
 15 17  2  0
 15 18  1  0
 18 19  1  0
 18 26  1  0
 19 20  1  0
 20 21  1  0
 21 22  1  0
 21 26  2  0
 22 23  2  0
 23 24  1  0
 24 25  2  0
 25 26  1  0
  5  6  2  0
  5 12  1  0
  6  7  1  0
  6  8  1  0
  8  9  2  0
  9 10  1  0
  9 11  1  0
 11 12  2  0
 12 13  1  0
M  END
>  <minimizedAffinity>  (292) 
-8.92645

$$$$
data/200k_reference_output/data/smiles/24404.pdb
     RDKit          3D

 27 28  0  0  0  0  0  0  0  0999 V2000
   73.9796   53.3285   53.5601 C   0  0  0  0  0  0  0  0  0  0  0  0
   73.7536   52.5912   54.8875 C   0  0  2  0  0  0  0  0  0  0  0  0
   73.1858   51.2745   54.5249 C   0  0  0  0  0  0  0  0  0  0  0  0
   73.9211   50.2664   54.6737 O   0  0  0  0  0  0  0  0  0  0  0  0
   71.8800   51.0622   54.0248 N   0  0  0  0  0  0  0  0  0  0  0  0
   71.3610   49.8057   53.6869 N   0  0  0  0  0  0  0  0  0  0  0  0
   70.0038   49.4984   53.6535 C   0  0  0  0  0  0  0  0  0  0  0  0
   69.2544   50.5060   53.9700 O   0  0  0  0  0  0  0  0  0  0  0  0
   69.3728   48.2423   53.3193 C   0  0  0  0  0  0  0  0  0  0  0  0
   68.5819   47.6024   54.2908 C   0  0  0  0  0  0  0  0  0  0  0  0
   67.9489   46.4059   54.0512 C   0  0  0  0  0  0  0  0  0  0  0  0
   68.0765   45.7879   52.8265 C   0  0  0  0  0  0  0  0  0  0  0  0
   68.8430   46.3861   51.8541 C   0  0  0  0  0  0  0  0  0  0  0  0
   69.4850   47.6165   52.1204 C   0  0  0  0  0  0  0  0  0  0  0  0
   70.2434   48.1728   51.1077 O   0  0  0  0  0  0  0  0  0  0  0  0
   72.8423   53.3799   55.6848 N   0  0  0  0  0  0  0  0  0  0  0  0
   72.5921   52.7022   57.2244 S   0  0  0  0  0  0  0  0  0  0  0  0
   72.4263   53.7711   58.2641 O   0  0  0  0  0  0  0  0  0  0  0  0
   73.7392   51.8319   57.6742 O   0  0  0  0  0  0  0  0  0  0  0  0
   71.1512   51.6949   57.2869 C   0  0  0  0  0  0  0  0  0  0  0  0
   69.8885   52.2323   57.1805 C   0  0  0  0  0  0  0  0  0  0  0  0
   68.7891   51.4095   57.2379 C   0  0  0  0  0  0  0  0  0  0  0  0
   68.8748   50.0386   57.4002 C   0  0  0  0  0  0  0  0  0  0  0  0
   67.4060   49.0893   57.4591 Cl  0  0  0  0  0  0  0  0  0  0  0  0
   70.1395   49.4907   57.5073 C   0  0  0  0  0  0  0  0  0  0  0  0
   70.2496   47.7558   57.7127 Cl  0  0  0  0  0  0  0  0  0  0  0  0
   71.2343   50.3265   57.4492 C   0  0  0  0  0  0  0  0  0  0  0  0
  2  1  1  6
  2 16  1  0
  2  3  1  0
 16 17  1  0
 17 18  2  0
 17 19  2  0
 17 20  1  0
 20 21  2  0
 20 27  1  0
 21 22  1  0
 22 23  2  0
 23 24  1  0
 23 25  1  0
 25 26  1  0
 25 27  2  0
  3  4  2  0
  3  5  1  0
  5  6  1  0
  6  7  1  0
  7  8  2  0
  7  9  1  0
  9 10  2  0
  9 14  1  0
 10 11  1  0
 11 12  2  0
 12 13  1  0
 13 14  2  0
 14 15  1  0
M  END
>  <minimizedAffinity>  (293) 
-8.58124

$$$$
data/200k_reference_output/data/smiles/24573.pdb
     RDKit          3D

 25 27  0  0  0  0  0  0  0  0999 V2000
   70.1172   44.2947   57.7357 N   0  0  0  0  0  0  0  0  0  0  0  0
   69.7029   43.1193   57.4319 C   0  0  0  0  0  0  0  0  0  0  0  0
   70.3707   41.8944   57.8456 C   0  0  0  0  0  0  0  0  0  0  0  0
   71.7505   41.8202   57.9736 C   0  0  0  0  0  0  0  0  0  0  0  0
   72.3652   40.7206   58.3469 O   0  0  0  0  0  0  0  0  0  0  0  0
   71.7425   39.6007   58.6315 C   0  0  0  0  0  0  0  0  0  0  0  0
   72.4228   38.4577   59.0239 C   0  0  0  0  0  0  0  0  0  0  0  0
   71.7683   37.2808   59.3234 C   0  0  0  0  0  0  0  0  0  0  0  0
   70.3931   37.2759   59.2190 C   0  0  0  0  0  0  0  0  0  0  0  0
   69.7161   38.4186   58.8275 C   0  0  0  0  0  0  0  0  0  0  0  0
   70.3656   39.5975   58.5273 C   0  0  0  0  0  0  0  0  0  0  0  0
   69.6779   40.7381   58.1363 C   0  0  0  0  0  0  0  0  0  0  0  0
   68.4365   40.7120   58.0490 O   0  0  0  0  0  0  0  0  0  0  0  0
   71.1496   46.7865   58.2659 O   0  0  0  0  0  0  0  0  0  0  0  0
   70.0602   46.7759   57.6424 C   0  0  0  0  0  0  0  0  0  0  0  0
   69.4926   45.4715   57.3492 N   0  0  0  0  0  0  0  0  0  0  0  0
   69.3146   47.9569   57.1865 C   0  0  0  0  0  0  0  0  0  0  0  0
   68.1218   47.6478   56.3488 C   0  0  0  0  0  0  0  0  0  0  0  0
   68.4852   47.4642   54.9420 C   0  0  0  0  0  0  0  0  0  0  0  0
   69.3498   48.4126   54.3971 C   0  0  0  0  0  0  0  0  0  0  0  0
   69.7691   48.3008   53.1044 C   0  0  0  0  0  0  0  0  0  0  0  0
   69.3678   47.2585   52.2762 C   0  0  0  0  0  0  0  0  0  0  0  0
   69.8073   47.1656   50.9636 O   0  0  0  0  0  0  0  0  0  0  0  0
   68.5156   46.3311   52.8322 C   0  0  0  0  0  0  0  0  0  0  0  0
   68.0751   46.4283   54.1520 C   0  0  0  0  0  0  0  0  0  0  0  0
 14 15  2  0
 15 17  1  0
 15 16  1  0
 17 18  1  0
 18 19  1  0
 19 20  2  0
 19 25  1  0
 20 21  1  0
 21 22  2  0
 22 23  1  0
 22 24  1  0
 24 25  2  0
 16  1  1  0
  1  2  2  0
  2  3  1  0
  3  4  2  0
  3 12  1  0
  4  5  1  0
  5  6  1  0
  6  7  2  0
  6 11  1  0
  7  8  1  0
  8  9  2  0
  9 10  1  0
 10 11  2  0
 11 12  1  0
 12 13  2  0
M  END
>  <minimizedAffinity>  (294) 
-8.59263

$$$$
data/200k_reference_output/data/smiles/24830.pdb
     RDKit          3D

 29 32  0  0  0  0  0  0  0  0999 V2000
   71.3678   50.9271   57.9502 C   0  0  0  0  0  0  0  0  0  0  0  0
   70.8052   50.1449   56.9188 N   0  0  0  0  0  0  0  0  0  0  0  0
   71.0745   50.2582   55.5167 C   0  0  0  0  0  0  0  0  0  0  0  0
   71.8700   51.1518   55.1525 O   0  0  0  0  0  0  0  0  0  0  0  0
   70.4363   49.3537   54.5443 C   0  0  0  0  0  0  0  0  0  0  0  0
   69.6107   48.3681   54.8890 N   0  0  0  0  0  0  0  0  0  0  0  0
   69.0129   47.5266   54.0189 C   0  0  0  0  0  0  0  0  0  0  0  0
   68.1688   46.5235   54.4138 C   0  0  0  0  0  0  0  0  0  0  0  0
   67.5951   45.7041   53.4835 C   0  0  0  0  0  0  0  0  0  0  0  0
   67.8846   45.9109   52.1543 C   0  0  0  0  0  0  0  0  0  0  0  0
   68.7300   46.9096   51.7193 C   0  0  0  0  0  0  0  0  0  0  0  0
   69.2982   47.7261   52.6704 C   0  0  0  0  0  0  0  0  0  0  0  0
   70.1495   48.7385   52.2858 C   0  0  0  0  0  0  0  0  0  0  0  0
   70.4128   48.9257   51.0673 O   0  0  0  0  0  0  0  0  0  0  0  0
   70.7055   49.5391   53.2434 N   0  0  0  0  0  0  0  0  0  0  0  0
   72.6844   50.6007   58.4785 C   0  0  0  0  0  0  0  0  0  0  0  0
   74.2593   49.0659   56.5761 O   0  0  0  0  0  0  0  0  0  0  0  0
   73.9742   48.5565   57.6738 C   0  0  0  0  0  0  0  0  0  0  0  0
   73.1843   49.3146   58.6068 N   0  0  0  0  0  0  0  0  0  0  0  0
   74.4291   47.2102   58.0178 C   0  0  0  0  0  0  0  0  0  0  0  0
   75.6224   46.9972   58.6785 C   0  0  0  0  0  0  0  0  0  0  0  0
   76.0908   45.7469   59.0233 C   0  0  0  0  0  0  0  0  0  0  0  0
   75.3247   44.6296   58.6910 C   0  0  0  0  0  0  0  0  0  0  0  0
   75.7590   43.3517   59.0195 C   0  0  0  0  0  0  0  0  0  0  0  0
   74.9890   42.2578   58.6842 C   0  0  0  0  0  0  0  0  0  0  0  0
   73.8012   42.4929   58.0250 C   0  0  0  0  0  0  0  0  0  0  0  0
   73.3715   43.7577   57.6999 C   0  0  0  0  0  0  0  0  0  0  0  0
   74.1386   44.8750   58.0324 C   0  0  0  0  0  0  0  0  0  0  0  0
   73.7135   46.1146   57.7117 N   0  0  0  0  0  0  0  0  0  0  0  0
 17 18  2  0
 18 19  1  0
 18 20  1  0
 19 16  1  0
 16  1  1  0
  1  2  1  0
  2  3  1  0
  3  4  2  0
  3  5  1  0
  5  6  2  0
  5 15  1  0
  6  7  1  0
  7  8  2  0
  7 12  1  0
  8  9  1  0
  9 10  2  0
 10 11  1  0
 11 12  2  0
 12 13  1  0
 13 14  2  0
 13 15  1  0
 20 21  2  0
 20 29  1  0
 21 22  1  0
 22 23  2  0
 23 24  1  0
 23 28  1  0
 24 25  2  0
 25 26  1  0
 26 27  2  0
 27 28  1  0
 28 29  2  0
M  END
>  <minimizedAffinity>  (295) 
-8.72301

$$$$
data/200k_reference_output/data/smiles/25026.pdb
     RDKit          3D

 24 26  0  0  0  0  0  0  0  0999 V2000
   70.0693   49.4204   57.5846 C   0  0  0  0  0  0  0  0  0  0  0  0
   69.5165   50.5783   58.1233 C   0  0  0  0  0  0  0  0  0  0  0  0
   69.0205   51.5937   57.3559 C   0  0  0  0  0  0  0  0  0  0  0  0
   69.0489   51.5065   55.9881 C   0  0  0  0  0  0  0  0  0  0  0  0
   68.6225   52.3777   54.9983 C   0  0  0  0  0  0  0  0  0  0  0  0
   68.9112   51.7558   53.8147 C   0  0  0  0  0  0  0  0  0  0  0  0
   69.4925   50.5501   54.0691 N   0  0  0  0  0  0  0  0  0  0  0  0
   69.5912   50.3673   55.3888 C   0  0  0  0  0  0  0  0  0  0  0  0
   70.0900   49.3490   56.2131 C   0  0  0  0  0  0  0  0  0  0  0  0
   70.0018   49.4421   52.8598 S   0  0  0  0  0  0  0  0  0  0  0  0
   69.8536   50.1118   51.5120 O   0  0  0  0  0  0  0  0  0  0  0  0
   71.4817   49.1676   53.0952 O   0  0  0  0  0  0  0  0  0  0  0  0
   69.1282   47.9317   52.9024 C   0  0  0  0  0  0  0  0  0  0  0  0
   68.7545   47.2500   51.7697 C   0  0  0  0  0  0  0  0  0  0  0  0
   68.0607   46.0386   51.8461 C   0  0  0  0  0  0  0  0  0  0  0  0
   67.7238   45.4811   53.0586 C   0  0  0  0  0  0  0  0  0  0  0  0
   68.0914   46.1519   54.2052 C   0  0  0  0  0  0  0  0  0  0  0  0
   68.7736   47.3436   54.1187 C   0  0  0  0  0  0  0  0  0  0  0  0
   71.5937   48.5210   59.2583 C   0  0  0  0  0  0  0  0  0  0  0  0
   70.5738   48.3905   58.4668 C   0  0  0  0  0  0  0  0  0  0  0  0
   73.0775   47.7190   60.8787 O   0  0  0  0  0  0  0  0  0  0  0  0
   72.0898   47.4674   60.1432 C   0  0  0  0  0  0  0  0  0  0  0  0
   71.5429   46.1704   60.2430 N   0  0  0  0  0  0  0  0  0  0  0  0
   72.0435   45.2228   61.0861 O   0  0  0  0  0  0  0  0  0  0  0  0
 21 22  2  0
 22 19  1  0
 22 23  1  0
 19 20  2  0
 20  1  1  0
  1  2  2  0
  1  9  1  0
  2  3  1  0
  3  4  2  0
  4  5  1  0
  4  8  1  0
  5  6  2  0
  6  7  1  0
  7 10  1  0
  7  8  1  0
 10 11  2  0
 10 12  2  0
 10 13  1  0
 13 14  2  0
 13 18  1  0
 14 15  1  0
 15 16  2  0
 16 17  1  0
 17 18  2  0
  8  9  2  0
 23 24  1  0
M  END
>  <minimizedAffinity>  (296) 
-8.70689

$$$$
data/200k_reference_output/data/smiles/25107.pdb
     RDKit          3D

 23 26  0  0  0  0  0  0  0  0999 V2000
   66.9488   41.6249   55.9794 O   0  0  0  0  0  0  0  0  0  0  0  0
   67.9907   41.9783   56.6096 C   0  0  0  0  0  0  0  0  0  0  0  0
   68.7213   41.0051   57.4282 C   0  0  0  0  0  0  0  0  0  0  0  0
   68.2892   39.6905   57.5268 C   0  0  0  0  0  0  0  0  0  0  0  0
   68.9723   38.7619   58.2978 C   0  0  0  0  0  0  0  0  0  0  0  0
   70.1067   39.1184   58.9937 C   0  0  0  0  0  0  0  0  0  0  0  0
   70.5333   40.4305   58.8911 C   0  0  0  0  0  0  0  0  0  0  0  0
   69.8556   41.3665   58.1216 C   0  0  0  0  0  0  0  0  0  0  0  0
   70.3005   42.7508   58.0118 C   0  0  0  0  0  0  0  0  0  0  0  0
   71.3471   43.0996   58.6466 O   0  0  0  0  0  0  0  0  0  0  0  0
   69.5918   43.7417   57.2030 C   0  0  0  0  0  0  0  0  0  0  0  0
   69.7749   45.0483   56.9292 N   0  0  0  0  0  0  0  0  0  0  0  0
   68.8149   45.5074   56.1063 C   0  0  0  0  0  0  0  0  0  0  0  0
   68.0137   44.4584   55.8609 N   0  0  0  0  0  0  0  0  0  0  0  0
   68.4447   43.3595   56.5063 C   0  0  0  0  0  0  0  0  0  0  0  0
   68.6719   46.9079   55.5714 C   0  0  0  0  0  0  0  0  0  0  0  0
   68.5964   46.8521   54.1003 C   0  0  0  0  0  0  0  0  0  0  0  0
   67.7633   45.9511   53.4872 C   0  0  0  0  0  0  0  0  0  0  0  0
   67.6632   45.8682   52.1150 C   0  0  0  0  0  0  0  0  0  0  0  0
   68.4497   46.7468   51.3603 C   0  0  0  0  0  0  0  0  0  0  0  0
   69.2959   47.6637   51.9405 C   0  0  0  0  0  0  0  0  0  0  0  0
   69.3563   47.7021   53.3292 C   0  0  0  0  0  0  0  0  0  0  0  0
   70.1901   48.6043   53.9320 F   0  0  0  0  0  0  0  0  0  0  0  0
  1  2  2  0
  2  3  1  0
  2 15  1  0
  3  4  1  0
  3  8  2  0
  4  5  2  0
  5  6  1  0
  6  7  2  0
  7  8  1  0
  8  9  1  0
  9 10  2  0
  9 11  1  0
 11 12  1  0
 11 15  2  0
 12 13  1  0
 13 16  1  0
 13 14  2  0
 16 17  1  0
 17 18  2  0
 17 22  1  0
 18 19  1  0
 19 20  2  0
 20 21  1  0
 21 22  2  0
 22 23  1  0
 14 15  1  0
M  CHG  1  14   1
M  END
>  <minimizedAffinity>  (297) 
-8.62314

$$$$
data/200k_reference_output/data/smiles/25227.pdb
     RDKit          3D

 31 34  0  0  0  0  0  0  0  0999 V2000
   69.3501   43.2937   57.2643 C   0  0  0  0  0  0  0  0  0  0  0  0
   68.7264   43.4789   56.1561 O   0  0  0  0  0  0  0  0  0  0  0  0
   69.7370   44.4776   57.9039 N   0  0  0  0  0  0  0  0  0  0  0  0
   68.8303   39.6859   58.2678 N   0  0  0  0  0  0  0  0  0  0  0  0
   68.6122   40.9740   57.8656 C   0  0  0  0  0  0  0  0  0  0  0  0
   67.4020   41.2924   57.6332 O   0  0  0  0  0  0  0  0  0  0  0  0
   69.5667   41.9214   57.6975 C   0  0  0  0  0  0  0  0  0  0  0  0
   70.8861   41.5120   57.9700 C   0  0  0  0  0  0  0  0  0  0  0  0
   71.9259   42.4120   57.8266 O   0  0  0  0  0  0  0  0  0  0  0  0
   71.1115   40.2238   58.3726 C   0  0  0  0  0  0  0  0  0  0  0  0
   72.4199   39.8085   58.6424 C   0  0  0  0  0  0  0  0  0  0  0  0
   72.6878   38.5188   59.0467 C   0  0  0  0  0  0  0  0  0  0  0  0
   71.6588   37.6046   59.1962 C   0  0  0  0  0  0  0  0  0  0  0  0
   70.3630   38.0079   58.9322 C   0  0  0  0  0  0  0  0  0  0  0  0
   70.0923   39.3094   58.5229 C   0  0  0  0  0  0  0  0  0  0  0  0
   67.0537   38.8388   59.7614 C   0  0  0  0  0  0  0  0  0  0  0  0
   67.6941   38.7848   58.4031 C   0  0  0  0  0  0  0  0  0  0  0  0
   69.4763   45.7554   57.3956 N   0  0  0  0  0  0  0  0  0  0  0  0
   70.2776   46.8408   57.9152 C   0  0  0  0  0  0  0  0  0  0  0  0
   71.1162   46.5180   58.7636 O   0  0  0  0  0  0  0  0  0  0  0  0
   70.0947   48.2037   57.4573 C   0  0  0  0  0  0  0  0  0  0  0  0
   68.8861   48.4512   56.6474 C   0  0  0  0  0  0  0  0  0  0  0  0
   69.1302   48.4225   55.2030 C   0  0  0  0  0  0  0  0  0  0  0  0
   69.9676   49.3531   54.5406 C   0  0  0  0  0  0  0  0  0  0  0  0
   70.0689   49.0263   53.2540 N   0  0  0  0  0  0  0  0  0  0  0  0
   69.3378   47.9144   53.0003 C   0  0  0  0  0  0  0  0  0  0  0  0
   69.1023   47.2161   51.8328 C   0  0  0  0  0  0  0  0  0  0  0  0
   68.2671   46.1250   51.8592 C   0  0  0  0  0  0  0  0  0  0  0  0
   67.6844   45.7548   53.0600 C   0  0  0  0  0  0  0  0  0  0  0  0
   67.9254   46.4523   54.2094 C   0  0  0  0  0  0  0  0  0  0  0  0
   68.7543   47.5427   54.2199 C   0  0  0  0  0  0  0  0  0  0  0  0
 16 17  1  0
 17  4  1  0
  4  5  1  0
  4 15  1  0
  5  6  2  0
  5  7  1  0
  7  1  1  0
  7  8  2  0
  1  2  2  0
  1  3  1  0
  3 18  1  0
 18 19  1  0
 19 20  2  0
 19 21  1  0
 21 22  1  0
 22 23  1  0
 23 24  2  0
 23 31  1  0
 24 25  1  0
 25 26  1  0
 26 27  1  0
 26 31  2  0
 27 28  2  0
 28 29  1  0
 29 30  2  0
 30 31  1  0
  8  9  1  0
  8 10  1  0
 10 11  1  0
 10 15  2  0
 11 12  2  0
 12 13  1  0
 13 14  2  0
 14 15  1  0
M  END
>  <minimizedAffinity>  (298) 
-9.31164

$$$$
data/200k_reference_output/data/smiles/25264.pdb
     RDKit          3D

 26 28  0  0  0  0  0  0  0  0999 V2000
   69.8968   44.1181   58.6560 O   0  0  0  0  0  0  0  0  0  0  0  0
   69.3384   43.9266   57.5287 C   0  0  0  0  0  0  0  0  0  0  0  0
   69.2456   45.0338   56.6834 N   0  0  0  0  0  0  0  0  0  0  0  0
   68.8628   42.6011   57.2381 C   0  0  0  0  0  0  0  0  0  0  0  0
   69.3620   41.4924   57.9424 C   0  0  0  0  0  0  0  0  0  0  0  0
   68.9696   40.1990   57.7143 C   0  0  0  0  0  0  0  0  0  0  0  0
   68.0271   39.9905   56.7290 C   0  0  0  0  0  0  0  0  0  0  0  0
   67.5181   41.0585   56.0190 C   0  0  0  0  0  0  0  0  0  0  0  0
   67.9302   42.3778   56.2651 C   0  0  0  0  0  0  0  0  0  0  0  0
   67.3445   43.3273   55.5055 F   0  0  0  0  0  0  0  0  0  0  0  0
   69.5222   39.0698   58.4782 C   0  0  0  0  0  0  0  0  0  0  0  0
   70.8125   38.6254   58.3124 C   0  0  0  0  0  0  0  0  0  0  0  0
   71.2161   37.5544   59.0890 C   0  0  0  0  0  0  0  0  0  0  0  0
   70.3845   36.9617   59.9771 N   0  0  0  0  0  0  0  0  0  0  0  0
   69.1362   37.3859   60.1435 N   0  0  0  0  0  0  0  0  0  0  0  0
   68.7344   38.4129   59.4048 C   0  0  0  0  0  0  0  0  0  0  0  0
   69.7399   46.3195   57.0468 N   0  0  0  0  0  0  0  0  0  0  0  0
   68.7570   47.5146   56.2847 S   0  0  0  0  0  0  0  0  0  0  0  0
   69.3017   48.8834   56.5615 O   0  0  0  0  0  0  0  0  0  0  0  0
   67.3662   47.3908   56.8405 O   0  0  0  0  0  0  0  0  0  0  0  0
   68.6815   47.1836   54.5726 C   0  0  0  0  0  0  0  0  0  0  0  0
   69.3817   47.9349   53.6688 C   0  0  0  0  0  0  0  0  0  0  0  0
   69.3224   47.6764   52.3285 C   0  0  0  0  0  0  0  0  0  0  0  0
   68.5463   46.6369   51.8442 C   0  0  0  0  0  0  0  0  0  0  0  0
   67.8348   45.8716   52.7515 C   0  0  0  0  0  0  0  0  0  0  0  0
   67.9065   46.1467   54.0944 C   0  0  0  0  0  0  0  0  0  0  0  0
  1  2  2  0
  2  3  1  0
  2  4  1  0
  3 17  1  0
 17 18  1  0
 18 19  2  0
 18 20  2  0
 18 21  1  0
 21 22  2  0
 21 26  1  0
 22 23  1  0
 23 24  2  0
 24 25  1  0
 25 26  2  0
  4  5  2  0
  4  9  1  0
  5  6  1  0
  6 11  1  0
  6  7  2  0
 11 12  2  0
 11 16  1  0
 12 13  1  0
 13 14  2  0
 14 15  1  0
 15 16  2  0
  7  8  1  0
  8  9  2  0
  9 10  1  0
M  END
>  <minimizedAffinity>  (299) 
-8.84247

$$$$
data/200k_reference_output/data/smiles/25288.pdb
     RDKit          3D

 21 23  0  0  0  0  0  0  0  0999 V2000
   70.0144   48.4896   55.0142 C   0  0  0  0  0  0  0  0  0  0  0  0
   70.8275   49.4042   54.4320 N   0  0  0  0  0  0  0  0  0  0  0  0
   70.9529   49.5157   53.1120 N   0  0  0  0  0  0  0  0  0  0  0  0
   70.2763   48.7236   52.2724 C   0  0  0  0  0  0  0  0  0  0  0  0
   70.3959   48.8319   51.0082 O   0  0  0  0  0  0  0  0  0  0  0  0
   69.4408   47.7827   52.8055 C   0  0  0  0  0  0  0  0  0  0  0  0
   68.7269   46.9556   51.9526 C   0  0  0  0  0  0  0  0  0  0  0  0
   67.8981   46.0311   52.5384 C   0  0  0  0  0  0  0  0  0  0  0  0
   67.7444   45.8896   53.9121 C   0  0  0  0  0  0  0  0  0  0  0  0
   68.4740   46.7335   54.7179 C   0  0  0  0  0  0  0  0  0  0  0  0
   69.3158   47.6723   54.1709 C   0  0  0  0  0  0  0  0  0  0  0  0
   69.9529   48.4477   56.4812 C   0  0  0  0  0  0  0  0  0  0  0  0
   68.6956   50.5590   56.9394 C   0  0  0  0  0  0  0  0  0  0  0  0
   67.5572   51.1796   57.4120 C   0  0  0  0  0  0  0  0  0  0  0  0
   66.5003   50.4145   57.8422 C   0  0  0  0  0  0  0  0  0  0  0  0
   66.5540   49.0348   57.8114 C   0  0  0  0  0  0  0  0  0  0  0  0
   67.6771   48.4002   57.3459 C   0  0  0  0  0  0  0  0  0  0  0  0
   68.7387   49.1953   56.9148 C   0  0  0  0  0  0  0  0  0  0  0  0
   69.7825   51.3447   56.4781 N   0  0  0  0  0  0  0  0  0  0  0  0
   68.8747   52.3364   54.4050 C   0  0  0  0  0  0  0  0  0  0  0  0
   69.5260   52.5657   55.7506 C   0  0  0  0  0  0  0  0  0  0  0  0
 20 21  1  0
 21 19  1  0
 19 13  1  0
 13 14  2  0
 13 18  1  0
 14 15  1  0
 15 16  2  0
 16 17  1  0
 17 18  2  0
 18 12  1  0
 12  1  1  0
  1  2  2  0
  1 11  1  0
  2  3  1  0
  3  4  1  0
  4  5  2  0
  4  6  1  0
  6  7  1  0
  6 11  2  0
  7  8  2  0
  8  9  1  0
  9 10  2  0
 10 11  1  0
M  END
>  <minimizedAffinity>  (300) 
-8.79277

$$$$
data/200k_reference_output/data/smiles/25421.pdb
     RDKit          3D

 29 32  0  0  0  0  0  0  0  0999 V2000
   67.9766   42.3440   56.5155 C   0  0  0  0  0  0  0  0  0  0  0  0
   67.1010   41.7855   55.7718 O   0  0  0  0  0  0  0  0  0  0  0  0
   68.4390   41.6036   57.6081 N   0  0  0  0  0  0  0  0  0  0  0  0
   67.9354   40.2523   57.8714 C   0  0  0  0  0  0  0  0  0  0  0  0
   69.0288   39.2611   58.0613 C   0  0  0  0  0  0  0  0  0  0  0  0
   70.2348   39.7399   58.6288 N   0  0  0  0  0  0  0  0  0  0  0  0
   70.5876   41.0806   58.3878 C   0  0  0  0  0  0  0  0  0  0  0  0
   69.4151   42.0350   58.5729 C   0  0  0  0  0  0  0  0  0  0  0  0
   69.2664   44.3627   56.7380 O   0  0  0  0  0  0  0  0  0  0  0  0
   68.3923   43.6783   56.1444 C   0  0  0  0  0  0  0  0  0  0  0  0
   67.7755   44.3116   55.0017 N   0  0  0  0  0  0  0  0  0  0  0  0
   68.2022   45.6205   54.6597 C   0  0  0  0  0  0  0  0  0  0  0  0
   68.3679   46.6362   55.5792 C   0  0  0  0  0  0  0  0  0  0  0  0
   68.7909   47.9077   55.1866 C   0  0  0  0  0  0  0  0  0  0  0  0
   69.0540   48.1829   53.8700 C   0  0  0  0  0  0  0  0  0  0  0  0
   69.4620   49.2526   53.1652 N   0  0  0  0  0  0  0  0  0  0  0  0
   69.5463   48.9211   51.8729 C   0  0  0  0  0  0  0  0  0  0  0  0
   69.8971   49.6666   50.9080 O   0  0  0  0  0  0  0  0  0  0  0  0
   69.1989   47.6739   51.7759 O   0  0  0  0  0  0  0  0  0  0  0  0
   68.8914   47.1764   52.9454 C   0  0  0  0  0  0  0  0  0  0  0  0
   68.4732   45.9225   53.3408 C   0  0  0  0  0  0  0  0  0  0  0  0
   71.3522   38.8725   58.3267 C   0  0  0  0  0  0  0  0  0  0  0  0
   71.1388   37.5552   58.9769 C   0  0  0  0  0  0  0  0  0  0  0  0
   70.4103   37.4041   60.1347 C   0  0  0  0  0  0  0  0  0  0  0  0
   70.2430   36.1551   60.6905 C   0  0  0  0  0  0  0  0  0  0  0  0
   70.8027   35.0393   60.0942 C   0  0  0  0  0  0  0  0  0  0  0  0
   70.6030   33.4501   60.7817 Cl  0  0  0  0  0  0  0  0  0  0  0  0
   71.5371   35.1976   58.9266 C   0  0  0  0  0  0  0  0  0  0  0  0
   71.7041   36.4436   58.3725 C   0  0  0  0  0  0  0  0  0  0  0  0
  9 10  2  0
 10 11  1  0
 10  1  1  0
 11 12  1  0
 12 13  2  0
 12 21  1  0
 13 14  1  0
 14 15  2  0
 15 16  1  0
 15 20  1  0
 16 17  1  0
 17 18  2  0
 17 19  1  0
 19 20  1  0
 20 21  2  0
  1  2  2  0
  1  3  1  0
  3  4  1  0
  3  8  1  0
  4  5  1  0
  5  6  1  0
  6 22  1  0
  6  7  1  0
 22 23  1  0
 23 24  2  0
 23 29  1  0
 24 25  1  0
 25 26  2  0
 26 27  1  0
 26 28  1  0
 28 29  2  0
  7  8  1  0
M  CHG  1   6   1
M  END
>  <minimizedAffinity>  (301) 
-9.38344

$$$$
data/200k_reference_output/data/smiles/25456.pdb
     RDKit          3D

 33 37  0  0  0  0  0  0  0  0999 V2000
   71.3121   45.0381   58.0662 N   0  0  0  0  0  0  0  0  0  0  0  0
   70.6202   46.2800   58.0344 C   0  0  0  0  0  0  0  0  0  0  0  0
   69.3819   46.2575   57.7675 O   0  0  0  0  0  0  0  0  0  0  0  0
   71.2621   47.5137   58.2870 N   0  0  0  0  0  0  0  0  0  0  0  0
   72.6922   47.6071   58.6138 C   0  0  0  0  0  0  0  0  0  0  0  0
   72.7821   48.9859   59.2967 C   0  0  1  0  0  0  0  0  0  0  0  0
   74.1153   49.4932   59.3177 N   0  0  0  0  0  0  0  0  0  0  0  0
   71.8452   49.7535   58.3955 C   0  0  0  0  0  0  0  0  0  0  0  0
   70.6702   48.8142   58.2777 C   0  0  1  0  0  0  0  0  0  0  0  0
   66.9774   42.7528   55.7262 N   0  0  0  0  0  0  0  0  0  0  0  0
   67.8829   41.8995   56.4409 C   0  0  0  0  0  0  0  0  0  0  0  0
   67.6120   40.6859   56.4761 O   0  0  0  0  0  0  0  0  0  0  0  0
   69.0301   42.4135   57.0755 N   0  0  0  0  0  0  0  0  0  0  0  0
   69.3906   43.7058   57.0824 C   0  0  0  0  0  0  0  0  0  0  0  0
   70.5676   43.8576   57.7980 C   0  0  0  0  0  0  0  0  0  0  0  0
   70.8923   42.5738   58.2214 C   0  0  0  0  0  0  0  0  0  0  0  0
   71.9590   42.1186   58.9711 C   0  0  0  0  0  0  0  0  0  0  0  0
   72.0232   40.7753   59.2391 C   0  0  0  0  0  0  0  0  0  0  0  0
   71.0701   39.8871   58.7905 C   0  0  0  0  0  0  0  0  0  0  0  0
   70.0038   40.3314   58.0424 C   0  0  0  0  0  0  0  0  0  0  0  0
   69.9267   41.6928   57.7626 C   0  0  0  0  0  0  0  0  0  0  0  0
   69.8681   49.0985   57.0586 C   0  0  0  0  0  0  0  0  0  0  0  0
   68.6572   49.3904   57.1865 O   0  0  0  0  0  0  0  0  0  0  0  0
   70.4429   49.0456   55.7855 N   0  0  0  0  0  0  0  0  0  0  0  0
   69.7241   49.3107   54.5517 C   0  0  0  0  0  0  0  0  0  0  0  0
   68.8866   50.5766   54.5200 C   0  0  0  0  0  0  0  0  0  0  0  0
   70.1401   50.4260   53.6687 C   0  0  0  0  0  0  0  0  0  0  0  0
   69.1411   48.0838   53.9555 C   0  0  0  0  0  0  0  0  0  0  0  0
   69.2083   47.9043   52.5952 C   0  0  0  0  0  0  0  0  0  0  0  0
   68.6652   46.7598   52.0223 C   0  0  0  0  0  0  0  0  0  0  0  0
   68.0562   45.7907   52.7830 C   0  0  0  0  0  0  0  0  0  0  0  0
   67.9873   45.9675   54.1460 C   0  0  0  0  0  0  0  0  0  0  0  0
   68.5308   47.1118   54.7125 C   0  0  0  0  0  0  0  0  0  0  0  0
 10 11  1  0
 11 12  2  0
 11 13  1  0
 13 14  1  0
 13 21  1  0
 14 15  2  0
 15  1  1  0
 15 16  1  0
  1  2  1  0
  2  3  2  0
  2  4  1  0
  4  5  1  0
  4  9  1  0
  5  6  1  0
  6  7  1  6
  6  8  1  0
  8  9  1  0
  9 22  1  6
 22 23  2  0
 22 24  1  0
 24 25  1  0
 25 28  1  0
 25 26  1  0
 25 27  1  0
 28 29  2  0
 28 33  1  0
 29 30  1  0
 30 31  2  0
 31 32  1  0
 32 33  2  0
 26 27  1  0
 16 17  1  0
 16 21  2  0
 17 18  2  0
 18 19  1  0
 19 20  2  0
 20 21  1  0
M  CHG  1   7   1
M  END
>  <minimizedAffinity>  (302) 
-8.65625

$$$$
data/200k_reference_output/data/smiles/25462.pdb
     RDKit          3D

 30 32  0  0  0  0  0  0  0  0999 V2000
   67.0970   40.6749   55.1613 O   0  0  0  0  0  0  0  0  0  0  0  0
   67.7556   40.7851   56.2370 C   0  0  0  0  0  0  0  0  0  0  0  0
   68.0052   39.6500   57.0632 N   0  0  0  0  0  0  0  0  0  0  0  0
   68.7603   39.8760   58.2604 C   0  0  0  0  0  0  0  0  0  0  0  0
   68.9583   38.8364   58.9657 O   0  0  0  0  0  0  0  0  0  0  0  0
   69.2444   41.1613   58.6215 N   0  0  0  0  0  0  0  0  0  0  0  0
   68.9989   42.3002   57.8029 C   0  0  0  0  0  0  0  0  0  0  0  0
   69.4116   43.4347   58.0998 O   0  0  0  0  0  0  0  0  0  0  0  0
   68.2372   42.1136   56.5801 C   0  0  0  0  0  0  0  0  0  0  0  0
   68.0025   43.1787   55.8059 C   0  0  0  0  0  0  0  0  0  0  0  0
   69.9981   41.3207   59.8408 C   0  0  0  0  0  0  0  0  0  0  0  0
   69.1308   41.5138   61.0242 C   0  0  0  0  0  0  0  0  0  0  0  0
   68.4913   42.7147   61.2974 C   0  0  0  0  0  0  0  0  0  0  0  0
   67.6810   42.9279   62.3830 C   0  0  0  0  0  0  0  0  0  0  0  0
   67.4925   41.8808   63.2551 C   0  0  0  0  0  0  0  0  0  0  0  0
   68.1001   40.6552   63.0436 C   0  0  0  0  0  0  0  0  0  0  0  0
   68.9004   40.4919   61.9456 C   0  0  0  0  0  0  0  0  0  0  0  0
   68.4769   44.4744   56.1474 N   0  0  0  0  0  0  0  0  0  0  0  0
   67.8408   45.6319   55.7057 N   0  0  0  0  0  0  0  0  0  0  0  0
   68.3301   46.3922   54.6135 C   0  0  0  0  0  0  0  0  0  0  0  0
   69.1362   47.5027   54.8581 C   0  0  0  0  0  0  0  0  0  0  0  0
   69.4116   47.7984   56.1507 F   0  0  0  0  0  0  0  0  0  0  0  0
   69.6400   48.2787   53.8333 C   0  0  0  0  0  0  0  0  0  0  0  0
   70.4188   49.3485   54.1278 F   0  0  0  0  0  0  0  0  0  0  0  0
   69.3195   47.9195   52.5418 C   0  0  0  0  0  0  0  0  0  0  0  0
   69.8187   48.6875   51.5350 F   0  0  0  0  0  0  0  0  0  0  0  0
   68.5270   46.8321   52.2341 C   0  0  0  0  0  0  0  0  0  0  0  0
   68.2125   46.4793   50.9661 F   0  0  0  0  0  0  0  0  0  0  0  0
   68.0450   46.0846   53.3008 C   0  0  0  0  0  0  0  0  0  0  0  0
   67.2520   44.9903   53.0550 F   0  0  0  0  0  0  0  0  0  0  0  0
  1  2  2  0
  2  3  1  0
  2  9  1  0
  3  4  1  0
  4  5  2  0
  4  6  1  0
  6 11  1  0
  6  7  1  0
 11 12  1  0
 12 13  2  0
 12 17  1  0
 13 14  1  0
 14 15  2  0
 15 16  1  0
 16 17  2  0
  7  8  2  0
  7  9  1  0
  9 10  2  0
 10 18  1  0
 18 19  1  0
 19 20  1  0
 20 21  2  0
 20 29  1  0
 21 22  1  0
 21 23  1  0
 23 24  1  0
 23 25  2  0
 25 26  1  0
 25 27  1  0
 27 28  1  0
 27 29  2  0
 29 30  1  0
M  END
>  <minimizedAffinity>  (303) 
-9.25872

$$$$
data/200k_reference_output/data/smiles/25648.pdb
     RDKit          3D

 26 29  0  0  0  0  0  0  0  0999 V2000
   71.0557   45.9778   58.3316 C   0  0  0  0  0  0  0  0  0  0  0  0
   70.0876   46.5071   57.4582 C   0  0  0  0  0  0  0  0  0  0  0  0
   69.8868   47.8524   57.3510 C   0  0  0  0  0  0  0  0  0  0  0  0
   70.6725   48.6845   58.1357 C   0  0  0  0  0  0  0  0  0  0  0  0
   71.6278   48.1843   58.9977 C   0  0  0  0  0  0  0  0  0  0  0  0
   71.8180   46.8278   59.0947 C   0  0  0  0  0  0  0  0  0  0  0  0
   73.0180   46.1265   60.1759 Cl  0  0  0  0  0  0  0  0  0  0  0  0
   73.3803   44.3371   57.3985 O   0  0  0  0  0  0  0  0  0  0  0  0
   72.2764   43.8454   57.8516 C   0  0  0  0  0  0  0  0  0  0  0  0
   71.9639   42.4109   57.8830 C   0  0  0  0  0  0  0  0  0  0  0  0
   70.6571   42.2722   58.5966 C   0  0  0  0  0  0  0  0  0  0  0  0
   70.2940   43.6691   58.9760 C   0  0  0  0  0  0  0  0  0  0  0  0
   69.2952   43.9109   59.7288 O   0  0  0  0  0  0  0  0  0  0  0  0
   71.1981   44.5704   58.3861 N   0  0  0  0  0  0  0  0  0  0  0  0
   68.8477   48.3859   56.4417 C   0  0  0  0  0  0  0  0  0  0  0  0
   69.2981   48.3348   55.0643 C   0  0  0  0  0  0  0  0  0  0  0  0
   70.2608   49.2475   54.7072 N   0  0  0  0  0  0  0  0  0  0  0  0
   70.7274   49.3546   53.4779 N   0  0  0  0  0  0  0  0  0  0  0  0
   70.3085   48.5826   52.4595 C   0  0  0  0  0  0  0  0  0  0  0  0
   70.7731   48.7089   51.2906 O   0  0  0  0  0  0  0  0  0  0  0  0
   69.3336   47.6308   52.7382 C   0  0  0  0  0  0  0  0  0  0  0  0
   68.8586   46.7868   51.7539 C   0  0  0  0  0  0  0  0  0  0  0  0
   67.9030   45.8311   52.0409 C   0  0  0  0  0  0  0  0  0  0  0  0
   67.4512   45.7606   53.3447 C   0  0  0  0  0  0  0  0  0  0  0  0
   67.9286   46.6021   54.3112 C   0  0  0  0  0  0  0  0  0  0  0  0
   68.8703   47.5510   54.0441 C   0  0  0  0  0  0  0  0  0  0  0  0
  8  9  2  0
  9 10  1  0
  9 14  1  0
 10 11  1  0
 11 12  1  0
 12 13  2  0
 12 14  1  0
 14  1  1  0
  1  2  2  0
  1  6  1  0
  2  3  1  0
  3 15  1  0
  3  4  2  0
 15 16  1  0
 16 17  2  0
 16 26  1  0
 17 18  1  0
 18 19  1  0
 19 20  2  0
 19 21  1  0
 21 22  1  0
 21 26  2  0
 22 23  2  0
 23 24  1  0
 24 25  2  0
 25 26  1  0
  4  5  1  0
  5  6  2  0
  6  7  1  0
M  END
>  <minimizedAffinity>  (304) 
-9.07630

$$$$
data/200k_reference_output/data/smiles/25745.pdb
     RDKit          3D

 26 28  0  0  0  0  0  0  0  0999 V2000
   67.5198   43.0714   56.5687 N   0  0  0  0  0  0  0  0  0  0  0  0
   67.5206   41.6600   56.6643 C   0  0  0  0  0  0  0  0  0  0  0  0
   67.5989   41.0173   55.5927 O   0  0  0  0  0  0  0  0  0  0  0  0
   67.4331   41.0115   57.9660 C   0  0  0  0  0  0  0  0  0  0  0  0
   68.0329   39.8162   58.2808 C   0  0  0  0  0  0  0  0  0  0  0  0
   67.9121   39.2451   59.5471 C   0  0  0  0  0  0  0  0  0  0  0  0
   67.1867   39.8438   60.5528 C   0  0  0  0  0  0  0  0  0  0  0  0
   66.5781   41.0440   60.2507 C   0  0  0  0  0  0  0  0  0  0  0  0
   66.6985   41.6072   59.0010 C   0  0  0  0  0  0  0  0  0  0  0  0
   67.0794   39.2378   61.8384 N   0  0  0  0  0  0  0  0  0  0  0  0
   66.5129   39.8067   62.9211 C   0  0  0  0  0  0  0  0  0  0  0  0
   66.5727   38.9544   64.0047 C   0  0  0  0  0  0  0  0  0  0  0  0
   67.2055   37.8181   63.5575 C   0  0  0  0  0  0  0  0  0  0  0  0
   67.5018   38.0244   62.2304 C   0  0  0  0  0  0  0  0  0  0  0  0
   68.1142   45.0277   55.1733 C   0  0  0  0  0  0  0  0  0  0  0  0
   68.4855   45.6107   56.2054 O   0  0  0  0  0  0  0  0  0  0  0  0
   67.6043   43.7103   55.3036 N   0  0  0  0  0  0  0  0  0  0  0  0
   69.0795   47.5029   52.5105 C   0  0  0  0  0  0  0  0  0  0  0  0
   68.3704   46.9887   51.4292 C   0  0  0  0  0  0  0  0  0  0  0  0
   67.5822   45.8474   51.5514 C   0  0  0  0  0  0  0  0  0  0  0  0
   67.5358   45.2554   52.7810 C   0  0  0  0  0  0  0  0  0  0  0  0
   68.2160   45.7168   53.8921 C   0  0  0  0  0  0  0  0  0  0  0  0
   68.9790   46.8511   53.7072 C   0  0  0  0  0  0  0  0  0  0  0  0
   70.1957   49.5289   53.5008 C   0  0  0  0  0  0  0  0  0  0  0  0
   69.8849   48.6998   52.3129 C   0  0  0  0  0  0  0  0  0  0  0  0
   70.3168   49.0472   51.1907 O   0  0  0  0  0  0  0  0  0  0  0  0
 24 25  1  0
 25 26  2  0
 25 18  1  0
 18 19  2  0
 18 23  1  0
 19 20  1  0
 20 21  2  0
 21 22  1  0
 22 15  1  0
 22 23  2  0
 15 16  2  0
 15 17  1  0
 17  1  1  0
  1  2  1  0
  2  3  2  0
  2  4  1  0
  4  5  2  0
  4  9  1  0
  5  6  1  0
  6  7  2  0
  7 10  1  0
  7  8  1  0
 10 11  1  0
 10 14  1  0
 11 12  2  0
 12 13  1  0
 13 14  2  0
  8  9  2  0
M  END
>  <minimizedAffinity>  (305) 
-8.86610

$$$$
data/200k_reference_output/data/smiles/25962.pdb
     RDKit          3D

 26 28  0  0  0  0  0  0  0  0999 V2000
   72.3458   44.2613   58.1569 C   0  0  0  0  0  0  0  0  0  0  0  0
   70.9789   43.8752   58.5289 C   0  0  0  0  0  0  0  0  0  0  0  0
   70.1165   44.7909   58.8984 N   0  0  0  0  0  0  0  0  0  0  0  0
   70.4999   42.5029   58.5270 C   0  0  0  0  0  0  0  0  0  0  0  0
   71.0513   41.5291   59.3284 C   0  0  0  0  0  0  0  0  0  0  0  0
   72.1198   41.8898   60.1697 O   0  0  0  0  0  0  0  0  0  0  0  0
   70.5843   40.2254   59.3247 C   0  0  0  0  0  0  0  0  0  0  0  0
   69.5402   39.8414   58.5122 C   0  0  0  0  0  0  0  0  0  0  0  0
   68.9772   40.8053   57.7027 C   0  0  0  0  0  0  0  0  0  0  0  0
   67.9311   40.4236   56.8875 C   0  0  0  0  0  0  0  0  0  0  0  0
   67.3851   41.4050   56.0876 C   0  0  0  0  0  0  0  0  0  0  0  0
   67.9143   42.6777   56.1571 C   0  0  0  0  0  0  0  0  0  0  0  0
   67.3707   43.5500   55.3947 O   0  0  0  0  0  0  0  0  0  0  0  0
   68.9090   43.0164   56.9400 O   0  0  0  0  0  0  0  0  0  0  0  0
   69.4423   42.1082   57.7057 C   0  0  0  0  0  0  0  0  0  0  0  0
   70.4559   46.1331   58.9523 N   0  0  0  0  0  0  0  0  0  0  0  0
   70.1928   47.0212   57.8814 C   0  0  0  0  0  0  0  0  0  0  0  0
   70.6961   48.5865   58.1240 S   0  0  0  0  0  0  0  0  0  0  0  0
   69.5558   46.6613   56.6738 N   0  0  0  0  0  0  0  0  0  0  0  0
   68.4952   47.3627   56.0236 C   0  0  0  0  0  0  0  0  0  0  0  0
   68.6301   47.2460   54.5418 C   0  0  0  0  0  0  0  0  0  0  0  0
   67.9652   46.2146   53.9147 C   0  0  0  0  0  0  0  0  0  0  0  0
   68.0448   46.0450   52.5392 C   0  0  0  0  0  0  0  0  0  0  0  0
   68.7986   46.9160   51.7714 C   0  0  0  0  0  0  0  0  0  0  0  0
   69.4646   47.9499   52.4001 C   0  0  0  0  0  0  0  0  0  0  0  0
   69.3673   48.0941   53.7703 C   0  0  0  0  0  0  0  0  0  0  0  0
  1  2  1  0
  2  3  2  0
  2  4  1  0
  3 16  1  0
 16 17  1  0
 17 18  2  0
 17 19  1  0
 19 20  1  0
 20 21  1  0
 21 22  2  0
 21 26  1  0
 22 23  1  0
 23 24  2  0
 24 25  1  0
 25 26  2  0
  4  5  2  0
  4 15  1  0
  5  6  1  0
  5  7  1  0
  7  8  2  0
  8  9  1  0
  9 10  1  0
  9 15  2  0
 10 11  2  0
 11 12  1  0
 12 13  2  0
 12 14  1  0
 14 15  1  0
M  END
>  <minimizedAffinity>  (306) 
-8.52298

$$$$
data/200k_reference_output/data/smiles/26034.pdb
     RDKit          3D

 23 25  0  0  0  0  0  0  0  0999 V2000
   69.7845   46.4191   57.9806 O   0  0  0  0  0  0  0  0  0  0  0  0
   69.0705   46.3039   56.9479 C   0  0  0  0  0  0  0  0  0  0  0  0
   68.7645   45.0067   56.4510 N   0  0  0  0  0  0  0  0  0  0  0  0
   69.2826   43.9094   57.1515 N   0  0  0  0  0  0  0  0  0  0  0  0
   68.8132   42.7272   57.0745 C   0  0  0  0  0  0  0  0  0  0  0  0
   67.6747   42.3523   56.2508 C   0  0  0  0  0  0  0  0  0  0  0  0
   67.0195   43.1448   55.5169 O   0  0  0  0  0  0  0  0  0  0  0  0
   67.4861   40.9623   56.4546 N   0  0  0  0  0  0  0  0  0  0  0  0
   68.4515   40.4424   57.3679 C   0  0  0  0  0  0  0  0  0  0  0  0
   68.6933   39.1809   57.8877 C   0  0  0  0  0  0  0  0  0  0  0  0
   69.7105   38.9127   58.7781 C   0  0  0  0  0  0  0  0  0  0  0  0
   70.5136   39.9870   59.1528 C   0  0  0  0  0  0  0  0  0  0  0  0
   70.2676   41.2379   58.6339 C   0  0  0  0  0  0  0  0  0  0  0  0
   69.2531   41.5017   57.7450 C   0  0  0  0  0  0  0  0  0  0  0  0
   68.5628   47.5528   56.2718 C   0  0  0  0  0  0  0  0  0  0  0  0
   68.7672   47.4396   54.8057 C   0  0  0  0  0  0  0  0  0  0  0  0
   69.7143   48.2619   54.2086 C   0  0  0  0  0  0  0  0  0  0  0  0
   69.9547   48.2080   52.8443 C   0  0  0  0  0  0  0  0  0  0  0  0
   69.2362   47.3180   52.0670 C   0  0  0  0  0  0  0  0  0  0  0  0
   69.5014   47.2865   50.6950 O   0  0  0  0  0  0  0  0  0  0  0  0
   68.2950   46.4990   52.6525 C   0  0  0  0  0  0  0  0  0  0  0  0
   67.3963   45.3754   51.6292 Cl  0  0  0  0  0  0  0  0  0  0  0  0
   68.0635   46.5631   54.0231 C   0  0  0  0  0  0  0  0  0  0  0  0
  1  2  2  0
  2 15  1  0
  2  3  1  0
 15 16  1  0
 16 17  2  0
 16 23  1  0
 17 18  1  0
 18 19  2  0
 19 20  1  0
 19 21  1  0
 21 22  1  0
 21 23  2  0
  3  4  1  0
  4  5  2  0
  5  6  1  0
  5 14  1  0
  6  7  2  0
  6  8  1  0
  8  9  1  0
  9 10  1  0
  9 14  2  0
 10 11  2  0
 11 12  1  0
 12 13  2  0
 13 14  1  0
M  END
>  <minimizedAffinity>  (307) 
-8.63703

$$$$
data/200k_reference_output/data/smiles/26122.pdb
     RDKit          3D

 25 27  0  0  0  0  0  0  0  0999 V2000
   71.2734   46.4911   58.7117 S   0  0  0  0  0  0  0  0  0  0  0  0
   71.1810   46.8072   60.1577 O   0  0  0  0  0  0  0  0  0  0  0  0
   71.6673   47.7495   57.9881 O   0  0  0  0  0  0  0  0  0  0  0  0
   72.4499   45.2199   58.4765 C   0  0  0  0  0  0  0  0  0  0  0  0
   72.0880   43.9634   58.0146 C   0  0  0  0  0  0  0  0  0  0  0  0
   73.0382   42.9748   57.8363 C   0  0  0  0  0  0  0  0  0  0  0  0
   74.3692   43.2152   58.1131 C   0  0  0  0  0  0  0  0  0  0  0  0
   75.3364   42.2455   57.9428 C   0  0  0  0  0  0  0  0  0  0  0  0
   76.6726   42.4957   58.2225 C   0  0  0  0  0  0  0  0  0  0  0  0
   77.0704   43.7336   58.6829 C   0  0  0  0  0  0  0  0  0  0  0  0
   76.0953   44.6947   58.8487 C   0  0  0  0  0  0  0  0  0  0  0  0
   74.7562   44.4629   58.5742 C   0  0  0  0  0  0  0  0  0  0  0  0
   73.7850   45.4258   58.7417 C   0  0  0  0  0  0  0  0  0  0  0  0
   69.7169   46.0317   58.1442 N   0  0  0  0  0  0  0  0  0  0  0  0
   67.8914   47.2956   56.6756 O   0  0  0  0  0  0  0  0  0  0  0  0
   68.7299   46.5622   56.0063 C   0  0  0  0  0  0  0  0  0  0  0  0
   69.7134   45.8773   56.7400 N   0  0  0  0  0  0  0  0  0  0  0  0
   68.5546   46.5364   54.5719 C   0  0  0  0  0  0  0  0  0  0  0  0
   67.8018   45.5314   53.9694 C   0  0  0  0  0  0  0  0  0  0  0  0
   67.6233   45.5101   52.6126 C   0  0  0  0  0  0  0  0  0  0  0  0
   68.1680   46.4621   51.7811 C   0  0  0  0  0  0  0  0  0  0  0  0
   68.9121   47.4570   52.3608 C   0  0  0  0  0  0  0  0  0  0  0  0
   69.4670   48.4113   51.6069 F   0  0  0  0  0  0  0  0  0  0  0  0
   69.0934   47.4794   53.7383 C   0  0  0  0  0  0  0  0  0  0  0  0
   69.8535   48.4973   54.2095 F   0  0  0  0  0  0  0  0  0  0  0  0
 15 16  2  0
 16 17  1  0
 16 18  1  0
 17 14  1  0
 14  1  1  0
  1  2  2  0
  1  3  2  0
  1  4  1  0
  4  5  2  0
  4 13  1  0
  5  6  1  0
  6  7  2  0
  7  8  1  0
  7 12  1  0
  8  9  2  0
  9 10  1  0
 10 11  2  0
 11 12  1  0
 12 13  2  0
 18 19  2  0
 18 24  1  0
 19 20  1  0
 20 21  2  0
 21 22  1  0
 22 23  1  0
 22 24  2  0
 24 25  1  0
M  END
>  <minimizedAffinity>  (308) 
-8.74096

$$$$
data/200k_reference_output/data/smiles/26310.pdb
     RDKit          3D

 27 30  0  0  0  0  0  0  0  0999 V2000
   71.0809   46.0152   58.4974 C   0  0  0  0  0  0  0  0  0  0  0  0
   70.1105   46.6228   57.7281 C   0  0  0  0  0  0  0  0  0  0  0  0
   69.8848   48.0065   57.7646 C   0  0  0  0  0  0  0  0  0  0  0  0
   70.6266   48.8046   58.5693 C   0  0  0  0  0  0  0  0  0  0  0  0
   71.6157   48.2166   59.3594 C   0  0  0  0  0  0  0  0  0  0  0  0
   71.8249   46.8596   59.3141 C   0  0  0  0  0  0  0  0  0  0  0  0
   72.7930   46.2816   60.0852 F   0  0  0  0  0  0  0  0  0  0  0  0
   73.5204   44.7908   57.7361 O   0  0  0  0  0  0  0  0  0  0  0  0
   72.5138   44.0560   57.9101 C   0  0  0  0  0  0  0  0  0  0  0  0
   72.6273   42.6301   57.5293 C   0  0  0  0  0  0  0  0  0  0  0  0
   71.7597   41.7018   58.3113 C   0  0  0  0  0  0  0  0  0  0  0  0
   70.4082   42.2346   58.6667 C   0  0  0  0  0  0  0  0  0  0  0  0
   70.3759   43.6758   58.9645 C   0  0  0  0  0  0  0  0  0  0  0  0
   69.4576   44.1038   59.7116 O   0  0  0  0  0  0  0  0  0  0  0  0
   71.3205   44.6121   58.4593 N   0  0  0  0  0  0  0  0  0  0  0  0
   68.8464   48.5260   56.8683 C   0  0  0  0  0  0  0  0  0  0  0  0
   68.6347   47.5764   55.7604 C   0  0  0  0  0  0  0  0  0  0  0  0
   68.0224   46.3759   56.0132 N   0  0  0  0  0  0  0  0  0  0  0  0
   67.7489   45.5046   55.0595 N   0  0  0  0  0  0  0  0  0  0  0  0
   68.0746   45.7894   53.7913 C   0  0  0  0  0  0  0  0  0  0  0  0
   67.7818   44.9060   52.9213 O   0  0  0  0  0  0  0  0  0  0  0  0
   68.6890   46.9676   53.4557 C   0  0  0  0  0  0  0  0  0  0  0  0
   68.9672   47.8648   54.4743 C   0  0  0  0  0  0  0  0  0  0  0  0
   69.6562   49.0455   54.1210 N   0  0  0  0  0  0  0  0  0  0  0  0
   70.5072   49.0568   52.9282 C   0  0  0  0  0  0  0  0  0  0  0  0
   69.9280   48.3431   51.7686 C   0  0  0  0  0  0  0  0  0  0  0  0
   69.0098   47.2111   52.0491 C   0  0  0  0  0  0  0  0  0  0  0  0
  8  9  2  0
  9 10  1  0
  9 15  1  0
 10 11  1  0
 11 12  1  0
 12 13  1  0
 13 14  2  0
 13 15  1  0
 15  1  1  0
  1  2  2  0
  1  6  1  0
  2  3  1  0
  3 16  1  0
  3  4  2  0
 16 17  1  0
 17 18  2  0
 17 23  1  0
 18 19  1  0
 19 20  1  0
 20 21  2  0
 20 22  1  0
 22 23  2  0
 22 27  1  0
 23 24  1  0
 24 25  1  0
 25 26  1  0
 26 27  1  0
  4  5  1  0
  5  6  2  0
  6  7  1  0
M  END
>  <minimizedAffinity>  (309) 
-8.88199

$$$$
data/200k_reference_output/data/smiles/26341.pdb
     RDKit          3D

 23 25  0  0  0  0  0  0  0  0999 V2000
   69.0832   48.8491   57.5781 O   0  0  0  0  0  0  0  0  0  0  0  0
   68.9084   47.7030   56.6259 S   0  0  0  0  0  0  0  0  0  0  0  0
   67.4375   47.3091   56.6520 O   0  0  0  0  0  0  0  0  0  0  0  0
   69.3029   48.1600   54.9869 C   0  0  0  0  0  0  0  0  0  0  0  0
   70.0677   49.2632   54.7040 C   0  0  0  0  0  0  0  0  0  0  0  0
   70.3699   49.6237   53.3976 C   0  0  0  0  0  0  0  0  0  0  0  0
   69.8921   48.8618   52.3607 C   0  0  0  0  0  0  0  0  0  0  0  0
   69.1285   47.7616   52.6322 C   0  0  0  0  0  0  0  0  0  0  0  0
   68.6376   46.9772   51.6027 C   0  0  0  0  0  0  0  0  0  0  0  0
   67.8675   45.8592   51.8341 C   0  0  0  0  0  0  0  0  0  0  0  0
   67.5966   45.5425   53.1296 C   0  0  0  0  0  0  0  0  0  0  0  0
   68.0554   46.2823   54.1850 C   0  0  0  0  0  0  0  0  0  0  0  0
   68.8251   47.3981   53.9458 C   0  0  0  0  0  0  0  0  0  0  0  0
   69.8881   46.3593   57.0543 N   0  0  0  0  0  0  0  0  0  0  0  0
   69.3337   45.0837   57.0176 N   0  0  0  0  0  0  0  0  0  0  0  0
   69.9334   44.0151   57.3900 C   0  0  0  0  0  0  0  0  0  0  0  0
   69.2975   42.6918   57.3288 C   0  0  0  0  0  0  0  0  0  0  0  0
   69.7700   41.6229   58.0609 C   0  0  0  0  0  0  0  0  0  0  0  0
   69.1688   40.3817   58.0002 C   0  0  0  0  0  0  0  0  0  0  0  0
   68.0675   40.1732   57.1955 C   0  0  0  0  0  0  0  0  0  0  0  0
   67.6208   41.2640   56.4756 C   0  0  0  0  0  0  0  0  0  0  0  0
   68.2239   42.4654   56.5519 N   0  0  0  0  0  0  0  0  0  0  0  0
   67.7577   43.5406   55.8211 O   0  0  0  0  0  0  0  0  0  0  0  0
  1  2  2  0
  2  3  2  0
  2 14  1  0
  2  4  1  0
 14 15  1  0
 15 16  2  0
 16 17  1  0
 17 18  2  0
 17 22  1  0
 18 19  1  0
 19 20  2  0
 20 21  1  0
 21 22  2  0
 22 23  1  0
  4  5  2  0
  4 13  1  0
  5  6  1  0
  6  7  2  0
  7  8  1  0
  8  9  1  0
  8 13  2  0
  9 10  2  0
 10 11  1  0
 11 12  2  0
 12 13  1  0
M  CHG  2  22   1  23  -1
M  END
>  <minimizedAffinity>  (310) 
-9.04904

$$$$
data/200k_reference_output/data/smiles/26405.pdb
     RDKit          3D

 20 22  0  0  0  0  0  0  0  0999 V2000
   68.7087   45.3840   56.1072 C   0  0  0  0  0  0  0  0  0  0  0  0
   69.6880   45.9907   56.8477 N   0  0  0  0  0  0  0  0  0  0  0  0
   70.3995   45.2793   57.7259 C   0  0  0  0  0  0  0  0  0  0  0  0
   70.1633   43.9120   57.9071 C   0  0  0  0  0  0  0  0  0  0  0  0
   69.1862   43.2954   57.1714 C   0  0  0  0  0  0  0  0  0  0  0  0
   68.5135   44.0793   56.3087 N   0  0  0  0  0  0  0  0  0  0  0  0
   68.8994   41.8818   57.3034 C   0  0  0  0  0  0  0  0  0  0  0  0
   69.5573   41.1198   58.2729 C   0  0  0  0  0  0  0  0  0  0  0  0
   69.2784   39.7637   58.3984 C   0  0  0  0  0  0  0  0  0  0  0  0
   68.3631   39.1271   57.5941 C   0  0  0  0  0  0  0  0  0  0  0  0
   67.7484   39.8841   56.6748 N   0  0  0  0  0  0  0  0  0  0  0  0
   67.9973   41.2224   56.5208 C   0  0  0  0  0  0  0  0  0  0  0  0
   67.9742   46.1207   55.1593 N   0  0  0  0  0  0  0  0  0  0  0  0
   70.2690   49.1208   50.9601 O   0  0  0  0  0  0  0  0  0  0  0  0
   69.6927   48.3504   51.9946 C   0  0  0  0  0  0  0  0  0  0  0  0
   69.6561   48.8155   53.2850 C   0  0  0  0  0  0  0  0  0  0  0  0
   69.1028   48.0815   54.2950 C   0  0  0  0  0  0  0  0  0  0  0  0
   68.5395   46.8094   54.0759 C   0  0  0  0  0  0  0  0  0  0  0  0
   68.5913   46.3759   52.7723 C   0  0  0  0  0  0  0  0  0  0  0  0
   69.1527   47.1169   51.7396 C   0  0  0  0  0  0  0  0  0  0  0  0
 14 15  1  0
 15 16  2  0
 15 20  1  0
 16 17  1  0
 17 18  2  0
 18 13  1  0
 18 19  1  0
 13  1  1  0
  1  2  2  0
  1  6  1  0
  2  3  1  0
  3  4  2  0
  4  5  1  0
  5  7  1  0
  5  6  2  0
  7  8  2  0
  7 12  1  0
  8  9  1  0
  9 10  2  0
 10 11  1  0
 11 12  2  0
 19 20  2  0
M  END
>  <minimizedAffinity>  (311) 
-8.65662

$$$$
data/200k_reference_output/data/smiles/26481.pdb
     RDKit          3D

 22 23  0  0  0  0  0  0  0  0999 V2000
   68.9313   46.8161   56.6723 C   0  0  0  0  0  0  0  0  0  0  0  0
   69.6981   45.8494   57.2628 C   0  0  0  0  0  0  0  0  0  0  0  0
   70.6603   46.1884   58.1831 C   0  0  0  0  0  0  0  0  0  0  0  0
   70.8911   47.5360   58.5486 C   0  0  0  0  0  0  0  0  0  0  0  0
   70.1356   48.5083   57.9665 C   0  0  0  0  0  0  0  0  0  0  0  0
   69.1609   48.1065   57.0303 C   0  0  0  0  0  0  0  0  0  0  0  0
   71.8886   47.7622   59.5798 C   0  0  0  0  0  0  0  0  0  0  0  0
   71.7123   47.2770   60.7589 O   0  0  0  0  0  0  0  0  0  0  0  0
   73.0345   48.4813   59.3737 O   0  0  0  0  0  0  0  0  0  0  0  0
   70.2827   49.8802   58.2521 N   0  0  0  0  0  0  0  0  0  0  0  0
   69.6576   50.4872   59.0875 O   0  0  0  0  0  0  0  0  0  0  0  0
   71.2653   50.5854   57.5650 O   0  0  0  0  0  0  0  0  0  0  0  0
   67.9736   46.4783   55.7581 O   0  0  0  0  0  0  0  0  0  0  0  0
   69.3436   47.7351   52.5449 C   0  0  0  0  0  0  0  0  0  0  0  0
   68.6950   46.8806   51.6788 C   0  0  0  0  0  0  0  0  0  0  0  0
   67.8261   45.9132   52.1627 C   0  0  0  0  0  0  0  0  0  0  0  0
   67.5981   45.7924   53.5016 C   0  0  0  0  0  0  0  0  0  0  0  0
   68.2281   46.6278   54.3972 C   0  0  0  0  0  0  0  0  0  0  0  0
   69.0898   47.5848   53.8910 C   0  0  0  0  0  0  0  0  0  0  0  0
   70.0544   49.3406   50.9662 O   0  0  0  0  0  0  0  0  0  0  0  0
   70.2599   48.7552   52.0525 C   0  0  0  0  0  0  0  0  0  0  0  0
   71.3877   49.1063   52.7748 O   0  0  0  0  0  0  0  0  0  0  0  0
 20 21  2  0
 21 22  1  0
 21 14  1  0
 14 15  2  0
 14 19  1  0
 15 16  1  0
 16 17  2  0
 17 18  1  0
 18 13  1  0
 18 19  2  0
 13  1  1  0
  1  2  2  0
  1  6  1  0
  2  3  1  0
  3  4  2  0
  4  7  1  0
  4  5  1  0
  7  8  2  0
  7  9  1  0
  5 10  1  0
  5  6  2  0
 10 11  2  0
 10 12  1  0
M  CHG  2  10   1  12  -1
M  END
>  <minimizedAffinity>  (312) 
-8.53383

$$$$
data/200k_reference_output/data/smiles/26539.pdb
     RDKit          3D

 27 30  0  0  0  0  0  0  0  0999 V2000
   70.2099   44.6360   57.9547 C   0  0  0  0  0  0  0  0  0  0  0  0
   69.8440   44.7142   59.1565 O   0  0  0  0  0  0  0  0  0  0  0  0
   70.1643   45.8184   57.1666 N   0  0  0  0  0  0  0  0  0  0  0  0
   70.6825   43.3213   57.3750 C   0  0  0  0  0  0  0  0  0  0  0  0
   72.8379   39.2238   59.4212 C   0  0  0  0  0  0  0  0  0  0  0  0
   71.4765   39.4556   58.9278 C   0  0  0  0  0  0  0  0  0  0  0  0
   70.4530   38.5452   58.9248 C   0  0  0  0  0  0  0  0  0  0  0  0
   69.1927   38.8302   58.4435 C   0  0  0  0  0  0  0  0  0  0  0  0
   68.9189   40.0831   57.9353 C   0  0  0  0  0  0  0  0  0  0  0  0
   69.9276   41.0155   57.9270 C   0  0  0  0  0  0  0  0  0  0  0  0
   71.1868   40.7093   58.4148 C   0  0  0  0  0  0  0  0  0  0  0  0
   69.6714   42.3303   57.4065 N   0  0  0  0  0  0  0  0  0  0  0  0
   68.3801   42.6629   56.9043 C   0  0  0  0  0  0  0  0  0  0  0  0
   68.1392   43.6875   56.2262 O   0  0  0  0  0  0  0  0  0  0  0  0
   67.2513   41.7536   57.1959 C   0  0  0  0  0  0  0  0  0  0  0  0
   67.6739   40.4299   57.4379 O   0  0  0  0  0  0  0  0  0  0  0  0
   69.7274   47.0951   57.6582 C   0  0  0  0  0  0  0  0  0  0  0  0
   68.6296   47.6686   56.7868 C   0  0  0  0  0  0  0  0  0  0  0  0
   69.1150   48.0502   55.4436 C   0  0  0  0  0  0  0  0  0  0  0  0
   69.9499   49.0626   55.0388 C   0  0  0  0  0  0  0  0  0  0  0  0
   70.0972   49.0028   53.6881 N   0  0  0  0  0  0  0  0  0  0  0  0
   69.3824   47.9797   53.2008 C   0  0  0  0  0  0  0  0  0  0  0  0
   69.1596   47.4524   51.9304 C   0  0  0  0  0  0  0  0  0  0  0  0
   68.3478   46.3610   51.7450 C   0  0  0  0  0  0  0  0  0  0  0  0
   67.7259   45.7490   52.8054 C   0  0  0  0  0  0  0  0  0  0  0  0
   67.9521   46.2816   54.0796 C   0  0  0  0  0  0  0  0  0  0  0  0
   68.7652   47.3747   54.2687 C   0  0  0  0  0  0  0  0  0  0  0  0
  5  6  1  0
  6  7  2  0
  6 11  1  0
  7  8  1  0
  8  9  2  0
  9 10  1  0
  9 16  1  0
 10 11  2  0
 10 12  1  0
 12  4  1  0
 12 13  1  0
  4  1  1  0
  1  2  2  0
  1  3  1  0
  3 17  1  0
 17 18  1  0
 18 19  1  0
 19 20  2  0
 19 27  1  0
 20 21  1  0
 21 22  1  0
 22 23  1  0
 22 27  2  0
 23 24  2  0
 24 25  1  0
 25 26  2  0
 26 27  1  0
 13 14  2  0
 13 15  1  0
 15 16  1  0
M  END
>  <minimizedAffinity>  (313) 
-8.73580

$$$$
data/200k_reference_output/data/smiles/26553.pdb
     RDKit          3D

 25 28  0  0  0  0  0  0  0  0999 V2000
   74.0840   35.6121   53.6644 C   0  0  0  0  0  0  0  0  0  0  0  0
   72.3128   34.7951   52.2639 O   0  0  0  0  0  0  0  0  0  0  0  0
   73.5342   34.9138   52.5134 C   0  0  0  0  0  0  0  0  0  0  0  0
   74.4123   34.2861   51.5461 N   0  0  0  0  0  0  0  0  0  0  0  0
   73.8426   33.6121   50.4214 C   0  0  0  0  0  0  0  0  0  0  0  0
   74.8514   33.2181   49.3910 C   0  0  0  0  0  0  0  0  0  0  0  0
   76.0028   34.1480   49.3181 C   0  0  0  0  0  0  0  0  0  0  0  0
   76.5821   34.4435   48.0787 C   0  0  0  0  0  0  0  0  0  0  0  0
   77.6580   35.3059   47.9809 C   0  0  0  0  0  0  0  0  0  0  0  0
   78.1391   35.8645   49.1492 C   0  0  0  0  0  0  0  0  0  0  0  0
   77.5715   35.5790   50.3840 C   0  0  0  0  0  0  0  0  0  0  0  0
   76.4987   34.7162   50.4680 C   0  0  0  0  0  0  0  0  0  0  0  0
   75.8476   34.3743   51.7747 C   0  0  0  0  0  0  0  0  0  0  0  0
   74.5129   34.8005   54.8436 C   0  0  0  0  0  0  0  0  0  0  0  0
   73.6403   34.8846   56.0175 C   0  0  0  0  0  0  0  0  0  0  0  0
   73.1411   36.0824   56.3740 N   0  0  0  0  0  0  0  0  0  0  0  0
   72.3671   36.2789   57.4524 C   0  0  0  0  0  0  0  0  0  0  0  0
   71.8807   37.5312   57.7715 C   0  0  0  0  0  0  0  0  0  0  0  0
   71.0900   37.7006   58.8822 C   0  0  0  0  0  0  0  0  0  0  0  0
   70.7793   36.6178   59.6841 C   0  0  0  0  0  0  0  0  0  0  0  0
   71.2724   35.3765   59.3498 C   0  0  0  0  0  0  0  0  0  0  0  0
   72.0731   35.1755   58.2348 C   0  0  0  0  0  0  0  0  0  0  0  0
   72.5718   33.9385   57.8926 C   0  0  0  0  0  0  0  0  0  0  0  0
   72.3064   32.9433   58.5984 O   0  0  0  0  0  0  0  0  0  0  0  0
   73.3574   33.8245   56.7724 N   0  0  0  0  0  0  0  0  0  0  0  0
  2  3  2  0
  3  1  1  0
  3  4  1  0
  1 14  1  0
 14 15  1  0
 15 16  2  0
 15 25  1  0
 16 17  1  0
 17 18  2  0
 17 22  1  0
 18 19  1  0
 19 20  2  0
 20 21  1  0
 21 22  2  0
 22 23  1  0
 23 24  2  0
 23 25  1  0
  4  5  1  0
  4 13  1  0
  5  6  1  0
  6  7  1  0
  7  8  2  0
  7 12  1  0
  8  9  1  0
  9 10  2  0
 10 11  1  0
 11 12  2  0
 12 13  1  0
M  END
>  <minimizedAffinity>  (314) 
-8.60370

$$$$
data/200k_reference_output/data/smiles/26689.pdb
     RDKit          3D

 24 25  0  0  0  0  0  0  0  0999 V2000
   70.8177   44.1276   58.5969 C   0  0  0  0  0  0  0  0  0  0  0  0
   70.6688   46.5184   57.2581 O   0  0  0  0  0  0  0  0  0  0  0  0
   69.6519   45.7968   57.1188 C   0  0  0  0  0  0  0  0  0  0  0  0
   68.5486   46.2132   56.3316 N   0  0  0  0  0  0  0  0  0  0  0  0
   69.6941   44.5404   57.8049 N   0  0  0  0  0  0  0  0  0  0  0  0
   68.4903   47.4805   55.6338 C   0  0  0  0  0  0  0  0  0  0  0  0
   68.6014   47.2537   54.1880 C   0  0  0  0  0  0  0  0  0  0  0  0
   69.4412   48.0951   53.4533 C   0  0  0  0  0  0  0  0  0  0  0  0
   69.6083   47.9736   52.0896 C   0  0  0  0  0  0  0  0  0  0  0  0
   68.9346   47.0107   51.4585 N   0  0  0  0  0  0  0  0  0  0  0  0
   68.1041   46.1594   52.0923 C   0  0  0  0  0  0  0  0  0  0  0  0
   67.9409   46.2888   53.4756 C   0  0  0  0  0  0  0  0  0  0  0  0
   71.2625   42.7182   58.3870 C   0  0  2  0  0  0  0  0  0  0  0  0
   72.2424   42.7525   57.3706 O   0  0  0  0  0  0  0  0  0  0  0  0
   70.1414   41.8255   57.9984 C   0  0  0  0  0  0  0  0  0  0  0  0
   70.1207   40.5194   58.4437 C   0  0  0  0  0  0  0  0  0  0  0  0
   69.0791   39.6765   58.0847 C   0  0  0  0  0  0  0  0  0  0  0  0
   68.0587   40.1342   57.2833 C   0  0  0  0  0  0  0  0  0  0  0  0
   68.0632   41.4482   56.8260 C   0  0  0  0  0  0  0  0  0  0  0  0
   69.1062   42.2497   57.2002 C   0  0  0  0  0  0  0  0  0  0  0  0
   66.9361   41.9108   55.9551 C   0  0  0  0  0  0  0  0  0  0  0  0
   66.7429   41.0004   54.9234 F   0  0  0  0  0  0  0  0  0  0  0  0
   67.3167   43.1278   55.4179 F   0  0  0  0  0  0  0  0  0  0  0  0
   65.7877   42.0631   56.7053 F   0  0  0  0  0  0  0  0  0  0  0  0
  2  3  2  0
  3  4  1  0
  3  5  1  0
  4  6  1  0
  6  7  1  0
  7  8  2  0
  7 12  1  0
  8  9  1  0
  9 10  2  0
 10 11  1  0
 11 12  2  0
  5  1  1  0
  1 13  1  0
 13 14  1  6
 13 15  1  0
 15 16  2  0
 15 20  1  0
 16 17  1  0
 17 18  2  0
 18 19  1  0
 19 21  1  0
 19 20  2  0
 21 22  1  0
 21 23  1  0
 21 24  1  0
M  END
>  <minimizedAffinity>  (315) 
-8.50959

$$$$
data/200k_reference_output/data/smiles/26713.pdb
     RDKit          3D

 27 29  0  0  0  0  0  0  0  0999 V2000
   70.0709   46.1838   58.6600 N   0  0  0  0  0  0  0  0  0  0  0  0
   71.5732   46.8047   59.1755 S   0  0  0  0  0  0  0  0  0  0  0  0
   71.5123   47.0749   60.6519 O   0  0  0  0  0  0  0  0  0  0  0  0
   72.6053   45.7020   58.9974 O   0  0  0  0  0  0  0  0  0  0  0  0
   72.9149   50.5140   56.8189 C   0  0  0  0  0  0  0  0  0  0  0  0
   71.6384   50.3929   57.3285 C   0  0  0  0  0  0  0  0  0  0  0  0
   71.2586   49.2701   58.0328 C   0  0  0  0  0  0  0  0  0  0  0  0
   72.1175   48.1985   58.2759 C   0  0  0  0  0  0  0  0  0  0  0  0
   73.3898   48.3229   57.7655 C   0  0  0  0  0  0  0  0  0  0  0  0
   73.7743   49.4599   57.0528 C   0  0  0  0  0  0  0  0  0  0  0  0
   73.9432   52.9034   53.9143 C   0  0  0  0  0  0  0  0  0  0  0  0
   73.5094   51.7412   54.6936 C   0  0  0  0  0  0  0  0  0  0  0  0
   73.2474   50.6505   54.0517 O   0  0  0  0  0  0  0  0  0  0  0  0
   73.3347   51.6476   56.0768 N   0  0  0  0  0  0  0  0  0  0  0  0
   69.7245   46.1752   57.3388 N   0  0  0  0  0  0  0  0  0  0  0  0
   68.9437   46.9448   56.6963 C   0  0  0  0  0  0  0  0  0  0  0  0
   68.7508   46.7097   55.2546 C   0  0  0  0  0  0  0  0  0  0  0  0
   68.2098   45.5352   54.7678 C   0  0  0  0  0  0  0  0  0  0  0  0
   67.8538   44.5707   55.7077 O   0  0  0  0  0  0  0  0  0  0  0  0
   68.0350   45.3324   53.4231 C   0  0  0  0  0  0  0  0  0  0  0  0
   68.3966   46.2980   52.5290 C   0  0  0  0  0  0  0  0  0  0  0  0
   68.9423   47.4888   53.0010 C   0  0  0  0  0  0  0  0  0  0  0  0
   69.3073   48.4731   52.1184 C   0  0  0  0  0  0  0  0  0  0  0  0
   69.8419   49.6632   52.5459 C   0  0  0  0  0  0  0  0  0  0  0  0
   70.0179   49.8727   53.8974 C   0  0  0  0  0  0  0  0  0  0  0  0
   69.6540   48.8862   54.7841 C   0  0  0  0  0  0  0  0  0  0  0  0
   69.1145   47.6835   54.3635 C   0  0  0  0  0  0  0  0  0  0  0  0
 11 12  1  0
 12 13  2  0
 12 14  1  0
 14  5  1  0
  5  6  2  0
  5 10  1  0
  6  7  1  0
  7  8  2  0
  8  2  1  0
  8  9  1  0
  2  3  2  0
  2  4  2  0
  2  1  1  0
  1 15  1  0
 15 16  2  0
 16 17  1  0
 17 18  2  0
 17 27  1  0
 18 19  1  0
 18 20  1  0
 20 21  2  0
 21 22  1  0
 22 23  1  0
 22 27  2  0
 23 24  2  0
 24 25  1  0
 25 26  2  0
 26 27  1  0
  9 10  2  0
M  END
>  <minimizedAffinity>  (316) 
-8.63384

$$$$
data/200k_reference_output/data/smiles/26744.pdb
     RDKit          3D

 30 32  0  0  0  0  0  0  0  0999 V2000
   69.9964   50.8129   54.5241 N   0  0  0  0  0  0  0  0  0  0  0  0
   68.6273   51.4031   54.4338 C   0  0  0  0  0  0  0  0  0  0  0  0
   68.1668   51.8932   55.7829 C   0  0  0  0  0  0  0  0  0  0  0  0
   69.2494   52.7816   56.3647 C   0  0  0  0  0  0  0  0  0  0  0  0
   70.2429   52.9737   55.4062 O   0  0  0  0  0  0  0  0  0  0  0  0
   70.8822   51.7432   55.1064 C   0  0  2  0  0  0  0  0  0  0  0  0
   69.8547   49.2829   55.2433 S   0  0  0  0  0  0  0  0  0  0  0  0
   71.2523   48.7940   55.6109 O   0  0  0  0  0  0  0  0  0  0  0  0
   69.1773   49.3888   56.6200 O   0  0  0  0  0  0  0  0  0  0  0  0
   70.2076   48.8186   52.1756 C   0  0  0  0  0  0  0  0  0  0  0  0
   69.3761   47.8987   52.9536 C   0  0  0  0  0  0  0  0  0  0  0  0
   68.7944   46.8556   52.2365 C   0  0  0  0  0  0  0  0  0  0  0  0
   67.9627   45.9501   52.8311 C   0  0  0  0  0  0  0  0  0  0  0  0
   67.3932   44.9330   52.1432 F   0  0  0  0  0  0  0  0  0  0  0  0
   67.7001   46.0768   54.1602 C   0  0  0  0  0  0  0  0  0  0  0  0
   68.2671   47.0959   54.8705 C   0  0  0  0  0  0  0  0  0  0  0  0
   69.1254   48.0446   54.2970 C   0  0  0  0  0  0  0  0  0  0  0  0
   72.0251   52.1032   54.2107 C   0  0  0  0  0  0  0  0  0  0  0  0
   73.1957   51.2852   54.2949 N   0  0  0  0  0  0  0  0  0  0  0  0
   74.1656   51.3969   55.3123 C   0  0  0  0  0  0  0  0  0  0  0  0
   74.0917   52.2444   56.2317 O   0  0  0  0  0  0  0  0  0  0  0  0
   75.3227   50.4825   55.3050 C   0  0  0  0  0  0  0  0  0  0  0  0
   75.3918   49.5061   54.5268 O   0  0  0  0  0  0  0  0  0  0  0  0
   76.3878   50.7195   56.2077 N   0  0  0  0  0  0  0  0  0  0  0  0
   77.5643   49.8922   56.2857 C   0  0  0  0  0  0  0  0  0  0  0  0
   77.4972   48.8534   57.3642 C   0  0  0  0  0  0  0  0  0  0  0  0
   78.9296   48.6068   57.8347 C   0  0  0  0  0  0  0  0  0  0  0  0
   79.8602   48.4574   56.6449 C   0  0  0  0  0  0  0  0  0  0  0  0
   80.0089   49.7978   55.9892 C   0  0  0  0  0  0  0  0  0  0  0  0
   78.8441   50.7005   56.3384 C   0  0  0  0  0  0  0  0  0  0  0  0
 10 11  1  0
 11 12  2  0
 11 17  1  0
 12 13  1  0
 13 14  1  0
 13 15  2  0
 15 16  1  0
 16 17  2  0
 17  7  1  0
  7  8  2  0
  7  9  2  0
  7  1  1  0
  1  2  1  0
  1  6  1  0
  2  3  1  0
  3  4  1  0
  4  5  1  0
  5  6  1  0
  6 18  1  6
 18 19  1  0
 19 20  1  0
 20 21  2  0
 20 22  1  0
 22 23  2  0
 22 24  1  0
 24 25  1  0
 25 26  1  0
 25 30  1  0
 26 27  1  0
 27 28  1  0
 28 29  1  0
 29 30  1  0
M  END
>  <minimizedAffinity>  (317) 
-8.71415

$$$$
data/200k_reference_output/data/smiles/27190.pdb
     RDKit          3D

 23 25  0  0  0  0  0  0  0  0999 V2000
   68.4689   41.9907   57.3891 C   0  0  0  0  0  0  0  0  0  0  0  0
   67.7091   42.3125   56.2744 C   0  0  0  0  0  0  0  0  0  0  0  0
   67.9986   43.6147   55.8769 C   0  0  0  0  0  0  0  0  0  0  0  0
   68.9200   44.0403   56.7586 N   0  0  0  0  0  0  0  0  0  0  0  0
   69.1945   43.0792   57.6485 N   0  0  0  0  0  0  0  0  0  0  0  0
   70.6953   37.7978   58.6745 N   0  0  0  0  0  0  0  0  0  0  0  0
   69.5464   38.6232   58.7084 C   0  0  0  0  0  0  0  0  0  0  0  0
   68.3861   38.2450   59.3641 C   0  0  0  0  0  0  0  0  0  0  0  0
   67.2669   39.0560   59.3894 C   0  0  0  0  0  0  0  0  0  0  0  0
   67.2918   40.2973   58.7370 C   0  0  0  0  0  0  0  0  0  0  0  0
   68.4334   40.6972   58.0783 C   0  0  0  0  0  0  0  0  0  0  0  0
   69.5245   39.8570   58.0799 C   0  0  0  0  0  0  0  0  0  0  0  0
   67.4982   44.3734   54.7896 N   0  0  0  0  0  0  0  0  0  0  0  0
   68.0766   45.5317   54.2579 C   0  0  0  0  0  0  0  0  0  0  0  0
   68.5387   46.5156   55.1038 C   0  0  0  0  0  0  0  0  0  0  0  0
   69.1238   47.6316   54.5544 C   0  0  0  0  0  0  0  0  0  0  0  0
   69.2480   47.7631   53.1695 C   0  0  0  0  0  0  0  0  0  0  0  0
   68.7797   46.7696   52.3423 C   0  0  0  0  0  0  0  0  0  0  0  0
   68.2012   45.6671   52.8917 C   0  0  0  0  0  0  0  0  0  0  0  0
   70.0053   49.2079   52.5373 S   0  0  0  0  0  0  0  0  0  0  0  0
   69.2588   50.6059   53.2163 N   0  0  0  0  0  0  0  0  0  0  0  0
   69.9866   49.2486   51.0392 O   0  0  0  0  0  0  0  0  0  0  0  0
   71.4579   49.2574   52.9893 O   0  0  0  0  0  0  0  0  0  0  0  0
  6  7  1  0
  7  8  2  0
  7 12  1  0
  8  9  1  0
  9 10  2  0
 10 11  1  0
 11  1  1  0
 11 12  2  0
  1  2  1  0
  1  5  2  0
  2  3  2  0
  3 13  1  0
  3  4  1  0
 13 14  1  0
 14 15  2  0
 14 19  1  0
 15 16  1  0
 16 17  2  0
 17 20  1  0
 17 18  1  0
 20 21  1  0
 20 22  2  0
 20 23  2  0
 18 19  2  0
  4  5  1  0
M  END
>  <minimizedAffinity>  (318) 
-8.96827

$$$$
data/200k_reference_output/data/smiles/27234.pdb
     RDKit          3D

 25 26  0  0  0  0  0  0  0  0999 V2000
   69.9759   49.3580   52.7080 S   0  0  0  0  0  0  0  0  0  0  0  0
   69.9219   49.3846   51.2082 O   0  0  0  0  0  0  0  0  0  0  0  0
   71.4195   49.4081   53.1328 O   0  0  0  0  0  0  0  0  0  0  0  0
   69.2305   47.8754   53.3032 C   0  0  0  0  0  0  0  0  0  0  0  0
   69.2999   47.6308   54.6579 C   0  0  0  0  0  0  0  0  0  0  0  0
   69.9167   48.5031   55.5047 F   0  0  0  0  0  0  0  0  0  0  0  0
   68.7366   46.4847   55.1787 C   0  0  0  0  0  0  0  0  0  0  0  0
   68.7823   46.2048   56.5045 F   0  0  0  0  0  0  0  0  0  0  0  0
   68.1016   45.5794   54.3323 C   0  0  0  0  0  0  0  0  0  0  0  0
   67.5586   44.4612   54.8820 F   0  0  0  0  0  0  0  0  0  0  0  0
   68.0320   45.8239   52.9798 C   0  0  0  0  0  0  0  0  0  0  0  0
   67.4067   44.9187   52.2003 F   0  0  0  0  0  0  0  0  0  0  0  0
   68.5984   46.9725   52.4754 C   0  0  0  0  0  0  0  0  0  0  0  0
   68.5378   47.2168   51.1385 F   0  0  0  0  0  0  0  0  0  0  0  0
   69.1101   50.7306   53.2863 N   0  0  0  0  0  0  0  0  0  0  0  0
   71.5737   52.9398   55.0439 C   0  0  0  0  0  0  0  0  0  0  0  0
   70.8463   53.3902   56.1156 C   0  0  0  0  0  0  0  0  0  0  0  0
   69.5476   52.9428   56.2240 C   0  0  0  0  0  0  0  0  0  0  0  0
   68.9887   52.0824   55.3104 C   0  0  0  0  0  0  0  0  0  0  0  0
   69.7271   51.6174   54.2112 C   0  0  0  0  0  0  0  0  0  0  0  0
   71.0215   52.0753   54.1190 C   0  0  0  0  0  0  0  0  0  0  0  0
   73.7882   52.8248   53.2858 N   0  0  0  0  0  0  0  0  0  0  0  0
   73.2277   53.4498   54.8176 S   0  0  0  0  0  0  0  0  0  0  0  0
   74.1414   52.8936   55.8705 O   0  0  0  0  0  0  0  0  0  0  0  0
   73.3400   54.9451   54.7282 O   0  0  0  0  0  0  0  0  0  0  0  0
 22 23  1  0
 23 24  2  0
 23 25  2  0
 23 16  1  0
 16 17  2  0
 16 21  1  0
 17 18  1  0
 18 19  2  0
 19 20  1  0
 20 15  1  0
 20 21  2  0
 15  1  1  0
  1  2  2  0
  1  3  2  0
  1  4  1  0
  4  5  2  0
  4 13  1  0
  5  6  1  0
  5  7  1  0
  7  8  1  0
  7  9  2  0
  9 10  1  0
  9 11  1  0
 11 12  1  0
 11 13  2  0
 13 14  1  0
M  END
>  <minimizedAffinity>  (319) 
-9.56258

$$$$
data/200k_reference_output/data/smiles/27419.pdb
     RDKit          3D

 22 23  0  0  0  0  0  0  0  0999 V2000
   69.2943   46.5986   56.4176 N   0  0  0  0  0  0  0  0  0  0  0  0
   68.6960   45.8839   55.5309 C   0  0  0  0  0  0  0  0  0  0  0  0
   68.0859   44.6694   55.8831 N   0  0  0  0  0  0  0  0  0  0  0  0
   68.6149   46.2834   54.1290 C   0  0  0  0  0  0  0  0  0  0  0  0
   67.7825   45.6715   53.2156 C   0  0  0  0  0  0  0  0  0  0  0  0
   67.7463   46.0962   51.8865 C   0  0  0  0  0  0  0  0  0  0  0  0
   68.5510   47.1363   51.4882 C   0  0  0  0  0  0  0  0  0  0  0  0
   69.3873   47.7526   52.3992 C   0  0  0  0  0  0  0  0  0  0  0  0
   69.4123   47.3228   53.7099 C   0  0  0  0  0  0  0  0  0  0  0  0
   70.2137   48.8257   51.9786 N   0  0  0  0  0  0  0  0  0  0  0  0
   69.9149   49.4691   50.9562 O   0  0  0  0  0  0  0  0  0  0  0  0
   71.3276   49.1173   52.7228 O   0  0  0  0  0  0  0  0  0  0  0  0
   69.3189   46.1408   57.7092 O   0  0  0  0  0  0  0  0  0  0  0  0
   70.4532   45.7899   58.3914 C   0  0  0  0  0  0  0  0  0  0  0  0
   70.8999   46.5973   59.2462 O   0  0  0  0  0  0  0  0  0  0  0  0
   74.7096   43.1842   58.1195 C   0  0  0  0  0  0  0  0  0  0  0  0
   73.2199   43.2406   58.0303 C   0  0  0  0  0  0  0  0  0  0  0  0
   72.4652   42.1220   57.7375 C   0  0  0  0  0  0  0  0  0  0  0  0
   71.0887   42.1709   57.6540 C   0  0  0  0  0  0  0  0  0  0  0  0
   70.4480   43.3786   57.8703 C   0  0  0  0  0  0  0  0  0  0  0  0
   71.1602   44.5213   58.1662 C   0  0  0  0  0  0  0  0  0  0  0  0
   72.5252   44.4198   58.2372 C   0  0  0  0  0  0  0  0  0  0  0  0
 16 17  1  0
 17 18  2  0
 17 22  1  0
 18 19  1  0
 19 20  2  0
 20 21  1  0
 21 14  1  0
 21 22  2  0
 14 15  2  0
 14 13  1  0
 13  1  1  0
  1  2  2  0
  2  3  1  0
  2  4  1  0
  4  5  2  0
  4  9  1  0
  5  6  1  0
  6  7  2  0
  7  8  1  0
  8 10  1  0
  8  9  2  0
 10 11  2  0
 10 12  1  0
M  CHG  3   1   1  10   1  12  -1
M  END
>  <minimizedAffinity>  (320) 
-8.84656

$$$$
data/200k_reference_output/data/smiles/27479.pdb
     RDKit          3D

 27 30  0  0  0  0  0  0  0  0999 V2000
   72.3808   47.3246   58.7268 C   0  0  0  0  0  0  0  0  0  0  0  0
   71.2353   47.8276   58.1558 C   0  0  0  0  0  0  0  0  0  0  0  0
   70.2110   47.0788   57.6326 C   0  0  0  0  0  0  0  0  0  0  0  0
   70.3506   45.6820   57.6876 C   0  0  0  0  0  0  0  0  0  0  0  0
   71.4793   45.1437   58.2511 C   0  0  0  0  0  0  0  0  0  0  0  0
   72.4843   45.9274   58.7663 C   0  0  0  0  0  0  0  0  0  0  0  0
   73.6095   45.4077   59.3267 F   0  0  0  0  0  0  0  0  0  0  0  0
   72.6228   47.8443   61.4008 O   0  0  0  0  0  0  0  0  0  0  0  0
   73.4618   48.4307   60.6471 C   0  0  0  0  0  0  0  0  0  0  0  0
   74.4100   49.4198   61.2379 C   0  0  0  0  0  0  0  0  0  0  0  0
   74.9261   50.3615   60.1864 C   0  0  0  0  0  0  0  0  0  0  0  0
   75.4913   49.6174   58.9913 C   0  0  0  0  0  0  0  0  0  0  0  0
   74.5381   48.5856   58.5037 C   0  0  0  0  0  0  0  0  0  0  0  0
   74.7108   48.1151   57.3474 O   0  0  0  0  0  0  0  0  0  0  0  0
   73.4413   48.0984   59.2617 N   0  0  0  0  0  0  0  0  0  0  0  0
   68.9826   47.6550   57.0285 C   0  0  0  0  0  0  0  0  0  0  0  0
   68.7058   47.0144   55.7376 C   0  0  0  0  0  0  0  0  0  0  0  0
   68.1136   45.7863   55.8202 N   0  0  0  0  0  0  0  0  0  0  0  0
   67.7592   45.0750   54.7772 N   0  0  0  0  0  0  0  0  0  0  0  0
   67.9865   45.5741   53.5549 C   0  0  0  0  0  0  0  0  0  0  0  0
   67.6535   44.9101   52.5232 O   0  0  0  0  0  0  0  0  0  0  0  0
   68.5800   46.8083   53.3671 C   0  0  0  0  0  0  0  0  0  0  0  0
   68.9412   47.5297   54.5087 C   0  0  0  0  0  0  0  0  0  0  0  0
   69.6286   48.8432   54.4003 C   0  0  0  0  0  0  0  0  0  0  0  0
   69.7994   49.3013   52.9553 C   0  0  0  0  0  0  0  0  0  0  0  0
   70.0684   48.1369   52.0304 C   0  0  0  0  0  0  0  0  0  0  0  0
   68.7982   47.2875   51.9941 C   0  0  0  0  0  0  0  0  0  0  0  0
  8  9  2  0
  9 10  1  0
  9 15  1  0
 10 11  1  0
 11 12  1  0
 12 13  1  0
 13 14  2  0
 13 15  1  0
 15  1  1  0
  1  2  2  0
  1  6  1  0
  2  3  1  0
  3 16  1  0
  3  4  2  0
 16 17  1  0
 17 18  2  0
 17 23  1  0
 18 19  1  0
 19 20  1  0
 20 21  2  0
 20 22  1  0
 22 23  2  0
 22 27  1  0
 23 24  1  0
 24 25  1  0
 25 26  1  0
 26 27  1  0
  4  5  1  0
  5  6  2  0
  6  7  1  0
M  END
>  <minimizedAffinity>  (321) 
-9.05009

$$$$
data/200k_reference_output/data/smiles/27640.pdb
     RDKit          3D

 27 30  0  0  0  0  0  0  0  0999 V2000
   70.8608   49.1107   58.2952 C   0  0  2  0  0  0  0  0  0  0  0  0
   70.0840   48.0944   57.6209 N   0  0  0  0  0  0  0  0  0  0  0  0
   69.9000   48.0910   56.2208 C   0  0  0  0  0  0  0  0  0  0  0  0
   70.4336   49.0087   55.5484 O   0  0  0  0  0  0  0  0  0  0  0  0
   69.1364   47.0794   55.6139 N   0  0  0  0  0  0  0  0  0  0  0  0
   68.5510   46.0917   56.2504 N   0  0  0  0  0  0  0  0  0  0  0  0
   67.9271   45.3341   55.3987 N   0  0  0  0  0  0  0  0  0  0  0  0
   68.1031   45.8330   54.1614 C   0  0  0  0  0  0  0  0  0  0  0  0
   67.6607   45.4152   52.9324 C   0  0  0  0  0  0  0  0  0  0  0  0
   68.0296   46.1729   51.8255 C   0  0  0  0  0  0  0  0  0  0  0  0
   68.8081   47.2987   51.9584 C   0  0  0  0  0  0  0  0  0  0  0  0
   69.2468   47.7077   53.1950 C   0  0  0  0  0  0  0  0  0  0  0  0
   68.8926   46.9713   54.3061 C   0  0  0  0  0  0  0  0  0  0  0  0
   71.1411   47.7261   60.1050 O   0  0  0  0  0  0  0  0  0  0  0  0
   71.7129   48.6138   59.3727 C   0  0  0  0  0  0  0  0  0  0  0  0
   73.0310   49.0001   59.6624 N   0  0  0  0  0  0  0  0  0  0  0  0
   73.8977   49.9582   59.0143 C   0  0  0  0  0  0  0  0  0  0  0  0
   75.0177   50.2680   59.9669 C   0  0  0  0  0  0  0  0  0  0  0  0
   74.6467   49.6379   61.2671 C   0  0  0  0  0  0  0  0  0  0  0  0
   73.8168   48.4419   60.7772 C   0  0  0  0  0  0  0  0  0  0  0  0
   69.8975   50.2055   58.6605 C   0  0  0  0  0  0  0  0  0  0  0  0
   70.0404   51.4412   57.8663 C   0  0  0  0  0  0  0  0  0  0  0  0
   71.2505   52.0703   57.7160 C   0  0  0  0  0  0  0  0  0  0  0  0
   71.3467   53.2128   56.9672 C   0  0  0  0  0  0  0  0  0  0  0  0
   70.2423   53.7609   56.3480 C   0  0  0  0  0  0  0  0  0  0  0  0
   69.0395   53.0992   56.5217 C   0  0  0  0  0  0  0  0  0  0  0  0
   68.9250   51.9492   57.2711 C   0  0  0  0  0  0  0  0  0  0  0  0
 14 15  2  0
 15  1  1  0
 15 16  1  0
  1 21  1  1
  1  2  1  0
 21 22  1  0
 22 23  2  0
 22 27  1  0
 23 24  1  0
 24 25  2  0
 25 26  1  0
 26 27  2  0
  2  3  1  0
  3  4  2  0
  3  5  1  0
  5  6  1  0
  5 13  1  0
  6  7  2  0
  7  8  1  0
  8  9  1  0
  8 13  2  0
  9 10  2  0
 10 11  1  0
 11 12  2  0
 12 13  1  0
 16 17  1  0
 16 20  1  0
 17 18  1  0
 18 19  1  0
 19 20  1  0
M  END
>  <minimizedAffinity>  (322) 
-8.63923

$$$$
data/200k_reference_output/data/smiles/27688.pdb
     RDKit          3D

 29 32  0  0  0  0  0  0  0  0999 V2000
   68.9019   42.4477   57.1706 C   0  0  0  0  0  0  0  0  0  0  0  0
   67.9948   41.6656   56.4497 C   0  0  0  0  0  0  0  0  0  0  0  0
   67.6697   40.3825   56.7438 C   0  0  0  0  0  0  0  0  0  0  0  0
   68.2826   39.8006   57.8384 C   0  0  0  0  0  0  0  0  0  0  0  0
   69.1605   40.5120   58.5608 N   0  0  0  0  0  0  0  0  0  0  0  0
   69.4703   41.8089   58.2425 C   0  0  0  0  0  0  0  0  0  0  0  0
   70.2901   42.4012   58.9565 O   0  0  0  0  0  0  0  0  0  0  0  0
   68.3871   44.6497   55.9706 N   0  0  0  0  0  0  0  0  0  0  0  0
   69.1661   43.8144   56.7549 C   0  0  0  0  0  0  0  0  0  0  0  0
   70.2660   44.3148   57.1676 O   0  0  0  0  0  0  0  0  0  0  0  0
   69.7769   50.2332   51.5131 O   0  0  0  0  0  0  0  0  0  0  0  0
   69.5280   49.4149   52.4491 C   0  0  0  0  0  0  0  0  0  0  0  0
   69.3782   47.9601   52.2921 C   0  0  0  0  0  0  0  0  0  0  0  0
   69.0983   47.4840   53.6713 C   0  0  0  0  0  0  0  0  0  0  0  0
   68.8628   46.2269   54.1951 C   0  0  0  0  0  0  0  0  0  0  0  0
   68.6152   45.9817   55.5491 C   0  0  0  0  0  0  0  0  0  0  0  0
   68.6199   47.0897   56.3503 C   0  0  0  0  0  0  0  0  0  0  0  0
   68.8535   48.3735   55.8565 C   0  0  0  0  0  0  0  0  0  0  0  0
   69.0942   48.5663   54.5082 C   0  0  0  0  0  0  0  0  0  0  0  0
   69.3547   49.7825   53.7985 N   0  0  0  0  0  0  0  0  0  0  0  0
   69.7636   39.8377   59.6906 C   0  0  0  0  0  0  0  0  0  0  0  0
   70.3523   38.5331   59.3628 C   0  0  0  0  0  0  0  0  0  0  0  0
   70.0236   37.4399   60.1356 C   0  0  0  0  0  0  0  0  0  0  0  0
   70.5553   36.1808   59.8699 C   0  0  0  0  0  0  0  0  0  0  0  0
   71.4275   36.0167   58.8152 C   0  0  0  0  0  0  0  0  0  0  0  0
   71.9672   34.7903   58.5276 F   0  0  0  0  0  0  0  0  0  0  0  0
   71.7540   37.1077   58.0458 C   0  0  0  0  0  0  0  0  0  0  0  0
   72.6248   36.9400   56.9928 F   0  0  0  0  0  0  0  0  0  0  0  0
   71.2352   38.3599   58.2974 C   0  0  0  0  0  0  0  0  0  0  0  0
 11 12  2  0
 12 13  1  0
 12 20  1  0
 13 14  1  0
 14 15  2  0
 14 19  1  0
 15 16  1  0
 16  8  1  0
 16 17  2  0
  8  9  1  0
  9 10  2  0
  9  1  1  0
  1  2  2  0
  1  6  1  0
  2  3  1  0
  3  4  2  0
  4  5  1  0
  5 21  1  0
  5  6  1  0
 21 22  1  0
 22 23  2  0
 22 29  1  0
 23 24  1  0
 24 25  2  0
 25 26  1  0
 25 27  1  0
 27 28  1  0
 27 29  2  0
  6  7  2  0
 17 18  1  0
 18 19  2  0
 19 20  1  0
M  END
>  <minimizedAffinity>  (323) 
-8.98905

$$$$
data/200k_reference_output/data/smiles/27813.pdb
     RDKit          3D

 33 37  0  0  0  0  0  0  0  0999 V2000
   71.6467   38.8825   59.0446 C   0  0  0  0  0  0  0  0  0  0  0  0
   72.5873   39.4900   59.6510 O   0  0  0  0  0  0  0  0  0  0  0  0
   70.3601   39.4431   58.9852 N   0  0  0  0  0  0  0  0  0  0  0  0
   69.3124   38.7498   58.3097 C   0  0  0  0  0  0  0  0  0  0  0  0
   68.2204   39.7445   57.9512 C   0  0  0  0  0  0  0  0  0  0  0  0
   68.6935   41.0613   57.6731 N   0  0  0  0  0  0  0  0  0  0  0  0
   68.0340   41.8684   56.7226 C   0  0  0  0  0  0  0  0  0  0  0  0
   66.9747   41.4217   56.1568 O   0  0  0  0  0  0  0  0  0  0  0  0
   69.8471   41.6444   58.3786 C   0  0  0  0  0  0  0  0  0  0  0  0
   70.0971   40.7101   59.5946 C   0  0  0  0  0  0  0  0  0  0  0  0
   71.4693   36.1006   60.4318 C   0  0  0  0  0  0  0  0  0  0  0  0
   71.9013   36.3746   59.0494 C   0  0  0  0  0  0  0  0  0  0  0  0
   71.9817   37.6037   58.4324 C   0  0  0  0  0  0  0  0  0  0  0  0
   72.4152   37.3755   57.2045 O   0  0  0  0  0  0  0  0  0  0  0  0
   72.6129   36.0932   57.0055 C   0  0  0  0  0  0  0  0  0  0  0  0
   73.0579   35.3506   55.9076 C   0  0  0  0  0  0  0  0  0  0  0  0
   73.1859   33.9752   55.9474 C   0  0  0  0  0  0  0  0  0  0  0  0
   72.8693   33.2877   57.1029 C   0  0  0  0  0  0  0  0  0  0  0  0
   72.4295   34.0138   58.1904 C   0  0  0  0  0  0  0  0  0  0  0  0
   72.3021   35.3845   58.1505 C   0  0  0  0  0  0  0  0  0  0  0  0
   68.5026   43.2176   56.3301 C   0  0  0  0  0  0  0  0  0  0  0  0
   67.6801   43.8326   55.2193 C   0  0  0  0  0  0  0  0  0  0  0  0
   68.1443   45.2284   54.9368 C   0  0  0  0  0  0  0  0  0  0  0  0
   68.4638   45.6497   53.6985 N   0  0  0  0  0  0  0  0  0  0  0  0
   68.8775   46.9210   53.4683 C   0  0  0  0  0  0  0  0  0  0  0  0
   69.2152   47.3809   52.2094 C   0  0  0  0  0  0  0  0  0  0  0  0
   69.6400   48.6674   51.9505 C   0  0  0  0  0  0  0  0  0  0  0  0
   69.7272   49.5271   53.0128 C   0  0  0  0  0  0  0  0  0  0  0  0
   69.3985   49.1080   54.2920 C   0  0  0  0  0  0  0  0  0  0  0  0
   68.9780   47.8139   54.5138 C   0  0  0  0  0  0  0  0  0  0  0  0
   68.6476   47.3769   55.7832 C   0  0  0  0  0  0  0  0  0  0  0  0
   68.7262   48.1620   56.7626 O   0  0  0  0  0  0  0  0  0  0  0  0
   68.2378   46.0888   55.9613 N   0  0  0  0  0  0  0  0  0  0  0  0
 11 12  1  0
 12 13  2  0
 12 20  1  0
 13  1  1  0
 13 14  1  0
  1  2  2  0
  1  3  1  0
  3  4  1  0
  3 10  1  0
  4  5  1  0
  5  6  1  0
  6  7  1  0
  6  9  1  0
  7  8  2  0
  7 21  1  0
 21 22  1  0
 22 23  1  0
 23 24  2  0
 23 33  1  0
 24 25  1  0
 25 26  2  0
 25 30  1  0
 26 27  1  0
 27 28  2  0
 28 29  1  0
 29 30  2  0
 30 31  1  0
 31 32  2  0
 31 33  1  0
  9 10  1  0
 14 15  1  0
 15 16  1  0
 15 20  2  0
 16 17  2  0
 17 18  1  0
 18 19  2  0
 19 20  1  0
M  END
>  <minimizedAffinity>  (324) 
-9.31045

$$$$
data/200k_reference_output/data/smiles/27843.pdb
     RDKit          3D

 24 26  0  0  0  0  0  0  0  0999 V2000
   69.3857   47.9526   56.0626 C   0  0  1  0  0  0  0  0  0  0  0  0
   71.5989   46.1348   59.8966 O   0  0  0  0  0  0  0  0  0  0  0  0
   70.8880   45.9501   58.8833 C   0  0  0  0  0  0  0  0  0  0  0  0
   70.4226   44.6996   58.5427 C   0  0  0  0  0  0  0  0  0  0  0  0
   69.6507   44.5466   57.4297 C   0  0  0  0  0  0  0  0  0  0  0  0
   69.3568   45.5816   56.6938 O   0  0  0  0  0  0  0  0  0  0  0  0
   69.7433   46.7919   56.9290 C   0  0  0  0  0  0  0  0  0  0  0  0
   70.5263   47.0124   58.0389 C   0  0  0  0  0  0  0  0  0  0  0  0
   70.9586   48.2893   58.3218 O   0  0  0  0  0  0  0  0  0  0  0  0
   69.1415   43.1953   57.0548 C   0  0  0  0  0  0  0  0  0  0  0  0
   67.8855   43.3107   56.4560 O   0  0  0  0  0  0  0  0  0  0  0  0
   69.0409   47.5331   54.6981 C   0  0  0  0  0  0  0  0  0  0  0  0
   69.6329   48.2180   53.6330 C   0  0  0  0  0  0  0  0  0  0  0  0
   69.3249   47.8687   52.3279 C   0  0  0  0  0  0  0  0  0  0  0  0
   68.4267   46.8395   52.0507 C   0  0  0  0  0  0  0  0  0  0  0  0
   68.1470   46.5231   50.7249 O   0  0  0  0  0  0  0  0  0  0  0  0
   67.8461   46.1679   53.1053 C   0  0  0  0  0  0  0  0  0  0  0  0
   68.1694   46.5337   54.4218 C   0  0  0  0  0  0  0  0  0  0  0  0
   68.4314   48.8580   56.7107 C   0  0  0  0  0  0  0  0  0  0  0  0
   67.3598   48.4335   57.4747 C   0  0  0  0  0  0  0  0  0  0  0  0
   66.4750   49.3158   58.0574 C   0  0  0  0  0  0  0  0  0  0  0  0
   66.6430   50.6763   57.8864 C   0  0  0  0  0  0  0  0  0  0  0  0
   67.7050   51.1386   57.1273 C   0  0  0  0  0  0  0  0  0  0  0  0
   68.5773   50.2213   56.5554 C   0  0  0  0  0  0  0  0  0  0  0  0
  2  3  2  0
  3  4  1  0
  3  8  1  0
  4  5  2  0
  5 10  1  0
  5  6  1  0
 10 11  1  0
  6  7  1  0
  1  7  1  1
  7  8  2  0
  1 19  1  0
  1 12  1  0
 19 20  2  0
 19 24  1  0
 20 21  1  0
 21 22  2  0
 22 23  1  0
 23 24  2  0
 12 13  2  0
 12 18  1  0
 13 14  1  0
 14 15  2  0
 15 16  1  0
 15 17  1  0
 17 18  2  0
  8  9  1  0
M  END
>  <minimizedAffinity>  (325) 
-8.67869

$$$$
data/200k_reference_output/data/smiles/27968.pdb
     RDKit          3D

 23 24  0  0  0  0  0  0  0  0999 V2000
   70.9478   51.2063   54.7718 C   0  0  0  0  0  0  0  0  0  0  0  0
   72.0454   51.1315   54.2019 O   0  0  0  0  0  0  0  0  0  0  0  0
   69.8865   50.4220   54.2234 N   0  0  0  0  0  0  0  0  0  0  0  0
   70.1566   49.4346   52.8375 S   0  0  0  0  0  0  0  0  0  0  0  0
   71.6145   49.0032   52.7977 O   0  0  0  0  0  0  0  0  0  0  0  0
   69.8163   50.1854   51.5826 O   0  0  0  0  0  0  0  0  0  0  0  0
   69.2147   47.9687   52.9954 C   0  0  0  0  0  0  0  0  0  0  0  0
   68.8539   47.2036   51.8870 C   0  0  0  0  0  0  0  0  0  0  0  0
   68.1118   46.0508   52.0229 C   0  0  0  0  0  0  0  0  0  0  0  0
   67.7140   45.6368   53.2780 C   0  0  0  0  0  0  0  0  0  0  0  0
   66.9787   44.5012   53.4527 F   0  0  0  0  0  0  0  0  0  0  0  0
   68.0530   46.3683   54.4013 C   0  0  0  0  0  0  0  0  0  0  0  0
   68.7907   47.5095   54.2367 C   0  0  0  0  0  0  0  0  0  0  0  0
   69.7552   53.1752   55.6948 C   0  0  0  0  0  0  0  0  0  0  0  0
   70.7468   52.0476   55.9411 C   0  0  1  0  0  0  0  0  0  0  0  0
   70.5209   51.3521   57.2250 C   0  0  0  0  0  0  0  0  0  0  0  0
   69.2984   50.5854   57.3883 C   0  0  0  0  0  0  0  0  0  0  0  0
   69.2787   49.1851   57.4326 C   0  0  0  0  0  0  0  0  0  0  0  0
   68.1071   48.4766   57.5591 C   0  0  0  0  0  0  0  0  0  0  0  0
   66.8890   49.1371   57.6491 C   0  0  0  0  0  0  0  0  0  0  0  0
   66.9007   50.4912   57.6067 C   0  0  0  0  0  0  0  0  0  0  0  0
   65.7125   51.1525   57.6934 F   0  0  0  0  0  0  0  0  0  0  0  0
   68.0806   51.2126   57.4788 C   0  0  0  0  0  0  0  0  0  0  0  0
 15 14  1  6
 15 16  1  0
 15  1  1  0
 16 17  1  0
 17 18  2  0
 17 23  1  0
 18 19  1  0
 19 20  2  0
 20 21  1  0
 21 22  1  0
 21 23  2  0
  1  2  2  0
  1  3  1  0
  3  4  1  0
  4  5  2  0
  4  6  2  0
  4  7  1  0
  7  8  2  0
  7 13  1  0
  8  9  1  0
  9 10  2  0
 10 11  1  0
 10 12  1  0
 12 13  2  0
M  END
>  <minimizedAffinity>  (326) 
-8.66387

$$$$
data/200k_reference_output/data/smiles/28036.pdb
     RDKit          3D

 26 29  0  0  0  0  0  0  0  0999 V2000
   72.5571   51.3803   54.8738 C   0  0  0  0  0  0  0  0  0  0  0  0
   72.4472   52.6347   55.4322 C   0  0  0  0  0  0  0  0  0  0  0  0
   71.2214   53.1966   55.7121 C   0  0  0  0  0  0  0  0  0  0  0  0
   70.0730   52.4984   55.4320 C   0  0  0  0  0  0  0  0  0  0  0  0
   68.8580   53.0853   55.7239 O   0  0  0  0  0  0  0  0  0  0  0  0
   70.1694   51.2444   54.8743 C   0  0  0  0  0  0  0  0  0  0  0  0
   69.2710   50.3259   54.4889 N   0  0  0  0  0  0  0  0  0  0  0  0
   69.8663   49.2251   53.9841 C   0  0  0  0  0  0  0  0  0  0  0  0
   71.1839   49.4557   54.0534 N   0  0  0  0  0  0  0  0  0  0  0  0
   71.4101   50.6683   54.5865 C   0  0  0  0  0  0  0  0  0  0  0  0
   69.1674   48.0284   53.4667 C   0  0  0  0  0  0  0  0  0  0  0  0
   68.5377   47.1542   54.3189 C   0  0  0  0  0  0  0  0  0  0  0  0
   67.8631   46.0179   53.8887 C   0  0  0  0  0  0  0  0  0  0  0  0
   67.8358   45.7749   52.5281 C   0  0  0  0  0  0  0  0  0  0  0  0
   68.4650   46.6459   51.6594 C   0  0  0  0  0  0  0  0  0  0  0  0
   69.1404   47.7852   52.1181 C   0  0  0  0  0  0  0  0  0  0  0  0
   74.0638   50.2529   53.5117 O   0  0  0  0  0  0  0  0  0  0  0  0
   73.8962   50.8349   54.6122 C   0  0  0  0  0  0  0  0  0  0  0  0
   74.9600   50.9452   55.5320 N   0  0  0  0  0  0  0  0  0  0  0  0
   76.2914   50.4374   55.3722 C   0  0  0  0  0  0  0  0  0  0  0  0
   76.8144   49.7850   56.6295 C   0  0  1  0  0  0  0  0  0  0  0  0
   78.3031   49.7341   56.5155 C   0  0  0  0  0  0  0  0  0  0  0  0
   79.0192   50.5167   57.5903 C   0  0  0  0  0  0  0  0  0  0  0  0
   78.4373   50.2358   58.9577 C   0  0  0  0  0  0  0  0  0  0  0  0
   76.9589   50.3487   58.9994 C   0  0  0  0  0  0  0  0  0  0  0  0
   76.2689   50.4076   57.7683 N   0  0  0  0  0  0  0  0  0  0  0  0
 17 18  2  0
 18 19  1  0
 18  1  1  0
 19 20  1  0
 21 20  1  6
 21 22  1  0
 21 26  1  0
 22 23  1  0
 23 24  1  0
 24 25  1  0
 25 26  1  0
  1  2  2  0
  1 10  1  0
  2  3  1  0
  3  4  2  0
  4  5  1  0
  4  6  1  0
  6  7  1  0
  6 10  2  0
  7  8  1  0
  8 11  1  0
  8  9  2  0
 11 12  2  0
 11 16  1  0
 12 13  1  0
 13 14  2  0
 14 15  1  0
 15 16  2  0
  9 10  1  0
M  CHG  2   9   1  26   1
M  END
>  <minimizedAffinity>  (327) 
-8.55725

$$$$
data/200k_reference_output/data/smiles/28138.pdb
     RDKit          3D

 22 23  0  0  0  0  0  0  0  0999 V2000
   71.3555   51.7302   53.6134 O   0  0  0  0  0  0  0  0  0  0  0  0
   70.1944   51.5260   53.9982 C   0  0  0  0  0  0  0  0  0  0  0  0
   69.4717   50.3552   53.4551 C   0  0  0  0  0  0  0  0  0  0  0  0
   69.7853   49.1235   53.8020 C   0  0  0  0  0  0  0  0  0  0  0  0
   69.1301   47.9186   53.3188 C   0  0  0  0  0  0  0  0  0  0  0  0
   68.9003   47.6466   52.0069 C   0  0  0  0  0  0  0  0  0  0  0  0
   68.2647   46.4734   51.5771 C   0  0  0  0  0  0  0  0  0  0  0  0
   67.8482   45.5448   52.5064 C   0  0  0  0  0  0  0  0  0  0  0  0
   68.0734   45.8044   53.8397 C   0  0  0  0  0  0  0  0  0  0  0  0
   67.6659   44.8922   54.7871 O   0  0  0  0  0  0  0  0  0  0  0  0
   68.7075   46.9807   54.2368 C   0  0  0  0  0  0  0  0  0  0  0  0
   69.5424   52.4323   54.9790 C   0  0  0  0  0  0  0  0  0  0  0  0
   69.6068   51.9318   56.3517 C   0  0  0  0  0  0  0  0  0  0  0  0
   70.5083   52.3915   57.1181 O   0  0  0  0  0  0  0  0  0  0  0  0
   68.6864   50.9314   56.8804 C   0  0  0  0  0  0  0  0  0  0  0  0
   67.4215   51.2867   57.2948 C   0  0  0  0  0  0  0  0  0  0  0  0
   66.5487   50.3409   57.7960 C   0  0  0  0  0  0  0  0  0  0  0  0
   66.9026   49.0127   57.9029 C   0  0  0  0  0  0  0  0  0  0  0  0
   66.0613   48.0465   58.3956 O   0  0  0  0  0  0  0  0  0  0  0  0
   68.1667   48.6623   57.4877 C   0  0  0  0  0  0  0  0  0  0  0  0
   68.6156   47.3499   57.5562 O   0  0  0  0  0  0  0  0  0  0  0  0
   69.0515   49.6079   56.9827 C   0  0  0  0  0  0  0  0  0  0  0  0
  1  2  2  0
  2  3  1  0
  2 12  1  0
  3  4  2  0
  4  5  1  0
  5  6  2  0
  5 11  1  0
  6  7  1  0
  7  8  2  0
  8  9  1  0
  9 10  1  0
  9 11  2  0
 12 13  1  0
 13 14  2  0
 13 15  1  0
 15 16  2  0
 15 22  1  0
 16 17  1  0
 17 18  2  0
 18 19  1  0
 18 20  1  0
 20 21  1  0
 20 22  2  0
M  END
>  <minimizedAffinity>  (328) 
-8.50145

$$$$
data/200k_reference_output/data/smiles/28188.pdb
     RDKit          3D

 26 28  0  0  0  0  0  0  0  0999 V2000
   70.9331   45.7466   59.4847 O   0  0  0  0  0  0  0  0  0  0  0  0
   70.4969   46.1779   58.3989 C   0  0  0  0  0  0  0  0  0  0  0  0
   69.8854   45.2652   57.5117 N   0  0  0  0  0  0  0  0  0  0  0  0
   69.7972   43.9272   57.8947 N   0  0  0  0  0  0  0  0  0  0  0  0
   69.0791   42.9432   57.1571 C   0  0  0  0  0  0  0  0  0  0  0  0
   68.4822   43.2612   56.0963 O   0  0  0  0  0  0  0  0  0  0  0  0
   69.0635   41.5754   57.6671 C   0  0  0  0  0  0  0  0  0  0  0  0
   67.8814   40.8520   57.7838 C   0  0  0  0  0  0  0  0  0  0  0  0
   67.8634   39.5629   58.2628 C   0  0  0  0  0  0  0  0  0  0  0  0
   69.0206   38.9222   58.6515 C   0  0  0  0  0  0  0  0  0  0  0  0
   70.2011   39.6258   58.5421 C   0  0  0  0  0  0  0  0  0  0  0  0
   70.2228   40.9359   58.0563 C   0  0  0  0  0  0  0  0  0  0  0  0
   71.7506   41.8117   57.9305 Cl  0  0  0  0  0  0  0  0  0  0  0  0
   70.6211   47.6039   58.0565 C   0  0  0  0  0  0  0  0  0  0  0  0
   69.4198   48.2165   57.4217 C   0  0  0  0  0  0  0  0  0  0  0  0
   69.3118   48.0181   55.9629 C   0  0  0  0  0  0  0  0  0  0  0  0
   68.5556   47.0574   55.4050 N   0  0  0  0  0  0  0  0  0  0  0  0
   68.4433   46.8698   54.0790 C   0  0  0  0  0  0  0  0  0  0  0  0
   67.6594   45.8801   53.5232 C   0  0  0  0  0  0  0  0  0  0  0  0
   67.5492   45.6943   52.1534 C   0  0  0  0  0  0  0  0  0  0  0  0
   68.2444   46.5254   51.2849 C   0  0  0  0  0  0  0  0  0  0  0  0
   69.0275   47.5178   51.8422 C   0  0  0  0  0  0  0  0  0  0  0  0
   69.1301   47.6929   53.2059 C   0  0  0  0  0  0  0  0  0  0  0  0
   69.9106   48.6825   53.7688 C   0  0  0  0  0  0  0  0  0  0  0  0
   70.5322   49.4257   52.9784 O   0  0  0  0  0  0  0  0  0  0  0  0
   69.9889   48.8278   55.1094 N   0  0  0  0  0  0  0  0  0  0  0  0
  1  2  2  0
  2 14  1  0
  2  3  1  0
 14 15  1  0
 15 16  1  0
 16 17  2  0
 16 26  1  0
 17 18  1  0
 18 19  2  0
 18 23  1  0
 19 20  1  0
 20 21  2  0
 21 22  1  0
 22 23  2  0
 23 24  1  0
 24 25  2  0
 24 26  1  0
  3  4  1  0
  4  5  1  0
  5  6  2  0
  5  7  1  0
  7  8  2  0
  7 12  1  0
  8  9  1  0
  9 10  2  0
 10 11  1  0
 11 12  2  0
 12 13  1  0
M  END
>  <minimizedAffinity>  (329) 
-8.79524

$$$$
data/200k_reference_output/data/smiles/28243.pdb
     RDKit          3D

 29 31  0  0  0  0  0  0  0  0999 V2000
   68.2550   45.8242   53.9643 C   0  0  0  0  0  0  0  0  0  0  0  0
   67.6522   45.3054   52.8239 C   0  0  0  0  0  0  0  0  0  0  0  0
   67.6959   45.9416   51.6125 C   0  0  0  0  0  0  0  0  0  0  0  0
   68.3694   47.1483   51.5317 C   0  0  0  0  0  0  0  0  0  0  0  0
   68.9856   47.7128   52.6193 C   0  0  0  0  0  0  0  0  0  0  0  0
   68.9084   47.0222   53.8248 C   0  0  0  0  0  0  0  0  0  0  0  0
   67.7405   43.7675   55.3507 N   0  0  0  0  0  0  0  0  0  0  0  0
   68.1831   45.1096   55.2387 C   0  0  0  0  0  0  0  0  0  0  0  0
   68.5241   45.6885   56.3116 O   0  0  0  0  0  0  0  0  0  0  0  0
   67.4297   41.0841   55.5494 O   0  0  0  0  0  0  0  0  0  0  0  0
   67.5219   41.7230   56.6241 C   0  0  0  0  0  0  0  0  0  0  0  0
   67.6842   43.1087   56.5926 N   0  0  0  0  0  0  0  0  0  0  0  0
   67.4556   40.9810   57.8771 C   0  0  0  0  0  0  0  0  0  0  0  0
   68.1082   39.7441   57.9716 C   0  0  0  0  0  0  0  0  0  0  0  0
   68.0396   39.0597   59.1465 C   0  0  0  0  0  0  0  0  0  0  0  0
   67.3619   39.5518   60.2023 N   0  0  0  0  0  0  0  0  0  0  0  0
   66.7314   40.7328   60.1298 C   0  0  0  0  0  0  0  0  0  0  0  0
   66.7781   41.4527   58.9606 C   0  0  0  0  0  0  0  0  0  0  0  0
   69.8548   49.2345   52.5503 S   0  0  0  0  0  0  0  0  0  0  0  0
   71.1559   49.0777   53.3047 O   0  0  0  0  0  0  0  0  0  0  0  0
   70.1560   49.5931   51.1040 O   0  0  0  0  0  0  0  0  0  0  0  0
   68.9323   50.4622   53.2962 N   0  0  0  0  0  0  0  0  0  0  0  0
   68.9184   50.6500   54.6900 C   0  0  0  0  0  0  0  0  0  0  0  0
   69.0943   49.6470   55.6129 C   0  0  0  0  0  0  0  0  0  0  0  0
   69.0842   49.8771   56.9942 C   0  0  0  0  0  0  0  0  0  0  0  0
   68.8931   51.1520   57.4627 C   0  0  0  0  0  0  0  0  0  0  0  0
   68.7148   52.1814   56.5695 C   0  0  0  0  0  0  0  0  0  0  0  0
   68.7291   51.9235   55.2406 C   0  0  0  0  0  0  0  0  0  0  0  0
   68.5525   52.9429   54.3661 F   0  0  0  0  0  0  0  0  0  0  0  0
 10 11  2  0
 11 12  1  0
 11 13  1  0
 12  7  1  0
  7  8  1  0
  8  9  2  0
  8  1  1  0
  1  2  2  0
  1  6  1  0
  2  3  1  0
  3  4  2  0
  4  5  1  0
  5 19  1  0
  5  6  2  0
 19 20  2  0
 19 21  2  0
 19 22  1  0
 22 23  1  0
 23 24  2  0
 23 28  1  0
 24 25  1  0
 25 26  2  0
 26 27  1  0
 27 28  2  0
 28 29  1  0
 13 14  2  0
 13 18  1  0
 14 15  1  0
 15 16  2  0
 16 17  1  0
 17 18  2  0
M  END
>  <minimizedAffinity>  (330) 
-10.34503

$$$$
data/200k_reference_output/data/smiles/28337.pdb
     RDKit          3D

 24 26  0  0  0  0  0  0  0  0999 V2000
   70.3789   44.8151   57.9027 C   0  0  0  0  0  0  0  0  0  0  0  0
   71.5727   45.1391   58.5138 C   0  0  0  0  0  0  0  0  0  0  0  0
   72.0126   46.4495   58.5813 C   0  0  0  0  0  0  0  0  0  0  0  0
   71.2379   47.3996   58.0317 N   0  0  0  0  0  0  0  0  0  0  0  0
   70.0550   47.1123   57.4226 C   0  0  0  0  0  0  0  0  0  0  0  0
   69.6662   45.8258   57.3796 N   0  0  0  0  0  0  0  0  0  0  0  0
   68.5151   41.7071   56.9375 C   0  0  0  0  0  0  0  0  0  0  0  0
   69.1458   40.8090   57.7714 C   0  0  0  0  0  0  0  0  0  0  0  0
   70.1506   41.2089   58.6229 C   0  0  0  0  0  0  0  0  0  0  0  0
   70.5148   42.5105   58.6312 N   0  0  0  0  0  0  0  0  0  0  0  0
   69.9399   43.4287   57.8457 C   0  0  0  0  0  0  0  0  0  0  0  0
   68.9369   43.0339   56.9948 C   0  0  0  0  0  0  0  0  0  0  0  0
   67.5405   40.2570   55.3261 O   0  0  0  0  0  0  0  0  0  0  0  0
   67.4493   41.2875   56.0339 C   0  0  0  0  0  0  0  0  0  0  0  0
   66.2943   42.0455   55.9487 O   0  0  0  0  0  0  0  0  0  0  0  0
   69.2492   48.2157   56.8355 C   0  0  0  0  0  0  0  0  0  0  0  0
   68.1788   47.6823   56.0436 O   0  0  0  0  0  0  0  0  0  0  0  0
   68.4071   47.3900   54.7062 C   0  0  0  0  0  0  0  0  0  0  0  0
   69.2439   48.1623   53.9558 C   0  0  0  0  0  0  0  0  0  0  0  0
   69.4957   47.8953   52.6075 C   0  0  0  0  0  0  0  0  0  0  0  0
   68.8691   46.8097   52.0254 C   0  0  0  0  0  0  0  0  0  0  0  0
   68.0218   46.0183   52.7616 C   0  0  0  0  0  0  0  0  0  0  0  0
   67.4220   44.9598   52.1618 F   0  0  0  0  0  0  0  0  0  0  0  0
   67.7916   46.3115   54.1075 C   0  0  0  0  0  0  0  0  0  0  0  0
 13 14  2  0
 14 15  1  0
 14  7  1  0
  7  8  2  0
  7 12  1  0
  8  9  1  0
  9 10  2  0
 10 11  1  0
 11  1  1  0
 11 12  2  0
  1  2  2  0
  1  6  1  0
  2  3  1  0
  3  4  2  0
  4  5  1  0
  5 16  1  0
  5  6  2  0
 16 17  1  0
 17 18  1  0
 18 19  2  0
 18 24  1  0
 19 20  1  0
 20 21  2  0
 21 22  1  0
 22 23  1  0
 22 24  2  0
M  END
>  <minimizedAffinity>  (331) 
-8.58618

$$$$
data/200k_reference_output/data/smiles/28437.pdb
     RDKit          3D

 27 30  0  0  0  0  0  0  0  0999 V2000
   70.4588   45.6639   58.2674 C   0  0  0  0  0  0  0  0  0  0  0  0
   71.4999   46.2987   58.9183 C   0  0  0  0  0  0  0  0  0  0  0  0
   71.6963   47.6627   58.7239 C   0  0  0  0  0  0  0  0  0  0  0  0
   70.8706   48.3788   57.8964 C   0  0  0  0  0  0  0  0  0  0  0  0
   69.8426   47.7287   57.2591 C   0  0  0  0  0  0  0  0  0  0  0  0
   69.6768   46.4079   57.4674 N   0  0  0  0  0  0  0  0  0  0  0  0
   69.0335   44.1420   56.4786 O   0  0  0  0  0  0  0  0  0  0  0  0
   69.4669   43.5138   57.4874 C   0  0  0  0  0  0  0  0  0  0  0  0
   70.1992   44.2603   58.4227 N   0  0  0  0  0  0  0  0  0  0  0  0
   69.1828   42.0901   57.6111 C   0  0  0  0  0  0  0  0  0  0  0  0
   69.9181   41.2518   58.4163 C   0  0  0  0  0  0  0  0  0  0  0  0
   69.6189   39.8911   58.5119 C   0  0  0  0  0  0  0  0  0  0  0  0
   68.5762   39.3397   57.8013 C   0  0  0  0  0  0  0  0  0  0  0  0
   67.8445   40.1852   56.9972 C   0  0  0  0  0  0  0  0  0  0  0  0
   68.1406   41.5296   56.9032 C   0  0  0  0  0  0  0  0  0  0  0  0
   68.9442   48.5203   56.3488 C   0  0  0  0  0  0  0  0  0  0  0  0
   69.3856   48.5104   54.9549 C   0  0  0  0  0  0  0  0  0  0  0  0
   70.3473   49.3831   54.5887 N   0  0  0  0  0  0  0  0  0  0  0  0
   70.8018   49.4441   53.3541 N   0  0  0  0  0  0  0  0  0  0  0  0
   70.3063   48.6226   52.4186 C   0  0  0  0  0  0  0  0  0  0  0  0
   70.7373   48.6784   51.2389 O   0  0  0  0  0  0  0  0  0  0  0  0
   69.3017   47.6913   52.7413 C   0  0  0  0  0  0  0  0  0  0  0  0
   68.8288   47.6309   54.0338 C   0  0  0  0  0  0  0  0  0  0  0  0
   67.7698   46.6644   54.4333 C   0  0  0  0  0  0  0  0  0  0  0  0
   67.9299   45.4486   53.5060 C   0  0  0  0  0  0  0  0  0  0  0  0
   67.6209   45.9994   52.1055 C   0  0  0  0  0  0  0  0  0  0  0  0
   68.7946   46.8071   51.6622 C   0  0  0  0  0  0  0  0  0  0  0  0
  7  8  2  0
  8  9  1  0
  8 10  1  0
  9  1  1  0
  1  2  2  0
  1  6  1  0
  2  3  1  0
  3  4  2  0
  4  5  1  0
  5 16  1  0
  5  6  2  0
 16 17  1  0
 17 18  2  0
 17 23  1  0
 18 19  1  0
 19 20  1  0
 20 21  2  0
 20 22  1  0
 22 23  2  0
 22 27  1  0
 23 24  1  0
 24 25  1  0
 25 26  1  0
 26 27  1  0
 10 11  2  0
 10 15  1  0
 11 12  1  0
 12 13  2  0
 13 14  1  0
 14 15  2  0
M  END
>  <minimizedAffinity>  (332) 
-9.61291

$$$$
data/200k_reference_output/data/smiles/28463.pdb
     RDKit          3D

 28 30  0  0  0  0  0  0  0  0999 V2000
   68.5556   44.1001   56.6310 N   0  0  0  0  0  0  0  0  0  0  0  0
   67.9869   42.8170   56.6117 C   0  0  0  0  0  0  0  0  0  0  0  0
   67.3648   42.4891   55.5711 O   0  0  0  0  0  0  0  0  0  0  0  0
   68.0751   41.8922   57.6756 N   0  0  0  0  0  0  0  0  0  0  0  0
   67.4588   40.6033   57.5580 C   0  0  0  0  0  0  0  0  0  0  0  0
   68.3310   39.4380   57.8700 C   0  0  0  0  0  0  0  0  0  0  0  0
   69.3564   39.8601   58.8257 N   0  0  0  0  0  0  0  0  0  0  0  0
   68.9940   40.9458   59.7140 C   0  0  0  0  0  0  0  0  0  0  0  0
   68.7746   42.2088   58.8962 C   0  0  0  0  0  0  0  0  0  0  0  0
   70.5817   39.1898   58.8205 C   0  0  0  0  0  0  0  0  0  0  0  0
   71.7377   39.8568   59.1410 C   0  0  0  0  0  0  0  0  0  0  0  0
   72.9738   39.2101   59.1521 C   0  0  0  0  0  0  0  0  0  0  0  0
   73.0428   37.8861   58.8397 C   0  0  0  0  0  0  0  0  0  0  0  0
   74.6176   37.1080   58.8655 Cl  0  0  0  0  0  0  0  0  0  0  0  0
   71.9025   37.2062   58.5178 C   0  0  0  0  0  0  0  0  0  0  0  0
   72.0368   35.5056   58.1226 Cl  0  0  0  0  0  0  0  0  0  0  0  0
   70.6580   37.8580   58.5070 C   0  0  0  0  0  0  0  0  0  0  0  0
   68.5831   47.2609   53.7584 C   0  0  0  0  0  0  0  0  0  0  0  0
   68.0594   46.0333   53.4336 C   0  0  0  0  0  0  0  0  0  0  0  0
   68.0426   44.9822   54.3693 C   0  0  0  0  0  0  0  0  0  0  0  0
   68.5366   45.1053   55.6415 C   0  0  0  0  0  0  0  0  0  0  0  0
   69.0671   46.3728   55.9490 C   0  0  0  0  0  0  0  0  0  0  0  0
   69.0830   47.3955   55.0362 C   0  0  0  0  0  0  0  0  0  0  0  0
   68.6101   48.3200   52.8477 O   0  0  0  0  0  0  0  0  0  0  0  0
   71.3702   48.9758   52.8501 N   0  0  0  0  0  0  0  0  0  0  0  0
   69.9924   48.6654   51.9085 S   0  0  0  0  0  0  0  0  0  0  0  0
   70.2516   47.5053   51.0054 O   0  0  0  0  0  0  0  0  0  0  0  0
   69.7067   49.8953   51.0785 O   0  0  0  0  0  0  0  0  0  0  0  0
 25 26  1  0
 26 27  2  0
 26 28  2  0
 26 24  1  0
 24 18  1  0
 18 19  2  0
 18 23  1  0
 19 20  1  0
 20 21  2  0
 21  1  1  0
 21 22  1  0
  1  2  1  0
  2  3  2  0
  2  4  1  0
  4  5  1  0
  4  9  1  0
  5  6  1  0
  6  7  1  0
  7 10  1  0
  7  8  1  0
 10 11  2  0
 10 17  1  0
 11 12  1  0
 12 13  2  0
 13 14  1  0
 13 15  1  0
 15 16  1  0
 15 17  2  0
  8  9  1  0
 22 23  2  0
M  END
>  <minimizedAffinity>  (333) 
-9.11460

$$$$
data/200k_reference_output/data/smiles/28533.pdb
     RDKit          3D

 21 23  0  0  0  0  0  0  0  0999 V2000
   69.0741   47.7017   52.8541 C   0  0  0  0  0  0  0  0  0  0  0  0
   68.5609   46.9631   51.8065 C   0  0  0  0  0  0  0  0  0  0  0  0
   67.8947   45.7992   52.0723 C   0  0  0  0  0  0  0  0  0  0  0  0
   67.7305   45.3578   53.3571 C   0  0  0  0  0  0  0  0  0  0  0  0
   68.2326   46.0723   54.4436 C   0  0  0  0  0  0  0  0  0  0  0  0
   68.9058   47.2528   54.1437 C   0  0  0  0  0  0  0  0  0  0  0  0
   69.9401   49.1994   52.6054 S   0  0  0  0  0  0  0  0  0  0  0  0
   71.3823   49.0680   53.0053 O   0  0  0  0  0  0  0  0  0  0  0  0
   69.9254   49.4914   51.1311 O   0  0  0  0  0  0  0  0  0  0  0  0
   70.1060   51.4837   53.9102 C   0  0  0  0  0  0  0  0  0  0  0  0
   69.1788   50.5200   53.4052 N   0  0  0  0  0  0  0  0  0  0  0  0
   68.0806   45.6592   55.7051 O   0  0  0  0  0  0  0  0  0  0  0  0
   68.7627   44.7120   56.3863 C   0  0  0  0  0  0  0  0  0  0  0  0
   69.8629   45.0696   57.1184 N   0  0  0  0  0  0  0  0  0  0  0  0
   70.5665   44.1938   57.8011 C   0  0  0  0  0  0  0  0  0  0  0  0
   70.2469   42.8990   57.8207 N   0  0  0  0  0  0  0  0  0  0  0  0
   69.1716   42.4861   57.1179 C   0  0  0  0  0  0  0  0  0  0  0  0
   68.6756   41.2532   56.9962 N   0  0  0  0  0  0  0  0  0  0  0  0
   67.6051   41.3176   56.2035 C   0  0  0  0  0  0  0  0  0  0  0  0
   67.4177   42.6325   55.8112 C   0  0  0  0  0  0  0  0  0  0  0  0
   68.4184   43.3772   56.3955 C   0  0  0  0  0  0  0  0  0  0  0  0
 10 11  1  0
 11  7  1  0
  7  8  2  0
  7  9  2  0
  7  1  1  0
  1  2  2  0
  1  6  1  0
  2  3  1  0
  3  4  2  0
  4  5  1  0
  5 12  1  0
  5  6  2  0
 12 13  1  0
 13 14  2  0
 13 21  1  0
 14 15  1  0
 15 16  2  0
 16 17  1  0
 17 18  1  0
 17 21  2  0
 18 19  1  0
 19 20  2  0
 20 21  1  0
M  END
>  <minimizedAffinity>  (334) 
-8.64180

$$$$
data/200k_reference_output/data/smiles/28549.pdb
     RDKit          3D

 25 27  0  0  0  0  0  0  0  0999 V2000
   68.5023   46.2940   54.0577 C   0  0  0  0  0  0  0  0  0  0  0  0
   67.9871   45.8155   52.8782 C   0  0  0  0  0  0  0  0  0  0  0  0
   68.2120   46.4455   51.6709 C   0  0  0  0  0  0  0  0  0  0  0  0
   68.9882   47.5918   51.7118 C   0  0  0  0  0  0  0  0  0  0  0  0
   69.5059   48.0755   52.8900 C   0  0  0  0  0  0  0  0  0  0  0  0
   69.2444   47.4102   54.0200 N   0  0  0  0  0  0  0  0  0  0  0  0
   68.2901   46.1868   56.4031 O   0  0  0  0  0  0  0  0  0  0  0  0
   68.2266   45.5807   55.3006 C   0  0  0  0  0  0  0  0  0  0  0  0
   67.8907   44.2019   55.2108 N   0  0  0  0  0  0  0  0  0  0  0  0
   67.6162   43.4546   56.3240 N   0  0  0  0  0  0  0  0  0  0  0  0
   68.5907   42.5106   56.7476 C   0  0  2  0  0  0  0  0  0  0  0  0
   68.1110   41.2763   57.3947 C   0  0  0  0  0  0  0  0  0  0  0  0
   68.0776   41.3998   58.8874 C   0  0  0  0  0  0  0  0  0  0  0  0
   69.4285   42.5048   59.1901 S   0  0  0  0  0  0  0  0  0  0  0  0
   70.6322   41.7787   59.7202 O   0  0  0  0  0  0  0  0  0  0  0  0
   69.0682   43.5947   60.1446 O   0  0  0  0  0  0  0  0  0  0  0  0
   69.7135   43.1170   57.5522 C   0  0  0  0  0  0  0  0  0  0  0  0
   70.3290   49.3056   52.8748 C   0  0  0  0  0  0  0  0  0  0  0  0
   69.9464   50.2648   53.9360 C   0  0  0  0  0  0  0  0  0  0  0  0
   70.6934   50.4258   55.0979 C   0  0  0  0  0  0  0  0  0  0  0  0
   70.3276   51.3219   56.0796 C   0  0  0  0  0  0  0  0  0  0  0  0
   69.1887   52.0949   55.9293 C   0  0  0  0  0  0  0  0  0  0  0  0
   68.7823   52.9866   56.8538 F   0  0  0  0  0  0  0  0  0  0  0  0
   68.4354   51.9544   54.7910 C   0  0  0  0  0  0  0  0  0  0  0  0
   68.8124   51.0625   53.8298 C   0  0  0  0  0  0  0  0  0  0  0  0
  7  8  2  0
  8  9  1  0
  8  1  1  0
  9 10  1  0
 11 10  1  1
 11 12  1  0
 11 17  1  0
 12 13  1  0
 13 14  1  0
 14 15  2  0
 14 16  2  0
 14 17  1  0
  1  2  2  0
  1  6  1  0
  2  3  1  0
  3  4  2  0
  4  5  1  0
  5 18  1  0
  5  6  2  0
 18 19  1  0
 19 20  2  0
 19 25  1  0
 20 21  1  0
 21 22  2  0
 22 23  1  0
 22 24  1  0
 24 25  2  0
M  END
>  <minimizedAffinity>  (335) 
-8.63655

$$$$
data/200k_reference_output/data/smiles/28557.pdb
     RDKit          3D

 33 36  0  0  0  0  0  0  0  0999 V2000
   70.7515   44.3944   59.0376 C   0  0  0  0  0  0  0  0  0  0  0  0
   70.7793   45.6953   58.7295 C   0  0  0  0  0  0  0  0  0  0  0  0
   71.4890   46.5459   59.4912 N   0  0  0  0  0  0  0  0  0  0  0  0
   71.5181   47.8579   59.1797 C   0  0  0  0  0  0  0  0  0  0  0  0
   72.1747   48.6740   59.8777 O   0  0  0  0  0  0  0  0  0  0  0  0
   70.8380   48.3802   58.0912 C   0  0  0  0  0  0  0  0  0  0  0  0
   70.8613   49.6645   57.7798 C   0  0  0  0  0  0  0  0  0  0  0  0
   70.1296   47.5217   57.3339 N   0  0  0  0  0  0  0  0  0  0  0  0
   70.0967   46.1993   57.6418 C   0  0  0  0  0  0  0  0  0  0  0  0
   69.4376   45.4199   56.9322 O   0  0  0  0  0  0  0  0  0  0  0  0
   70.1374   50.2144   56.6233 C   0  0  0  0  0  0  0  0  0  0  0  0
   69.4299   51.3660   56.6576 C   0  0  0  0  0  0  0  0  0  0  0  0
   68.7833   51.8018   55.5217 C   0  0  0  0  0  0  0  0  0  0  0  0
   68.8511   51.0662   54.3340 C   0  0  0  0  0  0  0  0  0  0  0  0
   69.5692   49.8893   54.2850 C   0  0  0  0  0  0  0  0  0  0  0  0
   70.1989   49.4861   55.4295 C   0  0  0  0  0  0  0  0  0  0  0  0
   69.6552   49.1242   53.0643 C   0  0  0  0  0  0  0  0  0  0  0  0
   70.4134   49.5940   52.1587 O   0  0  0  0  0  0  0  0  0  0  0  0
   68.9650   47.8854   52.7772 C   0  0  0  0  0  0  0  0  0  0  0  0
   68.5630   47.0379   53.8068 C   0  0  0  0  0  0  0  0  0  0  0  0
   67.9121   45.8551   53.5493 C   0  0  0  0  0  0  0  0  0  0  0  0
   67.6520   45.4998   52.2466 C   0  0  0  0  0  0  0  0  0  0  0  0
   68.0574   46.3523   51.2278 C   0  0  0  0  0  0  0  0  0  0  0  0
   68.6810   47.4802   51.5340 N   0  0  0  0  0  0  0  0  0  0  0  0
   72.6450   43.1741   60.1264 C   0  0  0  0  0  0  0  0  0  0  0  0
   72.9497   42.8166   61.3862 N   0  0  0  0  0  0  0  0  0  0  0  0
   71.9642   43.2485   62.1900 C   0  0  0  0  0  0  0  0  0  0  0  0
   71.0461   43.8742   61.4323 N   0  0  0  0  0  0  0  0  0  0  0  0
   71.4511   43.8365   60.1614 C   0  0  0  0  0  0  0  0  0  0  0  0
   74.5399   41.8619   59.2779 C   0  0  0  0  0  0  0  0  0  0  0  0
   73.4562   42.8981   58.9388 C   0  0  0  0  0  0  0  0  0  0  0  0
   72.7013   42.3554   57.7837 C   0  0  0  0  0  0  0  0  0  0  0  0
   74.2554   44.1559   58.5614 C   0  0  0  0  0  0  0  0  0  0  0  0
 30 31  1  0
 31 32  1  0
 31 33  1  0
 31 25  1  0
 25 26  1  0
 25 29  2  0
 26 27  1  0
 27 28  2  0
 28 29  1  0
 29  1  1  0
  1  2  2  0
  2  3  1  0
  2  9  1  0
  3  4  1  0
  4  5  2  0
  4  6  1  0
  6  7  2  0
  6  8  1  0
  7 11  1  0
 11 12  2  0
 11 16  1  0
 12 13  1  0
 13 14  2  0
 14 15  1  0
 15 17  1  0
 15 16  2  0
 17 18  2  0
 17 19  1  0
 19 20  2  0
 19 24  1  0
 20 21  1  0
 21 22  2  0
 22 23  1  0
 23 24  2  0
  8  9  1  0
  9 10  2  0
M  CHG  1  28   1
M  END
>  <minimizedAffinity>  (336) 
-9.24520

$$$$
data/200k_reference_output/data/smiles/28726.pdb
     RDKit          3D

 25 27  0  0  0  0  0  0  0  0999 V2000
   70.9544   50.3000   53.7961 C   0  0  0  0  0  0  0  0  0  0  0  0
   70.7722   51.4205   53.2562 O   0  0  0  0  0  0  0  0  0  0  0  0
   71.9926   50.2220   54.7593 N   0  0  0  0  0  0  0  0  0  0  0  0
   69.6752   48.4003   55.7794 C   0  0  0  0  0  0  0  0  0  0  0  0
   69.5662   48.3057   54.3234 N   0  0  0  0  0  0  0  0  0  0  0  0
   70.1291   49.1424   53.4407 C   0  0  0  0  0  0  0  0  0  0  0  0
   69.7725   48.6878   52.2045 C   0  0  0  0  0  0  0  0  0  0  0  0
   68.9852   47.5645   52.3483 C   0  0  0  0  0  0  0  0  0  0  0  0
   68.3543   46.7057   51.4640 C   0  0  0  0  0  0  0  0  0  0  0  0
   67.6102   45.6306   51.9232 C   0  0  0  0  0  0  0  0  0  0  0  0
   66.9855   44.7781   51.0599 F   0  0  0  0  0  0  0  0  0  0  0  0
   67.4838   45.3936   53.2744 C   0  0  0  0  0  0  0  0  0  0  0  0
   68.1149   46.2534   54.1391 C   0  0  0  0  0  0  0  0  0  0  0  0
   68.8608   47.3309   53.7017 C   0  0  0  0  0  0  0  0  0  0  0  0
   72.8305   51.3119   55.1497 C   0  0  2  0  0  0  0  0  0  0  0  0
   74.2718   51.0299   54.9278 C   0  0  0  0  0  0  0  0  0  0  0  0
   75.1942   51.7230   55.4402 O   0  0  0  0  0  0  0  0  0  0  0  0
   74.6673   49.9667   54.1300 O   0  0  0  0  0  0  0  0  0  0  0  0
   72.5622   51.5621   56.6407 C   0  0  0  0  0  0  0  0  0  0  0  0
   71.1138   51.7807   56.8738 C   0  0  0  0  0  0  0  0  0  0  0  0
   70.3910   52.7524   56.2142 C   0  0  0  0  0  0  0  0  0  0  0  0
   69.0400   52.9528   56.4353 C   0  0  0  0  0  0  0  0  0  0  0  0
   68.3704   52.1586   57.3487 C   0  0  0  0  0  0  0  0  0  0  0  0
   69.0747   51.1682   58.0319 C   0  0  0  0  0  0  0  0  0  0  0  0
   70.4148   51.0031   57.7816 C   0  0  0  0  0  0  0  0  0  0  0  0
  4  5  1  0
  5  6  1  0
  5 14  1  0
  6  1  1  0
  6  7  2  0
  1  2  2  0
  1  3  1  0
  3 15  1  0
 15 19  1  1
 15 16  1  0
 19 20  1  0
 20 21  2  0
 20 25  1  0
 21 22  1  0
 22 23  2  0
 23 24  1  0
 24 25  2  0
 16 17  2  0
 16 18  1  0
  7  8  1  0
  8  9  1  0
  8 14  2  0
  9 10  2  0
 10 11  1  0
 10 12  1  0
 12 13  2  0
 13 14  1  0
M  END
>  <minimizedAffinity>  (337) 
-8.63886

$$$$
data/200k_reference_output/data/smiles/28964.pdb
     RDKit          3D

 29 32  0  0  0  0  0  0  0  0999 V2000
   67.8619   42.4534   56.5394 C   0  0  0  0  0  0  0  0  0  0  0  0
   66.8131   42.0265   56.0224 O   0  0  0  0  0  0  0  0  0  0  0  0
   68.5679   41.6434   57.4529 N   0  0  0  0  0  0  0  0  0  0  0  0
   68.0619   40.3001   57.7902 C   0  0  0  0  0  0  0  0  0  0  0  0
   69.1918   39.3034   57.6568 C   0  0  0  0  0  0  0  0  0  0  0  0
   70.3313   39.6914   58.4749 N   0  0  0  0  0  0  0  0  0  0  0  0
   70.2509   40.9674   59.1123 C   0  0  0  0  0  0  0  0  0  0  0  0
   69.7954   42.0412   58.1132 C   0  0  0  0  0  0  0  0  0  0  0  0
   71.4180   38.7903   58.5756 C   0  0  0  0  0  0  0  0  0  0  0  0
   72.5488   39.0775   59.3149 C   0  0  0  0  0  0  0  0  0  0  0  0
   73.6192   38.1891   59.4154 C   0  0  0  0  0  0  0  0  0  0  0  0
   73.5707   36.9755   58.7632 C   0  0  0  0  0  0  0  0  0  0  0  0
   74.6093   36.0977   58.8499 F   0  0  0  0  0  0  0  0  0  0  0  0
   72.4512   36.6753   58.0240 C   0  0  0  0  0  0  0  0  0  0  0  0
   72.4305   35.4685   57.3902 F   0  0  0  0  0  0  0  0  0  0  0  0
   71.4052   37.5645   57.9368 C   0  0  0  0  0  0  0  0  0  0  0  0
   69.3589   44.2417   56.9061 O   0  0  0  0  0  0  0  0  0  0  0  0
   68.4073   43.7956   56.2311 C   0  0  0  0  0  0  0  0  0  0  0  0
   67.8674   44.5718   55.1902 N   0  0  0  0  0  0  0  0  0  0  0  0
   68.2932   45.8627   54.7936 C   0  0  0  0  0  0  0  0  0  0  0  0
   68.4797   46.9467   55.5976 C   0  0  0  0  0  0  0  0  0  0  0  0
   68.8977   48.1869   55.1298 C   0  0  0  0  0  0  0  0  0  0  0  0
   69.1333   48.3223   53.7855 C   0  0  0  0  0  0  0  0  0  0  0  0
   69.5414   49.3723   53.0159 N   0  0  0  0  0  0  0  0  0  0  0  0
   69.6124   48.9572   51.7332 C   0  0  0  0  0  0  0  0  0  0  0  0
   69.9617   49.7104   50.7903 O   0  0  0  0  0  0  0  0  0  0  0  0
   69.2643   47.6956   51.6903 O   0  0  0  0  0  0  0  0  0  0  0  0
   68.9657   47.2742   52.9117 C   0  0  0  0  0  0  0  0  0  0  0  0
   68.5527   46.0743   53.4291 C   0  0  0  0  0  0  0  0  0  0  0  0
 17 18  2  0
 18 19  1  0
 18  1  1  0
 19 20  1  0
 20 21  2  0
 20 29  1  0
 21 22  1  0
 22 23  2  0
 23 24  1  0
 23 28  1  0
 24 25  1  0
 25 26  2  0
 25 27  1  0
 27 28  1  0
 28 29  2  0
  1  2  2  0
  1  3  1  0
  3  4  1  0
  3  8  1  0
  4  5  1  0
  5  6  1  0
  6  9  1  0
  6  7  1  0
  9 10  2  0
  9 16  1  0
 10 11  1  0
 11 12  2  0
 12 13  1  0
 12 14  1  0
 14 15  1  0
 14 16  2  0
  7  8  1  0
M  END
>  <minimizedAffinity>  (338) 
-9.01375

$$$$
data/200k_reference_output/data/smiles/28989.pdb
     RDKit          3D

 25 28  0  0  0  0  0  0  0  0999 V2000
   68.3997   44.9105   55.6724 C   0  0  0  0  0  0  0  0  0  0  0  0
   68.8944   45.7664   56.5791 N   0  0  0  0  0  0  0  0  0  0  0  0
   69.1404   46.9612   55.9939 C   0  0  0  0  0  0  0  0  0  0  0  0
   68.7726   46.7945   54.6744 C   0  0  0  0  0  0  0  0  0  0  0  0
   68.7849   47.6336   53.5888 C   0  0  0  0  0  0  0  0  0  0  0  0
   68.3556   47.2254   52.3427 C   0  0  0  0  0  0  0  0  0  0  0  0
   67.9016   45.9449   52.1806 C   0  0  0  0  0  0  0  0  0  0  0  0
   67.8995   45.1170   53.2959 C   0  0  0  0  0  0  0  0  0  0  0  0
   68.3258   45.5408   54.5052 N   0  0  0  0  0  0  0  0  0  0  0  0
   68.0126   41.4689   56.6794 C   0  0  0  0  0  0  0  0  0  0  0  0
   66.9312   41.6867   55.8918 N   0  0  0  0  0  0  0  0  0  0  0  0
   66.9153   42.9130   55.4328 N   0  0  0  0  0  0  0  0  0  0  0  0
   68.0087   43.5127   55.9286 C   0  0  0  0  0  0  0  0  0  0  0  0
   68.6856   42.6453   56.6891 N   0  0  0  0  0  0  0  0  0  0  0  0
   69.4275   40.2497   58.3031 N   0  0  0  0  0  0  0  0  0  0  0  0
   68.3668   40.2336   57.3637 C   0  0  0  0  0  0  0  0  0  0  0  0
   67.7563   39.1649   57.1384 O   0  0  0  0  0  0  0  0  0  0  0  0
   69.6912   48.1724   56.6531 C   0  0  0  0  0  0  0  0  0  0  0  0
   68.6108   49.1497   56.9691 C   0  0  0  0  0  0  0  0  0  0  0  0
   67.5270   48.8512   57.7446 C   0  0  0  0  0  0  0  0  0  0  0  0
   66.5561   49.7905   58.0051 C   0  0  0  0  0  0  0  0  0  0  0  0
   66.6251   51.0813   57.4993 C   0  0  0  0  0  0  0  0  0  0  0  0
   67.7230   51.3778   56.7164 C   0  0  0  0  0  0  0  0  0  0  0  0
   68.6969   50.4387   56.4524 C   0  0  0  0  0  0  0  0  0  0  0  0
   69.7866   50.7380   55.6738 F   0  0  0  0  0  0  0  0  0  0  0  0
 15 16  1  0
 16 17  2  0
 16 10  1  0
 10 11  2  0
 10 14  1  0
 11 12  1  0
 12 13  1  0
 13  1  1  0
 13 14  2  0
  1  2  2  0
  1  9  1  0
  2  3  1  0
  3 18  1  0
  3  4  2  0
 18 19  1  0
 19 20  2  0
 19 24  1  0
 20 21  1  0
 21 22  2  0
 22 23  1  0
 23 24  2  0
 24 25  1  0
  4  5  1  0
  4  9  1  0
  5  6  2  0
  6  7  1  0
  7  8  2  0
  8  9  1  0
M  END
>  <minimizedAffinity>  (339) 
-8.75486

$$$$
data/200k_reference_output/data/smiles/29037.pdb
     RDKit          3D

 21 23  0  0  0  0  0  0  0  0999 V2000
   68.3495   45.5585   55.4311 C   0  0  0  0  0  0  0  0  0  0  0  0
   68.6042   46.0713   56.5799 N   0  0  0  0  0  0  0  0  0  0  0  0
   69.0971   47.3948   56.3891 C   0  0  0  0  0  0  0  0  0  0  0  0
   69.4589   48.2249   57.2724 O   0  0  0  0  0  0  0  0  0  0  0  0
   69.1277   47.6708   54.9524 C   0  0  0  0  0  0  0  0  0  0  0  0
   69.5010   48.7558   54.1684 C   0  0  0  0  0  0  0  0  0  0  0  0
   69.4186   48.7265   52.7938 C   0  0  0  0  0  0  0  0  0  0  0  0
   68.9477   47.5682   52.2155 C   0  0  0  0  0  0  0  0  0  0  0  0
   68.5689   46.4667   52.9846 C   0  0  0  0  0  0  0  0  0  0  0  0
   68.6597   46.5208   54.3576 C   0  0  0  0  0  0  0  0  0  0  0  0
   69.8077   49.8541   52.0235 N   0  0  0  0  0  0  0  0  0  0  0  0
   69.8010   49.8034   50.7848 O   0  0  0  0  0  0  0  0  0  0  0  0
   70.1986   51.0263   52.6197 O   0  0  0  0  0  0  0  0  0  0  0  0
   67.8406   44.2449   55.2466 N   0  0  0  0  0  0  0  0  0  0  0  0
   69.0333   39.6938   58.4432 C   0  0  0  0  0  0  0  0  0  0  0  0
   68.7281   40.8743   57.6148 C   0  0  0  0  0  0  0  0  0  0  0  0
   67.6478   40.8780   56.7432 C   0  0  0  0  0  0  0  0  0  0  0  0
   67.3899   42.0043   55.9814 C   0  0  0  0  0  0  0  0  0  0  0  0
   68.1789   43.1349   56.0605 C   0  0  0  0  0  0  0  0  0  0  0  0
   69.2372   43.0940   56.9323 C   0  0  0  0  0  0  0  0  0  0  0  0
   69.5296   41.9820   57.7145 C   0  0  0  0  0  0  0  0  0  0  0  0
 15 16  1  0
 16 17  2  0
 16 21  1  0
 17 18  1  0
 18 19  2  0
 19 14  1  0
 19 20  1  0
 14  1  1  0
  1  2  2  0
  1 10  1  0
  2  3  1  0
  3  4  2  0
  3  5  1  0
  5  6  1  0
  5 10  2  0
  6  7  2  0
  7 11  1  0
  7  8  1  0
 11 12  2  0
 11 13  1  0
  8  9  2  0
  9 10  1  0
 20 21  2  0
M  CHG  3   2   1  11   1  13  -1
M  END
>  <minimizedAffinity>  (340) 
-8.50865

$$$$
data/200k_reference_output/data/smiles/29094.pdb
     RDKit          3D

 26 30  0  0  0  0  0  0  0  0999 V2000
   68.8960   43.8114   56.5243 O   0  0  0  0  0  0  0  0  0  0  0  0
   69.6180   43.4591   57.4995 C   0  0  0  0  0  0  0  0  0  0  0  0
   69.8300   42.0669   57.9518 C   0  0  0  0  0  0  0  0  0  0  0  0
   70.5609   42.1887   59.2639 C   0  0  0  0  0  0  0  0  0  0  0  0
   70.8515   43.6260   59.5058 C   0  0  1  0  0  0  0  0  0  0  0  0
   72.3324   43.9520   59.5932 C   0  0  0  0  0  0  0  0  0  0  0  0
   72.5043   45.3549   59.5844 O   0  0  0  0  0  0  0  0  0  0  0  0
   71.7554   46.2243   58.8243 C   0  0  0  0  0  0  0  0  0  0  0  0
   72.0288   47.5618   58.6654 C   0  0  0  0  0  0  0  0  0  0  0  0
   71.2251   48.3695   57.8846 C   0  0  0  0  0  0  0  0  0  0  0  0
   70.1181   47.9053   57.2234 C   0  0  0  0  0  0  0  0  0  0  0  0
   69.8581   46.5361   57.3989 C   0  0  0  0  0  0  0  0  0  0  0  0
   70.6508   45.7214   58.1741 C   0  0  0  0  0  0  0  0  0  0  0  0
   70.3507   44.3187   58.3306 N   0  0  0  0  0  0  0  0  0  0  0  0
   69.2097   48.7146   56.3792 C   0  0  0  0  0  0  0  0  0  0  0  0
   69.4555   48.6424   54.9407 C   0  0  0  0  0  0  0  0  0  0  0  0
   70.3308   49.5760   54.4496 N   0  0  0  0  0  0  0  0  0  0  0  0
   70.6666   49.6080   53.1853 N   0  0  0  0  0  0  0  0  0  0  0  0
   70.1857   48.7405   52.2807 C   0  0  0  0  0  0  0  0  0  0  0  0
   70.5342   48.7975   51.0542 O   0  0  0  0  0  0  0  0  0  0  0  0
   69.2982   47.7738   52.7107 C   0  0  0  0  0  0  0  0  0  0  0  0
   68.9358   47.7401   54.0720 C   0  0  0  0  0  0  0  0  0  0  0  0
   67.9623   46.7360   54.5434 C   0  0  0  0  0  0  0  0  0  0  0  0
   67.9164   45.5243   53.6302 C   0  0  0  0  0  0  0  0  0  0  0  0
   67.6828   45.9387   52.2022 C   0  0  0  0  0  0  0  0  0  0  0  0
   68.7840   46.8379   51.7042 C   0  0  0  0  0  0  0  0  0  0  0  0
  1  2  2  0
  2  3  1  0
  2 14  1  0
  3  4  1  0
  5  4  1  6
  5  6  1  0
  5 14  1  0
  6  7  1  0
  7  8  1  0
  8  9  2  0
  8 13  1  0
  9 10  1  0
 10 11  2  0
 11 15  1  0
 11 12  1  0
 15 16  1  0
 16 17  2  0
 16 22  1  0
 17 18  1  0
 18 19  1  0
 19 20  2  0
 19 21  1  0
 21 22  2  0
 21 26  1  0
 22 23  1  0
 23 24  1  0
 24 25  1  0
 25 26  1  0
 12 13  2  0
 13 14  1  0
M  END
>  <minimizedAffinity>  (341) 
-8.75774

$$$$
data/200k_reference_output/data/smiles/29115.pdb
     RDKit          3D

 23 24  0  0  0  0  0  0  0  0999 V2000
   68.5055   45.5148   55.6644 C   0  0  0  0  0  0  0  0  0  0  0  0
   69.0850   47.7506   52.7093 C   0  0  0  0  0  0  0  0  0  0  0  0
   68.4436   47.0574   51.7222 C   0  0  0  0  0  0  0  0  0  0  0  0
   67.7940   45.8536   52.0190 C   0  0  0  0  0  0  0  0  0  0  0  0
   67.8008   45.3691   53.2958 C   0  0  0  0  0  0  0  0  0  0  0  0
   68.4488   46.0708   54.2876 C   0  0  0  0  0  0  0  0  0  0  0  0
   69.0750   47.2405   53.9788 C   0  0  0  0  0  0  0  0  0  0  0  0
   69.9021   49.2494   52.3792 S   0  0  0  0  0  0  0  0  0  0  0  0
   71.3575   49.1569   52.8234 O   0  0  0  0  0  0  0  0  0  0  0  0
   69.9138   49.5776   50.9205 O   0  0  0  0  0  0  0  0  0  0  0  0
   70.2484   51.4870   53.6924 C   0  0  0  0  0  0  0  0  0  0  0  0
   69.2261   50.5515   53.2891 N   0  0  0  0  0  0  0  0  0  0  0  0
   68.9378   46.3824   56.6913 N   0  0  0  0  0  0  0  0  0  0  0  0
   68.4697   47.6322   57.0948 C   0  0  0  0  0  0  0  0  0  0  0  0
   69.2742   48.7412   57.2283 C   0  0  0  0  0  0  0  0  0  0  0  0
   68.7569   49.9609   57.6268 C   0  0  0  0  0  0  0  0  0  0  0  0
   67.3924   50.1095   57.9084 C   0  0  0  0  0  0  0  0  0  0  0  0
   66.6168   48.9807   57.7639 C   0  0  0  0  0  0  0  0  0  0  0  0
   67.1410   47.8376   57.3839 N   0  0  0  0  0  0  0  0  0  0  0  0
   69.6408   51.1404   57.7535 C   0  0  0  0  0  0  0  0  0  0  0  0
   68.9701   52.3224   57.4541 F   0  0  0  0  0  0  0  0  0  0  0  0
   70.7508   51.0843   56.9740 F   0  0  0  0  0  0  0  0  0  0  0  0
   70.0758   51.2695   59.0741 F   0  0  0  0  0  0  0  0  0  0  0  0
 11 12  1  0
 12  8  1  0
  8  9  2  0
  8 10  2  0
  8  2  1  0
  2  3  2  0
  2  7  1  0
  3  4  1  0
  4  5  2  0
  5  6  1  0
  6  1  1  0
  6  7  2  0
  1 13  1  0
 13 14  1  0
 14 15  2  0
 14 19  1  0
 15 16  1  0
 16 20  1  0
 16 17  2  0
 20 21  1  0
 20 22  1  0
 20 23  1  0
 17 18  1  0
 18 19  2  0
M  END
>  <minimizedAffinity>  (342) 
-8.51042

$$$$
data/200k_reference_output/data/smiles/29126.pdb
     RDKit          3D

 28 30  0  0  0  0  0  0  0  0999 V2000
   66.5324   41.8709   57.0456 O   0  0  0  0  0  0  0  0  0  0  0  0
   67.4557   41.2795   57.6751 C   0  0  0  0  0  0  0  0  0  0  0  0
   67.2562   40.0743   58.3728 N   0  0  0  0  0  0  0  0  0  0  0  0
   68.3001   39.4187   59.0770 C   0  0  0  0  0  0  0  0  0  0  0  0
   68.0660   38.3573   59.6767 O   0  0  0  0  0  0  0  0  0  0  0  0
   69.6472   39.9358   59.1315 N   0  0  0  0  0  0  0  0  0  0  0  0
   69.8531   41.1554   58.4262 C   0  0  0  0  0  0  0  0  0  0  0  0
   70.9894   41.6748   58.4199 O   0  0  0  0  0  0  0  0  0  0  0  0
   68.7931   41.8542   57.6910 C   0  0  0  0  0  0  0  0  0  0  0  0
   68.9867   42.9758   57.0422 C   0  0  0  0  0  0  0  0  0  0  0  0
   70.6941   39.2495   59.8550 C   0  0  0  0  0  0  0  0  0  0  0  0
   71.1667   38.0139   59.1979 C   0  0  0  0  0  0  0  0  0  0  0  0
   71.8336   38.0537   57.9917 C   0  0  0  0  0  0  0  0  0  0  0  0
   72.2627   36.8645   57.4070 C   0  0  0  0  0  0  0  0  0  0  0  0
   72.0250   35.6545   58.0237 C   0  0  0  0  0  0  0  0  0  0  0  0
   72.4539   34.5136   57.4300 F   0  0  0  0  0  0  0  0  0  0  0  0
   71.3608   35.5892   59.2296 C   0  0  0  0  0  0  0  0  0  0  0  0
   70.9442   36.7754   59.7929 C   0  0  0  0  0  0  0  0  0  0  0  0
   67.9175   43.6082   56.3462 N   0  0  0  0  0  0  0  0  0  0  0  0
   68.2008   44.3711   55.1784 N   0  0  0  0  0  0  0  0  0  0  0  0
   68.3957   45.7773   55.2617 C   0  0  0  0  0  0  0  0  0  0  0  0
   68.2977   46.2701   56.4266 O   0  0  0  0  0  0  0  0  0  0  0  0
   68.6875   46.6058   54.0989 C   0  0  0  0  0  0  0  0  0  0  0  0
   68.4794   46.2087   52.7997 C   0  0  0  0  0  0  0  0  0  0  0  0
   68.7738   47.0358   51.7216 C   0  0  0  0  0  0  0  0  0  0  0  0
   69.2873   48.2846   51.9420 C   0  0  0  0  0  0  0  0  0  0  0  0
   69.5045   48.7064   53.2198 C   0  0  0  0  0  0  0  0  0  0  0  0
   69.2042   47.8667   54.2943 C   0  0  0  0  0  0  0  0  0  0  0  0
  1  2  2  0
  2  3  1  0
  2  9  1  0
  3  4  1  0
  4  5  2  0
  4  6  1  0
  6 11  1  0
  6  7  1  0
 11 12  1  0
 12 13  2  0
 12 18  1  0
 13 14  1  0
 14 15  2  0
 15 16  1  0
 15 17  1  0
 17 18  2  0
  7  8  2  0
  7  9  1  0
  9 10  2  0
 10 19  1  0
 19 20  1  0
 20 21  1  0
 21 22  2  0
 21 23  1  0
 23 24  2  0
 23 28  1  0
 24 25  1  0
 25 26  2  0
 26 27  1  0
 27 28  2  0
M  END
>  <minimizedAffinity>  (343) 
-8.97470

$$$$
data/200k_reference_output/data/smiles/29420.pdb
     RDKit          3D

 22 25  0  0  0  0  0  0  0  0999 V2000
   72.0594   35.5953   53.7468 O   0  0  0  0  0  0  0  0  0  0  0  0
   73.2812   35.5448   53.9953 C   0  0  0  0  0  0  0  0  0  0  0  0
   74.3271   35.6499   53.0898 C   0  0  0  0  0  0  0  0  0  0  0  0
   75.5181   35.5423   53.7699 C   0  0  0  0  0  0  0  0  0  0  0  0
   75.1913   35.3753   55.0591 N   0  0  0  0  0  0  0  0  0  0  0  0
   73.8508   35.3791   55.1799 N   0  0  0  0  0  0  0  0  0  0  0  0
   73.1611   35.2247   56.4125 C   0  0  0  0  0  0  0  0  0  0  0  0
   73.0155   34.0162   57.0578 C   0  0  0  0  0  0  0  0  0  0  0  0
   72.3348   33.9127   58.2587 C   0  0  0  0  0  0  0  0  0  0  0  0
   71.7847   35.0192   58.8424 C   0  0  0  0  0  0  0  0  0  0  0  0
   71.9250   36.2378   58.2043 C   0  0  0  0  0  0  0  0  0  0  0  0
   72.6110   36.3357   56.9952 C   0  0  0  0  0  0  0  0  0  0  0  0
   76.8734   35.6001   53.1912 C   0  0  0  0  0  0  0  0  0  0  0  0
   76.8713   35.2942   51.7276 C   0  0  0  0  0  0  0  0  0  0  0  0
   77.6412   35.8854   50.7986 N   0  0  0  0  0  0  0  0  0  0  0  0
   77.3897   35.3776   49.5779 C   0  0  0  0  0  0  0  0  0  0  0  0
   77.8740   35.6050   48.3053 C   0  0  0  0  0  0  0  0  0  0  0  0
   77.4116   34.9056   47.1964 C   0  0  0  0  0  0  0  0  0  0  0  0
   76.4380   33.9542   47.3813 C   0  0  0  0  0  0  0  0  0  0  0  0
   75.9475   33.7161   48.6416 C   0  0  0  0  0  0  0  0  0  0  0  0
   76.4125   34.4180   49.7442 C   0  0  0  0  0  0  0  0  0  0  0  0
   76.1215   34.3950   51.0655 N   0  0  0  0  0  0  0  0  0  0  0  0
  1  2  2  0
  2  3  1  0
  2  6  1  0
  3  4  2  0
  4 13  1  0
  4  5  1  0
 13 14  1  0
 14 15  2  0
 14 22  1  0
 15 16  1  0
 16 17  2  0
 16 21  1  0
 17 18  1  0
 18 19  2  0
 19 20  1  0
 20 21  2  0
 21 22  1  0
  5  6  1  0
  6  7  1  0
  7  8  2  0
  7 12  1  0
  8  9  1  0
  9 10  2  0
 10 11  1  0
 11 12  2  0
M  CHG  1  15   1
M  END
>  <minimizedAffinity>  (344) 
-8.66941

$$$$
data/200k_reference_output/data/smiles/29548.pdb
     RDKit          3D

 24 26  0  0  0  0  0  0  0  0999 V2000
   69.4979   43.8434   56.7467 O   0  0  0  0  0  0  0  0  0  0  0  0
   69.7864   45.0061   57.1395 C   0  0  0  0  0  0  0  0  0  0  0  0
   70.8046   45.3476   58.0746 N   0  0  0  0  0  0  0  0  0  0  0  0
   70.7383   46.7684   58.1872 C   0  0  0  0  0  0  0  0  0  0  0  0
   71.4913   47.4481   58.9306 O   0  0  0  0  0  0  0  0  0  0  0  0
   69.6689   47.2393   57.3044 C   0  0  0  0  0  0  0  0  0  0  0  0
   69.0935   46.2288   56.6782 C   0  0  0  0  0  0  0  0  0  0  0  0
   69.3257   48.6604   57.1763 C   0  0  0  0  0  0  0  0  0  0  0  0
   70.2790   49.5773   56.7948 C   0  0  0  0  0  0  0  0  0  0  0  0
   69.9914   50.9064   56.6674 C   0  0  0  0  0  0  0  0  0  0  0  0
   68.7078   51.3439   56.9287 C   0  0  0  0  0  0  0  0  0  0  0  0
   67.7619   50.4350   57.3074 C   0  0  0  0  0  0  0  0  0  0  0  0
   66.1288   51.0344   57.6318 Cl  0  0  0  0  0  0  0  0  0  0  0  0
   68.0324   49.1012   57.4397 C   0  0  0  0  0  0  0  0  0  0  0  0
   68.0266   46.2417   55.7399 N   0  0  0  0  0  0  0  0  0  0  0  0
   68.2574   46.4691   54.3507 C   0  0  0  0  0  0  0  0  0  0  0  0
   67.6263   45.6588   53.4304 C   0  0  0  0  0  0  0  0  0  0  0  0
   67.8476   45.8782   52.0767 C   0  0  0  0  0  0  0  0  0  0  0  0
   68.6877   46.8950   51.6774 C   0  0  0  0  0  0  0  0  0  0  0  0
   69.3324   47.7213   52.5721 C   0  0  0  0  0  0  0  0  0  0  0  0
   69.0948   47.4803   53.9105 C   0  0  0  0  0  0  0  0  0  0  0  0
   70.2132   48.7887   52.1187 C   0  0  0  0  0  0  0  0  0  0  0  0
   69.9885   49.4037   51.0488 O   0  0  0  0  0  0  0  0  0  0  0  0
   71.3240   49.1544   52.8571 O   0  0  0  0  0  0  0  0  0  0  0  0
  1  2  2  0
  2  3  1  0
  2  7  1  0
  3  4  1  0
  4  5  2  0
  4  6  1  0
  6  8  1  0
  6  7  2  0
  8  9  2  0
  8 14  1  0
  9 10  1  0
 10 11  2  0
 11 12  1  0
 12 13  1  0
 12 14  2  0
  7 15  1  0
 15 16  1  0
 16 17  2  0
 16 21  1  0
 17 18  1  0
 18 19  2  0
 19 20  1  0
 20 22  1  0
 20 21  2  0
 22 23  2  0
 22 24  1  0
M  END
>  <minimizedAffinity>  (345) 
-8.82342

$$$$
data/200k_reference_output/data/smiles/29564.pdb
     RDKit          3D

 30 34  0  0  0  0  0  0  0  0999 V2000
   73.1375   35.8604   57.1734 C   0  0  0  0  0  0  0  0  0  0  0  0
   74.4302   35.5926   57.5616 C   0  0  0  0  0  0  0  0  0  0  0  0
   75.3269   35.0954   56.6275 C   0  0  0  0  0  0  0  0  0  0  0  0
   74.9854   34.8575   55.3318 C   0  0  0  0  0  0  0  0  0  0  0  0
   73.6735   35.1214   54.9072 C   0  0  0  0  0  0  0  0  0  0  0  0
   72.7958   35.6115   55.8361 C   0  0  0  0  0  0  0  0  0  0  0  0
   69.9826   33.9951   61.3093 C   0  0  0  0  0  0  0  0  0  0  0  0
   69.8957   35.3838   60.8626 N   0  0  0  0  0  0  0  0  0  0  0  0
   69.0691   36.2991   61.3995 C   0  0  0  0  0  0  0  0  0  0  0  0
   68.2674   36.0671   62.3566 O   0  0  0  0  0  0  0  0  0  0  0  0
   69.2344   37.4858   60.7589 N   0  0  0  0  0  0  0  0  0  0  0  0
   70.1788   37.3364   59.7965 C   0  0  0  0  0  0  0  0  0  0  0  0
   70.7433   38.1369   58.8761 N   0  0  0  0  0  0  0  0  0  0  0  0
   71.6978   37.6937   58.0170 C   0  0  0  0  0  0  0  0  0  0  0  0
   72.1184   36.3832   58.0724 C   0  0  0  0  0  0  0  0  0  0  0  0
   71.5314   35.5689   59.0228 C   0  0  0  0  0  0  0  0  0  0  0  0
   70.5671   36.0035   59.8953 C   0  0  0  0  0  0  0  0  0  0  0  0
   73.3100   34.8644   53.5183 C   0  0  0  0  0  0  0  0  0  0  0  0
   72.4359   35.5921   52.9754 O   0  0  0  0  0  0  0  0  0  0  0  0
   73.8813   33.8479   52.7530 N   0  0  0  0  0  0  0  0  0  0  0  0
   73.5895   33.5195   51.3932 C   0  0  0  0  0  0  0  0  0  0  0  0
   74.7484   33.9135   50.5256 C   0  0  0  0  0  0  0  0  0  0  0  0
   75.8249   34.6335   50.9429 N   0  0  0  0  0  0  0  0  0  0  0  0
   76.6730   34.8277   49.9190 C   0  0  0  0  0  0  0  0  0  0  0  0
   77.8969   35.4778   49.7878 C   0  0  0  0  0  0  0  0  0  0  0  0
   78.5719   35.5279   48.5919 C   0  0  0  0  0  0  0  0  0  0  0  0
   78.0212   34.9105   47.4748 C   0  0  0  0  0  0  0  0  0  0  0  0
   76.8084   34.2671   47.6100 C   0  0  0  0  0  0  0  0  0  0  0  0
   76.1303   34.2180   48.8113 C   0  0  0  0  0  0  0  0  0  0  0  0
   74.9657   33.6782   49.2242 N   0  0  0  0  0  0  0  0  0  0  0  0
  7  8  1  0
  8  9  1  0
  8 17  1  0
  9 10  2  0
  9 11  1  0
 11 12  1  0
 12 13  1  0
 12 17  2  0
 13 14  2  0
 14 15  1  0
 15  1  1  0
 15 16  2  0
  1  2  2  0
  1  6  1  0
  2  3  1  0
  3  4  2  0
  4  5  1  0
  5 18  1  0
  5  6  2  0
 18 19  2  0
 18 20  1  0
 20 21  1  0
 21 22  1  0
 22 23  2  0
 22 30  1  0
 23 24  1  0
 24 25  2  0
 24 29  1  0
 25 26  1  0
 26 27  2  0
 27 28  1  0
 28 29  2  0
 29 30  1  0
 16 17  1  0
M  CHG  1  23   1
M  END
>  <minimizedAffinity>  (346) 
-8.70586

$$$$
data/200k_reference_output/data/smiles/29761.pdb
     RDKit          3D

 21 23  0  0  0  0  0  0  0  0999 V2000
   70.4488   49.2477   54.0229 C   0  0  0  0  0  0  0  0  0  0  0  0
   71.6155   49.5389   53.4222 N   0  0  0  0  0  0  0  0  0  0  0  0
   72.1780   50.5933   53.9815 N   0  0  0  0  0  0  0  0  0  0  0  0
   71.3967   51.0417   54.9819 C   0  0  0  0  0  0  0  0  0  0  0  0
   70.3137   50.1970   55.0065 C   0  0  0  0  0  0  0  0  0  0  0  0
   66.9488   44.9950   52.6427 O   0  0  0  0  0  0  0  0  0  0  0  0
   67.8109   46.0422   52.9801 C   0  0  0  0  0  0  0  0  0  0  0  0
   68.1525   46.2892   54.2934 C   0  0  0  0  0  0  0  0  0  0  0  0
   69.0022   47.3208   54.6358 C   0  0  0  0  0  0  0  0  0  0  0  0
   69.5480   48.1509   53.6764 C   0  0  0  0  0  0  0  0  0  0  0  0
   69.2008   47.8979   52.3647 C   0  0  0  0  0  0  0  0  0  0  0  0
   69.7594   48.7468   51.3942 O   0  0  0  0  0  0  0  0  0  0  0  0
   68.3516   46.8681   52.0164 C   0  0  0  0  0  0  0  0  0  0  0  0
   68.0284   46.6503   50.6679 O   0  0  0  0  0  0  0  0  0  0  0  0
   69.2087   50.3317   55.9564 C   0  0  0  0  0  0  0  0  0  0  0  0
   69.1270   49.6113   57.1096 C   0  0  0  0  0  0  0  0  0  0  0  0
   68.0676   49.7783   57.9631 C   0  0  0  0  0  0  0  0  0  0  0  0
   67.0746   50.6839   57.6563 C   0  0  0  0  0  0  0  0  0  0  0  0
   67.1587   51.4151   56.4849 C   0  0  0  0  0  0  0  0  0  0  0  0
   68.2262   51.2389   55.6361 C   0  0  0  0  0  0  0  0  0  0  0  0
   68.3090   51.9668   54.4714 F   0  0  0  0  0  0  0  0  0  0  0  0
  6  7  1  0
  7  8  2  0
  7 13  1  0
  8  9  1  0
  9 10  2  0
 10  1  1  0
 10 11  1  0
  1  2  2  0
  1  5  1  0
  2  3  1  0
  3  4  1  0
  4  5  2  0
  5 15  1  0
 15 16  2  0
 15 20  1  0
 16 17  1  0
 17 18  2  0
 18 19  1  0
 19 20  2  0
 20 21  1  0
 11 12  1  0
 11 13  2  0
 13 14  1  0
M  END
>  <minimizedAffinity>  (347) 
-8.64943

$$$$
data/200k_reference_output/data/smiles/29848.pdb
     RDKit          3D

 27 29  0  0  0  0  0  0  0  0999 V2000
   69.0008   46.2917   55.7463 C   0  0  0  0  0  0  0  0  0  0  0  0
   68.2201   45.2268   55.4101 N   0  0  0  0  0  0  0  0  0  0  0  0
   67.6977   45.0362   54.2132 C   0  0  0  0  0  0  0  0  0  0  0  0
   67.9098   45.9241   53.1891 C   0  0  0  0  0  0  0  0  0  0  0  0
   67.2216   45.6726   51.6125 Cl  0  0  0  0  0  0  0  0  0  0  0  0
   68.6851   47.0255   53.4406 C   0  0  0  0  0  0  0  0  0  0  0  0
   68.9097   47.9510   52.4127 C   0  0  0  0  0  0  0  0  0  0  0  0
   69.6857   49.0445   52.7126 C   0  0  0  0  0  0  0  0  0  0  0  0
   70.2319   49.2401   53.9737 C   0  0  0  0  0  0  0  0  0  0  0  0
   69.9926   48.3104   54.9662 C   0  0  0  0  0  0  0  0  0  0  0  0
   69.2166   47.2068   54.6825 C   0  0  0  0  0  0  0  0  0  0  0  0
   69.8991   45.2178   58.9092 N   0  0  0  0  0  0  0  0  0  0  0  0
   69.8964   46.3989   58.0456 C   0  0  0  0  0  0  0  0  0  0  0  0
   70.4803   47.5398   58.7830 N   0  0  0  0  0  0  0  0  0  0  0  0
   69.5005   46.4600   56.9517 N   0  0  0  0  0  0  0  0  0  0  0  0
   71.1978   50.6700   54.2459 S   0  0  0  0  0  0  0  0  0  0  0  0
   72.6142   50.2704   53.8255 O   0  0  0  0  0  0  0  0  0  0  0  0
   70.8105   51.7193   53.2056 O   0  0  0  0  0  0  0  0  0  0  0  0
   71.2498   51.2764   55.7705 N   0  0  0  0  0  0  0  0  0  0  0  0
   70.1326   51.7069   56.4862 C   0  0  0  0  0  0  0  0  0  0  0  0
   68.8254   51.7053   55.6784 C   0  0  0  0  0  0  0  0  0  0  0  0
   67.7226   51.4439   56.6627 C   0  0  0  0  0  0  0  0  0  0  0  0
   68.3664   50.5830   57.7278 C   0  0  0  0  0  0  0  0  0  0  0  0
   69.8231   51.0021   57.7731 C   0  0  0  0  0  0  0  0  0  0  0  0
   70.3569   53.1389   56.8372 C   0  0  0  0  0  0  0  0  0  0  0  0
   71.4375   53.4584   57.3568 O   0  0  0  0  0  0  0  0  0  0  0  0
   69.4028   54.0942   56.5994 O   0  0  0  0  0  0  0  0  0  0  0  0
 12 13  1  0
 13 14  1  0
 13 15  2  0
 15  1  1  0
  1  2  2  0
  1 11  1  0
  2  3  1  0
  3  4  2  0
  4  5  1  0
  4  6  1  0
  6  7  1  0
  6 11  2  0
  7  8  2  0
  8  9  1  0
  9 16  1  0
  9 10  2  0
 16 17  2  0
 16 18  2  0
 16 19  1  0
 19 20  1  0
 20 25  1  0
 20 21  1  0
 20 24  1  0
 25 26  2  0
 25 27  1  0
 21 22  1  0
 22 23  1  0
 23 24  1  0
 10 11  1  0
M  CHG  1  15   1
M  END
>  <minimizedAffinity>  (348) 
-8.54195

$$$$
data/200k_reference_output/data/smiles/29979.pdb
     RDKit          3D

 21 22  0  0  0  0  0  0  0  0999 V2000
   68.9674   46.6973   57.1315 N   0  0  0  0  0  0  0  0  0  0  0  0
   68.2690   47.1697   56.2073 C   0  0  0  0  0  0  0  0  0  0  0  0
   68.4571   47.1094   54.7819 C   0  0  0  0  0  0  0  0  0  0  0  0
   67.7690   46.1826   53.9878 C   0  0  0  0  0  0  0  0  0  0  0  0
   67.9329   46.1074   52.6276 C   0  0  0  0  0  0  0  0  0  0  0  0
   68.7992   46.9589   51.9780 C   0  0  0  0  0  0  0  0  0  0  0  0
   69.4808   47.8707   52.7235 C   0  0  0  0  0  0  0  0  0  0  0  0
   69.3098   47.9422   54.1088 C   0  0  0  0  0  0  0  0  0  0  0  0
   70.3837   48.7617   52.0647 N   0  0  0  0  0  0  0  0  0  0  0  0
   71.5126   48.9332   52.5163 O   0  0  0  0  0  0  0  0  0  0  0  0
   70.0138   49.4370   50.9317 O   0  0  0  0  0  0  0  0  0  0  0  0
   70.5688   45.0821   58.1079 C   0  0  0  0  0  0  0  0  0  0  0  0
   69.8243   44.9561   59.1116 O   0  0  0  0  0  0  0  0  0  0  0  0
   70.1365   45.9708   57.0935 N   0  0  0  0  0  0  0  0  0  0  0  0
   70.5120   42.3794   57.4454 N   0  0  0  0  0  0  0  0  0  0  0  0
   71.7738   42.9712   57.7448 C   0  0  0  0  0  0  0  0  0  0  0  0
   72.9047   42.1838   57.6945 C   0  0  0  0  0  0  0  0  0  0  0  0
   74.1448   42.7156   57.9773 C   0  0  0  0  0  0  0  0  0  0  0  0
   74.1905   44.0518   58.3083 C   0  0  0  0  0  0  0  0  0  0  0  0
   73.0449   44.8429   58.3581 C   0  0  0  0  0  0  0  0  0  0  0  0
   71.8026   44.3115   58.0743 C   0  0  0  0  0  0  0  0  0  0  0  0
 15 16  1  0
 16 17  2  0
 16 21  1  0
 17 18  1  0
 18 19  2  0
 19 20  1  0
 20 21  2  0
 21 12  1  0
 12 13  2  0
 12 14  1  0
 14  1  1  0
  1  2  2  0
  2  3  1  0
  3  4  2  0
  3  8  1  0
  4  5  1  0
  5  6  2  0
  6  7  1  0
  7  9  1  0
  7  8  2  0
  9 10  2  0
  9 11  1  0
M  CHG  2   9   1  11  -1
M  END
>  <minimizedAffinity>  (349) 
-8.73759

$$$$
data/200k_reference_output/data/smiles/30031.pdb
     RDKit          3D

 27 29  0  0  0  0  0  0  0  0999 V2000
   69.8975   44.6723   57.3908 C   0  0  0  0  0  0  0  0  0  0  0  0
   68.9183   44.2652   56.7160 O   0  0  0  0  0  0  0  0  0  0  0  0
   69.8997   46.0338   57.7962 N   0  0  0  0  0  0  0  0  0  0  0  0
   74.6535   43.7397   58.4552 C   0  0  0  0  0  0  0  0  0  0  0  0
   73.2756   43.2376   58.2570 C   0  0  0  0  0  0  0  0  0  0  0  0
   72.2706   44.1498   57.9308 C   0  0  0  0  0  0  0  0  0  0  0  0
   70.9721   43.7657   57.7314 C   0  0  0  0  0  0  0  0  0  0  0  0
   70.6989   42.3961   57.8738 C   0  0  0  0  0  0  0  0  0  0  0  0
   71.6421   41.4718   58.1911 C   0  0  0  0  0  0  0  0  0  0  0  0
   72.9316   41.9117   58.3800 C   0  0  0  0  0  0  0  0  0  0  0  0
   71.3042   40.0904   58.3222 N   0  0  0  0  0  0  0  0  0  0  0  0
   70.0763   39.5951   58.6009 C   0  0  0  0  0  0  0  0  0  0  0  0
   70.1282   38.2191   58.6502 C   0  0  0  0  0  0  0  0  0  0  0  0
   71.4391   37.8824   58.3907 C   0  0  0  0  0  0  0  0  0  0  0  0
   72.0117   36.4884   58.3315 C   0  0  0  0  0  0  0  0  0  0  0  0
   72.0915   39.0372   58.2034 N   0  0  0  0  0  0  0  0  0  0  0  0
   68.8745   46.9134   57.4758 N   0  0  0  0  0  0  0  0  0  0  0  0
   69.2204   48.0207   56.2280 S   0  0  0  0  0  0  0  0  0  0  0  0
   68.2774   49.2051   56.4293 O   0  0  0  0  0  0  0  0  0  0  0  0
   70.6300   48.5686   56.3413 O   0  0  0  0  0  0  0  0  0  0  0  0
   68.9092   47.4315   54.6240 C   0  0  0  0  0  0  0  0  0  0  0  0
   68.0873   46.3557   54.3875 C   0  0  0  0  0  0  0  0  0  0  0  0
   67.8393   45.9198   53.0797 C   0  0  0  0  0  0  0  0  0  0  0  0
   68.4255   46.5786   52.0278 C   0  0  0  0  0  0  0  0  0  0  0  0
   69.2494   47.6570   52.2544 C   0  0  0  0  0  0  0  0  0  0  0  0
   69.4868   48.0766   53.5169 C   0  0  0  0  0  0  0  0  0  0  0  0
   70.2978   49.1411   53.7708 F   0  0  0  0  0  0  0  0  0  0  0  0
  4  5  1  0
  5  6  2  0
  5 10  1  0
  6  7  1  0
  7  1  1  0
  7  8  2  0
  1  2  2  0
  1  3  1  0
  3 17  1  0
 17 18  1  0
 18 19  2  0
 18 20  2  0
 18 21  1  0
 21 22  2  0
 21 26  1  0
 22 23  1  0
 23 24  2  0
 24 25  1  0
 25 26  2  0
 26 27  1  0
  8  9  1  0
  9 11  1  0
  9 10  2  0
 11 12  1  0
 11 16  1  0
 12 13  2  0
 13 14  1  0
 14 15  1  0
 14 16  2  0
M  END
>  <minimizedAffinity>  (350) 
-8.78147

$$$$
data/200k_reference_output/data/smiles/30154.pdb
     RDKit          3D

 21 22  0  0  0  0  0  0  0  0999 V2000
   68.2302   45.2846   55.1505 C   0  0  0  0  0  0  0  0  0  0  0  0
   68.4883   45.7477   56.3137 O   0  0  0  0  0  0  0  0  0  0  0  0
   67.7529   43.9464   55.1570 N   0  0  0  0  0  0  0  0  0  0  0  0
   69.3544   47.9942   52.7858 C   0  0  0  0  0  0  0  0  0  0  0  0
   68.7479   47.5744   51.6341 C   0  0  0  0  0  0  0  0  0  0  0  0
   67.9801   46.4185   51.6318 C   0  0  0  0  0  0  0  0  0  0  0  0
   67.8227   45.6833   52.7902 C   0  0  0  0  0  0  0  0  0  0  0  0
   68.4196   46.0820   53.9579 C   0  0  0  0  0  0  0  0  0  0  0  0
   69.1712   47.2228   53.9429 C   0  0  0  0  0  0  0  0  0  0  0  0
   71.4326   49.0680   52.9052 O   0  0  0  0  0  0  0  0  0  0  0  0
   70.1677   49.2015   52.8304 C   0  0  0  0  0  0  0  0  0  0  0  0
   69.6313   50.5074   52.7964 N   0  0  0  0  0  0  0  0  0  0  0  0
   70.4368   51.6085   52.8404 O   0  0  0  0  0  0  0  0  0  0  0  0
   67.5725   43.1855   56.2933 N   0  0  0  0  0  0  0  0  0  0  0  0
   67.6474   41.9268   56.3874 C   0  0  0  0  0  0  0  0  0  0  0  0
   67.4487   41.1650   57.6156 C   0  0  0  0  0  0  0  0  0  0  0  0
   66.6516   41.6202   58.6443 C   0  0  0  0  0  0  0  0  0  0  0  0
   66.4384   40.9309   59.8194 C   0  0  0  0  0  0  0  0  0  0  0  0
   67.0586   39.7092   59.9875 C   0  0  0  0  0  0  0  0  0  0  0  0
   67.8663   39.2217   58.9752 C   0  0  0  0  0  0  0  0  0  0  0  0
   68.0648   39.9291   57.8077 C   0  0  0  0  0  0  0  0  0  0  0  0
 10 11  2  0
 11 12  1  0
 11  4  1  0
 12 13  1  0
  4  5  2  0
  4  9  1  0
  5  6  1  0
  6  7  2  0
  7  8  1  0
  8  1  1  0
  8  9  2  0
  1  2  2  0
  1  3  1  0
  3 14  1  0
 14 15  2  0
 15 16  1  0
 16 17  2  0
 16 21  1  0
 17 18  1  0
 18 19  2  0
 19 20  1  0
 20 21  2  0
M  END
>  <minimizedAffinity>  (351) 
-8.51447

$$$$
data/200k_reference_output/data/smiles/30248.pdb
     RDKit          3D

 22 23  0  0  0  0  0  0  0  0999 V2000
   67.6998   45.0611   54.7660 N   0  0  0  0  0  0  0  0  0  0  0  0
   68.0712   44.1512   55.7947 C   0  0  0  0  0  0  0  0  0  0  0  0
   68.9633   44.5266   56.5977 O   0  0  0  0  0  0  0  0  0  0  0  0
   67.5137   42.8764   55.9685 N   0  0  0  0  0  0  0  0  0  0  0  0
   68.1061   46.0350   52.1781 C   0  0  0  0  0  0  0  0  0  0  0  0
   68.4885   46.8505   53.3436 C   0  0  0  0  0  0  0  0  0  0  0  0
   69.0567   48.1169   53.1485 C   0  0  0  0  0  0  0  0  0  0  0  0
   69.4116   48.8727   54.2664 C   0  0  0  0  0  0  0  0  0  0  0  0
   69.2072   48.3845   55.5359 C   0  0  0  0  0  0  0  0  0  0  0  0
   68.6454   47.1333   55.6791 C   0  0  0  0  0  0  0  0  0  0  0  0
   68.2785   46.3486   54.6083 C   0  0  0  0  0  0  0  0  0  0  0  0
   67.8650   41.9753   56.9665 N   0  0  0  0  0  0  0  0  0  0  0  0
   67.9556   40.5644   56.7637 C   0  0  0  0  0  0  0  0  0  0  0  0
   67.6907   40.1881   55.6006 O   0  0  0  0  0  0  0  0  0  0  0  0
   68.3269   39.6317   57.8243 C   0  0  0  0  0  0  0  0  0  0  0  0
   69.7510   39.6781   58.2755 C   0  0  0  0  0  0  0  0  0  0  0  0
   70.3222   38.3854   58.7105 C   0  0  0  0  0  0  0  0  0  0  0  0
   71.4064   37.7849   58.1220 C   0  0  0  0  0  0  0  0  0  0  0  0
   71.8281   36.5610   58.6006 C   0  0  0  0  0  0  0  0  0  0  0  0
   71.2199   35.9059   59.6408 C   0  0  0  0  0  0  0  0  0  0  0  0
   70.1369   36.5283   60.2147 C   0  0  0  0  0  0  0  0  0  0  0  0
   69.6820   37.7429   59.7730 C   0  0  0  0  0  0  0  0  0  0  0  0
  5  6  1  0
  6  7  2  0
  6 11  1  0
  7  8  1  0
  8  9  2  0
  9 10  1  0
 10 11  2  0
 11  1  1  0
  1  2  1  0
  2  3  2  0
  2  4  1  0
  4 12  1  0
 12 13  1  0
 13 14  2  0
 13 15  1  0
 15 16  1  0
 16 17  1  0
 17 18  2  0
 17 22  1  0
 18 19  1  0
 19 20  2  0
 20 21  1  0
 21 22  2  0
M  END
>  <minimizedAffinity>  (352) 
-8.54584

$$$$
data/200k_reference_output/data/smiles/30313.pdb
     RDKit          3D

 27 30  0  0  0  0  0  0  0  0999 V2000
   68.9647   41.4054   57.4870 C   0  0  0  0  0  0  0  0  0  0  0  0
   67.5424   41.6789   56.3037 S   0  0  0  0  0  0  0  0  0  0  0  0
   68.1102   43.4360   55.9268 C   0  0  0  0  0  0  0  0  0  0  0  0
   69.0494   43.4660   56.6125 N   0  0  0  0  0  0  0  0  0  0  0  0
   69.5430   42.5658   57.3901 N   0  0  0  0  0  0  0  0  0  0  0  0
   70.7528   42.8601   58.1525 C   0  0  0  0  0  0  0  0  0  0  0  0
   71.9942   42.5821   57.5906 C   0  0  0  0  0  0  0  0  0  0  0  0
   73.1559   42.8318   58.2878 C   0  0  0  0  0  0  0  0  0  0  0  0
   73.1033   43.3597   59.5506 C   0  0  0  0  0  0  0  0  0  0  0  0
   71.8726   43.6371   60.1112 C   0  0  0  0  0  0  0  0  0  0  0  0
   70.7108   43.3852   59.4082 C   0  0  0  0  0  0  0  0  0  0  0  0
   70.1880   39.4068   58.2148 C   0  0  0  0  0  0  0  0  0  0  0  0
   69.1144   40.1588   58.1620 C   0  0  0  0  0  0  0  0  0  0  0  0
   70.9197   34.0477   60.9106 Cl  0  0  0  0  0  0  0  0  0  0  0  0
   70.6774   35.6143   60.1533 C   0  0  0  0  0  0  0  0  0  0  0  0
   69.7034   36.4896   60.5783 C   0  0  0  0  0  0  0  0  0  0  0  0
   69.5174   37.7368   59.9680 C   0  0  0  0  0  0  0  0  0  0  0  0
   70.3054   38.1339   58.9151 C   0  0  0  0  0  0  0  0  0  0  0  0
   71.2785   37.2467   58.4995 C   0  0  0  0  0  0  0  0  0  0  0  0
   71.4713   36.0091   59.0969 C   0  0  0  0  0  0  0  0  0  0  0  0
   67.4065   44.2594   55.0294 N   0  0  0  0  0  0  0  0  0  0  0  0
   67.9593   45.4111   54.4536 C   0  0  0  0  0  0  0  0  0  0  0  0
   67.9536   45.5326   53.0583 C   0  0  0  0  0  0  0  0  0  0  0  0
   68.5004   46.6244   52.4190 C   0  0  0  0  0  0  0  0  0  0  0  0
   69.0763   47.6467   53.1335 C   0  0  0  0  0  0  0  0  0  0  0  0
   69.0959   47.5529   54.5061 C   0  0  0  0  0  0  0  0  0  0  0  0
   68.5399   46.4406   55.1495 C   0  0  0  0  0  0  0  0  0  0  0  0
 14 15  1  0
 15 16  2  0
 15 20  1  0
 16 17  1  0
 17 18  2  0
 18 12  1  0
 18 19  1  0
 12 13  2  0
 13  1  1  0
  1  2  1  0
  1  5  2  0
  2  3  1  0
  3 21  1  0
  3  4  2  0
 21 22  1  0
 22 23  2  0
 22 27  1  0
 23 24  1  0
 24 25  2  0
 25 26  1  0
 26 27  2  0
  4  5  1  0
  5  6  1  0
  6  7  2  0
  6 11  1  0
  7  8  1  0
  8  9  2  0
  9 10  1  0
 10 11  2  0
 19 20  2  0
M  CHG  1   5   1
M  END
>  <minimizedAffinity>  (353) 
-8.64842

$$$$
data/200k_reference_output/data/smiles/30343.pdb
     RDKit          3D

 26 28  0  0  0  0  0  0  0  0999 V2000
   70.0184   43.7807   57.4787 C   0  0  0  0  0  0  0  0  0  0  0  0
   71.1803   43.9496   57.9245 O   0  0  0  0  0  0  0  0  0  0  0  0
   69.2892   44.9191   57.0438 N   0  0  0  0  0  0  0  0  0  0  0  0
   69.2499   40.0789   57.8547 C   0  0  0  0  0  0  0  0  0  0  0  0
   68.0822   40.0376   57.1230 C   0  0  0  0  0  0  0  0  0  0  0  0
   67.5619   41.1784   56.5267 C   0  0  0  0  0  0  0  0  0  0  0  0
   68.2141   42.3827   56.6607 C   0  0  0  0  0  0  0  0  0  0  0  0
   69.4047   42.4690   57.3953 C   0  0  0  0  0  0  0  0  0  0  0  0
   69.8704   41.3287   57.9568 C   0  0  0  0  0  0  0  0  0  0  0  0
   72.4111   36.3371   58.9531 C   0  0  0  0  0  0  0  0  0  0  0  0
   71.2573   37.2708   58.9322 C   0  0  0  0  0  0  0  0  0  0  0  0
   70.1680   37.1805   59.7675 C   0  0  0  0  0  0  0  0  0  0  0  0
   69.3412   38.1905   59.4532 N   0  0  0  0  0  0  0  0  0  0  0  0
   69.8092   38.9299   58.4781 N   0  0  0  0  0  0  0  0  0  0  0  0
   71.0051   38.3697   58.1409 C   0  0  0  0  0  0  0  0  0  0  0  0
   69.8154   46.2105   57.0941 N   0  0  0  0  0  0  0  0  0  0  0  0
   68.9346   47.3979   56.2791 S   0  0  0  0  0  0  0  0  0  0  0  0
   69.3672   48.7982   56.6648 O   0  0  0  0  0  0  0  0  0  0  0  0
   67.4853   47.2750   56.7506 O   0  0  0  0  0  0  0  0  0  0  0  0
   68.8904   47.2705   54.5540 C   0  0  0  0  0  0  0  0  0  0  0  0
   69.4201   48.1761   53.6683 C   0  0  0  0  0  0  0  0  0  0  0  0
   69.3424   47.9782   52.2988 C   0  0  0  0  0  0  0  0  0  0  0  0
   68.7222   46.8514   51.8094 C   0  0  0  0  0  0  0  0  0  0  0  0
   68.1832   45.9288   52.6681 C   0  0  0  0  0  0  0  0  0  0  0  0
   68.2746   46.1516   54.0221 C   0  0  0  0  0  0  0  0  0  0  0  0
   67.7221   45.2015   54.8394 F   0  0  0  0  0  0  0  0  0  0  0  0
 10 11  1  0
 11 12  1  0
 11 15  2  0
 12 13  2  0
 13 14  1  0
 14  4  1  0
 14 15  1  0
  4  5  2  0
  4  9  1  0
  5  6  1  0
  6  7  2  0
  7  8  1  0
  8  1  1  0
  8  9  2  0
  1  2  2  0
  1  3  1  0
  3 16  1  0
 16 17  1  0
 17 18  2  0
 17 19  2  0
 17 20  1  0
 20 21  2  0
 20 25  1  0
 21 22  1  0
 22 23  2  0
 23 24  1  0
 24 25  2  0
 25 26  1  0
M  END
>  <minimizedAffinity>  (354) 
-9.12120

$$$$
data/200k_reference_output/data/smiles/30392.pdb
     RDKit          3D

 27 29  0  0  0  0  0  0  0  0999 V2000
   70.0881   45.0981   58.8728 N   0  0  0  0  0  0  0  0  0  0  0  0
   71.0510   46.0189   58.4233 C   0  0  0  0  0  0  0  0  0  0  0  0
   72.2041   45.5830   58.1787 O   0  0  0  0  0  0  0  0  0  0  0  0
   70.0762   42.7450   58.1021 C   0  0  0  0  0  0  0  0  0  0  0  0
   69.5790   43.1982   57.0072 O   0  0  0  0  0  0  0  0  0  0  0  0
   70.3368   43.7312   59.0632 N   0  0  0  0  0  0  0  0  0  0  0  0
   70.8718   38.6176   58.5289 C   0  0  0  0  0  0  0  0  0  0  0  0
   69.5829   39.0346   58.3371 C   0  0  0  0  0  0  0  0  0  0  0  0
   69.2990   40.3979   58.1933 C   0  0  0  0  0  0  0  0  0  0  0  0
   70.3129   41.3232   58.2445 C   0  0  0  0  0  0  0  0  0  0  0  0
   71.5901   40.8673   58.4378 C   0  0  0  0  0  0  0  0  0  0  0  0
   71.8856   39.5200   58.5822 C   0  0  0  0  0  0  0  0  0  0  0  0
   71.1482   36.8009   60.1518 C   0  0  0  0  0  0  0  0  0  0  0  0
   71.2171   37.1607   58.6867 C   0  0  0  0  0  0  0  0  0  0  0  0
   70.7992   47.4640   58.2192 C   0  0  0  0  0  0  0  0  0  0  0  0
   69.3687   47.6873   57.8241 C   0  0  0  0  0  0  0  0  0  0  0  0
   69.0478   47.2356   56.4469 C   0  0  0  0  0  0  0  0  0  0  0  0
   69.4148   48.0258   55.3866 N   0  0  0  0  0  0  0  0  0  0  0  0
   69.1871   47.6688   54.1181 C   0  0  0  0  0  0  0  0  0  0  0  0
   69.5533   48.4584   53.0442 C   0  0  0  0  0  0  0  0  0  0  0  0
   69.3131   48.0837   51.7387 C   0  0  0  0  0  0  0  0  0  0  0  0
   68.6845   46.8722   51.5279 C   0  0  0  0  0  0  0  0  0  0  0  0
   68.3185   46.0831   52.6031 C   0  0  0  0  0  0  0  0  0  0  0  0
   68.5585   46.4577   53.9180 C   0  0  0  0  0  0  0  0  0  0  0  0
   68.1955   45.6751   54.9860 C   0  0  0  0  0  0  0  0  0  0  0  0
   67.6212   44.5690   54.7994 O   0  0  0  0  0  0  0  0  0  0  0  0
   68.4396   46.0608   56.2737 N   0  0  0  0  0  0  0  0  0  0  0  0
 13 14  1  0
 14  7  1  0
  7  8  2  0
  7 12  1  0
  8  9  1  0
  9 10  2  0
 10  4  1  0
 10 11  1  0
  4  5  2  0
  4  6  1  0
  6  1  1  0
  1  2  1  0
  2  3  2  0
  2 15  1  0
 15 16  1  0
 16 17  1  0
 17 18  2  0
 17 27  1  0
 18 19  1  0
 19 20  2  0
 19 24  1  0
 20 21  1  0
 21 22  2  0
 22 23  1  0
 23 24  2  0
 24 25  1  0
 25 26  2  0
 25 27  1  0
 11 12  2  0
M  END
>  <minimizedAffinity>  (355) 
-8.88767

$$$$
data/200k_reference_output/data/smiles/30482.pdb
     RDKit          3D

 23 25  0  0  0  0  0  0  0  0999 V2000
   69.3484   46.9469   57.6400 O   0  0  0  0  0  0  0  0  0  0  0  0
   69.1540   47.0191   56.2721 C   0  0  0  0  0  0  0  0  0  0  0  0
   69.7041   48.0968   55.5643 C   0  0  0  0  0  0  0  0  0  0  0  0
   69.5376   48.2082   54.2000 C   0  0  0  0  0  0  0  0  0  0  0  0
   68.8309   47.2793   53.4666 C   0  0  0  0  0  0  0  0  0  0  0  0
   68.6642   47.3906   52.1032 C   0  0  0  0  0  0  0  0  0  0  0  0
   67.9476   46.4374   51.3985 C   0  0  0  0  0  0  0  0  0  0  0  0
   67.4309   45.3986   52.1573 C   0  0  0  0  0  0  0  0  0  0  0  0
   66.7724   44.5191   51.5193 O   0  0  0  0  0  0  0  0  0  0  0  0
   67.6122   45.3295   53.4544 O   0  0  0  0  0  0  0  0  0  0  0  0
   68.2854   46.2156   54.1469 C   0  0  0  0  0  0  0  0  0  0  0  0
   68.4529   46.1027   55.5220 C   0  0  0  0  0  0  0  0  0  0  0  0
   70.4921   46.5878   58.3210 C   0  0  0  0  0  0  0  0  0  0  0  0
   71.7139   44.6278   57.8615 O   0  0  0  0  0  0  0  0  0  0  0  0
   70.7042   45.1427   58.3647 C   0  0  0  0  0  0  0  0  0  0  0  0
   69.7146   44.3270   59.0059 N   0  0  0  0  0  0  0  0  0  0  0  0
   69.9433   42.8971   59.0402 C   0  0  0  0  0  0  0  0  0  0  0  0
   69.1068   42.2113   58.0249 C   0  0  0  0  0  0  0  0  0  0  0  0
   68.9518   40.8540   57.9664 C   0  0  0  0  0  0  0  0  0  0  0  0
   68.1700   40.2411   57.0115 C   0  0  0  0  0  0  0  0  0  0  0  0
   67.5357   41.0716   56.0964 C   0  0  0  0  0  0  0  0  0  0  0  0
   67.6813   42.4445   56.1411 C   0  0  0  0  0  0  0  0  0  0  0  0
   68.4569   42.9668   57.0988 N   0  0  0  0  0  0  0  0  0  0  0  0
 14 15  2  0
 15 13  1  0
 15 16  1  0
 13  1  1  0
  1  2  1  0
  2  3  2  0
  2 12  1  0
  3  4  1  0
  4  5  2  0
  5  6  1  0
  5 11  1  0
  6  7  2  0
  7  8  1  0
  8  9  2  0
  8 10  1  0
 10 11  1  0
 11 12  2  0
 16 17  1  0
 17 18  1  0
 18 19  2  0
 18 23  1  0
 19 20  1  0
 20 21  2  0
 21 22  1  0
 22 23  2  0
M  END
>  <minimizedAffinity>  (356) 
-8.63660

$$$$
data/200k_reference_output/data/smiles/30636.pdb
     RDKit          3D

 25 29  0  0  0  0  0  0  0  0999 V2000
   68.1062   46.8221   56.4802 O   0  0  0  0  0  0  0  0  0  0  0  0
   68.6805   47.4815   55.5772 C   0  0  0  0  0  0  0  0  0  0  0  0
   68.5889   47.1595   54.2409 C   0  0  0  0  0  0  0  0  0  0  0  0
   67.8450   46.0734   53.8396 C   0  0  0  0  0  0  0  0  0  0  0  0
   67.7596   45.7562   52.4799 C   0  0  0  0  0  0  0  0  0  0  0  0
   68.4312   46.5521   51.5835 C   0  0  0  0  0  0  0  0  0  0  0  0
   69.1624   47.6240   52.0123 C   0  0  0  0  0  0  0  0  0  0  0  0
   69.2581   47.9533   53.3597 C   0  0  0  0  0  0  0  0  0  0  0  0
   70.0048   49.0412   53.7498 C   0  0  0  0  0  0  0  0  0  0  0  0
   70.5573   49.6693   52.8307 O   0  0  0  0  0  0  0  0  0  0  0  0
   70.1193   49.4010   55.1256 C   0  0  0  0  0  0  0  0  0  0  0  0
   69.4175   48.5493   55.9196 C   0  0  0  0  0  0  0  0  0  0  0  0
   69.7253   49.2207   57.5992 S   0  0  0  0  0  0  0  0  0  0  0  0
   70.7846   50.5971   57.0167 C   0  0  0  0  0  0  0  0  0  0  0  0
   71.4081   51.5655   57.7522 C   0  0  0  0  0  0  0  0  0  0  0  0
   71.3008   51.5999   58.9960 O   0  0  0  0  0  0  0  0  0  0  0  0
   72.1717   52.5199   57.0828 C   0  0  0  0  0  0  0  0  0  0  0  0
   72.8300   53.5246   57.7398 C   0  0  0  0  0  0  0  0  0  0  0  0
   73.5875   54.4658   57.0268 C   0  0  0  0  0  0  0  0  0  0  0  0
   73.6564   54.3625   55.6754 C   0  0  0  0  0  0  0  0  0  0  0  0
   72.9945   53.3533   55.0235 C   0  0  0  0  0  0  0  0  0  0  0  0
   72.2298   52.4024   55.7305 C   0  0  0  0  0  0  0  0  0  0  0  0
   71.5916   51.4177   55.0165 C   0  0  0  0  0  0  0  0  0  0  0  0
   71.7498   51.4544   53.7804 O   0  0  0  0  0  0  0  0  0  0  0  0
   70.8076   50.4304   55.6675 C   0  0  0  0  0  0  0  0  0  0  0  0
  1  2  2  0
  2  3  1  0
  2 12  1  0
  3  4  2  0
  3  8  1  0
  4  5  1  0
  5  6  2  0
  6  7  1  0
  7  8  2  0
  8  9  1  0
  9 10  2  0
  9 11  1  0
 11 12  2  0
 11 25  1  0
 12 13  1  0
 13 14  1  0
 14 15  1  0
 14 25  2  0
 15 16  2  0
 15 17  1  0
 17 18  1  0
 17 22  2  0
 18 19  2  0
 19 20  1  0
 20 21  2  0
 21 22  1  0
 22 23  1  0
 23 24  2  0
 23 25  1  0
M  END
>  <minimizedAffinity>  (357) 
-8.77359

$$$$
data/200k_reference_output/data/smiles/30691.pdb
     RDKit          3D

 26 30  0  0  0  0  0  0  0  0999 V2000
   67.8065   43.4273   61.9034 O   0  0  0  0  0  0  0  0  0  0  0  0
   67.6821   42.5305   61.0004 C   0  0  0  0  0  0  0  0  0  0  0  0
   67.9790   42.6699   59.6262 N   0  0  0  0  0  0  0  0  0  0  0  0
   67.7033   41.4296   58.9543 C   0  0  0  0  0  0  0  0  0  0  0  0
   69.0077   40.9660   58.3362 C   0  0  0  0  0  0  0  0  0  0  0  0
   69.5506   42.1812   57.5701 C   0  0  0  0  0  0  0  0  0  0  0  0
   68.4928   42.7429   56.7719 N   0  0  0  0  0  0  0  0  0  0  0  0
   67.3093   41.9634   56.5191 C   0  0  0  0  0  0  0  0  0  0  0  0
   66.6847   41.5956   57.8456 C   0  0  0  0  0  0  0  0  0  0  0  0
   67.2138   40.5026   59.9836 C   0  0  0  0  0  0  0  0  0  0  0  0
   66.7924   39.1906   59.9703 C   0  0  0  0  0  0  0  0  0  0  0  0
   66.3664   38.5276   61.1173 C   0  0  0  0  0  0  0  0  0  0  0  0
   66.3628   39.2003   62.3190 C   0  0  0  0  0  0  0  0  0  0  0  0
   66.7822   40.5105   62.3452 C   0  0  0  0  0  0  0  0  0  0  0  0
   67.2068   41.1667   61.1886 C   0  0  0  0  0  0  0  0  0  0  0  0
   68.5887   44.0432   56.2279 C   0  0  0  0  0  0  0  0  0  0  0  0
   68.0633   44.3539   55.0230 N   0  0  0  0  0  0  0  0  0  0  0  0
   68.1448   45.5822   54.4932 C   0  0  0  0  0  0  0  0  0  0  0  0
   68.7869   46.5846   55.1868 C   0  0  0  0  0  0  0  0  0  0  0  0
   69.3220   46.2948   56.3976 C   0  0  0  0  0  0  0  0  0  0  0  0
   69.9095   47.2119   57.0325 O   0  0  0  0  0  0  0  0  0  0  0  0
   69.2094   45.0338   56.8876 N   0  0  0  0  0  0  0  0  0  0  0  0
   68.8431   47.9217   54.5424 C   0  0  0  0  0  0  0  0  0  0  0  0
   69.3195   47.7377   53.1382 C   0  0  0  0  0  0  0  0  0  0  0  0
   68.6443   46.6442   52.3877 C   0  0  0  0  0  0  0  0  0  0  0  0
   67.5723   45.9364   53.1704 C   0  0  0  0  0  0  0  0  0  0  0  0
  1  2  2  0
  2  3  1  0
  2 15  1  0
  3  4  1  0
  4  5  1  0
  4  9  1  0
  4 10  1  0
  5  6  1  0
  6  7  1  0
  7 16  1  0
  7  8  1  0
 16 17  2  0
 16 22  1  0
 17 18  1  0
 18 19  2  0
 18 26  1  0
 19 20  1  0
 19 23  1  0
 20 21  2  0
 20 22  1  0
 23 24  1  0
 24 25  1  0
 25 26  1  0
  8  9  1  0
 10 11  2  0
 10 15  1  0
 11 12  1  0
 12 13  2  0
 13 14  1  0
 14 15  2  0
M  END
>  <minimizedAffinity>  (358) 
-8.60400

$$$$
data/200k_reference_output/data/smiles/30753.pdb
     RDKit          3D

 24 26  0  0  0  0  0  0  0  0999 V2000
   72.2434   51.0576   54.7746 C   0  0  2  0  0  0  0  0  0  0  0  0
   70.1922   50.8362   52.9303 O   0  0  0  0  0  0  0  0  0  0  0  0
   70.4647   49.7736   53.5263 C   0  0  0  0  0  0  0  0  0  0  0  0
   71.5142   49.8431   54.4832 N   0  0  0  0  0  0  0  0  0  0  0  0
   69.7154   48.5613   53.2160 C   0  0  0  0  0  0  0  0  0  0  0  0
   68.9311   47.9851   54.1981 C   0  0  0  0  0  0  0  0  0  0  0  0
   68.1961   46.8382   53.9765 C   0  0  0  0  0  0  0  0  0  0  0  0
   68.2091   46.2059   52.7530 C   0  0  0  0  0  0  0  0  0  0  0  0
   67.4804   45.0675   52.5328 F   0  0  0  0  0  0  0  0  0  0  0  0
   68.9855   46.7676   51.7657 C   0  0  0  0  0  0  0  0  0  0  0  0
   69.7276   47.9277   51.9941 C   0  0  0  0  0  0  0  0  0  0  0  0
   73.7003   50.9120   54.6070 C   0  0  0  0  0  0  0  0  0  0  0  0
   74.1623   50.2307   53.6692 O   0  0  0  0  0  0  0  0  0  0  0  0
   74.5920   51.5139   55.4667 O   0  0  0  0  0  0  0  0  0  0  0  0
   71.9908   51.5138   56.2162 C   0  0  0  0  0  0  0  0  0  0  0  0
   70.5945   51.8864   56.4334 C   0  0  0  0  0  0  0  0  0  0  0  0
   70.0635   53.1392   56.1993 C   0  0  0  0  0  0  0  0  0  0  0  0
   68.7635   53.1037   56.5122 N   0  0  0  0  0  0  0  0  0  0  0  0
   68.4589   51.8582   56.9375 C   0  0  0  0  0  0  0  0  0  0  0  0
   67.2739   51.3190   57.3666 C   0  0  0  0  0  0  0  0  0  0  0  0
   67.2036   50.0072   57.7563 C   0  0  0  0  0  0  0  0  0  0  0  0
   68.3559   49.2258   57.7118 C   0  0  0  0  0  0  0  0  0  0  0  0
   69.5690   49.7198   57.2886 C   0  0  0  0  0  0  0  0  0  0  0  0
   69.6031   51.0566   56.8994 C   0  0  0  0  0  0  0  0  0  0  0  0
  2  3  2  0
  3  4  1  0
  3  5  1  0
  4  1  1  0
  1 15  1  1
  1 12  1  0
 15 16  1  0
 16 17  2  0
 16 24  1  0
 17 18  1  0
 18 19  1  0
 19 20  1  0
 19 24  2  0
 20 21  2  0
 21 22  1  0
 22 23  2  0
 23 24  1  0
 12 13  2  0
 12 14  1  0
  5  6  2  0
  5 11  1  0
  6  7  1  0
  7  8  2  0
  8  9  1  0
  8 10  1  0
 10 11  2  0
M  END
>  <minimizedAffinity>  (359) 
-8.90593

$$$$
data/200k_reference_output/data/smiles/30978.pdb
     RDKit          3D

 26 27  0  0  0  0  0  0  0  0999 V2000
   69.4290   46.4188   57.8231 N   0  0  0  0  0  0  0  0  0  0  0  0
   70.1825   47.4695   57.2363 C   0  0  0  0  0  0  0  0  0  0  0  0
   71.3513   47.6791   57.5969 O   0  0  0  0  0  0  0  0  0  0  0  0
   69.9254   45.5810   58.8071 N   0  0  0  0  0  0  0  0  0  0  0  0
   70.2798   44.2655   58.6631 C   0  0  0  0  0  0  0  0  0  0  0  0
   71.9518   43.9894   58.7499 S   0  0  0  0  0  0  0  0  0  0  0  0
   68.7795   42.6492   57.4020 C   0  0  0  0  0  0  0  0  0  0  0  0
   68.6773   43.2970   56.3613 O   0  0  0  0  0  0  0  0  0  0  0  0
   69.5455   43.1101   58.4962 N   0  0  0  0  0  0  0  0  0  0  0  0
   68.9829   40.2465   57.9462 C   0  0  0  0  0  0  0  0  0  0  0  0
   68.0492   41.3424   57.4529 C   0  0  0  0  0  0  0  0  0  0  0  0
   66.9288   41.4676   58.4532 C   0  0  0  0  0  0  0  0  0  0  0  0
   67.5738   40.9411   56.0902 C   0  0  0  0  0  0  0  0  0  0  0  0
   69.5690   48.3106   56.1956 C   0  0  0  0  0  0  0  0  0  0  0  0
   68.5496   49.2521   56.7164 C   0  0  0  0  0  0  0  0  0  0  0  0
   68.6011   50.5887   56.3832 C   0  0  0  0  0  0  0  0  0  0  0  0
   67.6975   51.5177   56.8241 C   0  0  0  0  0  0  0  0  0  0  0  0
   66.6834   51.0905   57.6450 C   0  0  0  0  0  0  0  0  0  0  0  0
   66.5969   49.7577   58.0033 C   0  0  0  0  0  0  0  0  0  0  0  0
   67.5131   48.8609   57.5456 C   0  0  0  0  0  0  0  0  0  0  0  0
   69.0930   47.5682   55.0122 C   0  0  0  0  0  0  0  0  0  0  0  0
   68.3774   46.3975   55.1367 C   0  0  0  0  0  0  0  0  0  0  0  0
   67.9319   45.6935   54.0159 C   0  0  0  0  0  0  0  0  0  0  0  0
   68.1893   46.1435   52.7392 C   0  0  0  0  0  0  0  0  0  0  0  0
   68.9045   47.3137   52.6039 C   0  0  0  0  0  0  0  0  0  0  0  0
   69.3436   48.0070   53.7111 C   0  0  0  0  0  0  0  0  0  0  0  0
 10 11  1  0
 11 12  1  0
 11 13  1  0
 11  7  1  0
  7  8  2  0
  7  9  1  0
  9  5  1  0
  5  6  2  0
  5  4  1  0
  4  1  1  0
  1  2  1  0
  2  3  2  0
  2 14  1  0
 14 15  1  0
 14 21  1  0
 15 16  2  0
 15 20  1  0
 16 17  1  0
 17 18  2  0
 18 19  1  0
 19 20  2  0
 21 22  2  0
 21 26  1  0
 22 23  1  0
 23 24  2  0
 24 25  1  0
 25 26  2  0
M  END
>  <minimizedAffinity>  (360) 
-8.71232

$$$$
data/200k_reference_output/data/smiles/31149.pdb
     RDKit          3D

 24 26  0  0  0  0  0  0  0  0999 V2000
   70.2042   46.0318   58.9078 O   0  0  0  0  0  0  0  0  0  0  0  0
   69.8248   46.3954   57.7388 C   0  0  0  0  0  0  0  0  0  0  0  0
   69.4409   45.3173   56.9088 N   0  0  0  0  0  0  0  0  0  0  0  0
   69.4689   43.9908   57.3500 N   0  0  0  0  0  0  0  0  0  0  0  0
   68.7243   42.9463   56.7739 C   0  0  0  0  0  0  0  0  0  0  0  0
   67.9867   43.2356   55.7970 O   0  0  0  0  0  0  0  0  0  0  0  0
   68.7629   41.5651   57.2432 C   0  0  0  0  0  0  0  0  0  0  0  0
   67.8384   40.6448   56.7997 C   0  0  0  0  0  0  0  0  0  0  0  0
   67.8520   39.3524   57.2207 N   0  0  0  0  0  0  0  0  0  0  0  0
   68.7896   38.9398   58.0984 C   0  0  0  0  0  0  0  0  0  0  0  0
   69.7254   39.8425   58.5564 C   0  0  0  0  0  0  0  0  0  0  0  0
   69.6799   41.1141   58.1159 N   0  0  0  0  0  0  0  0  0  0  0  0
   69.8178   47.8240   57.3552 C   0  0  0  0  0  0  0  0  0  0  0  0
   68.9228   48.0562   56.3068 O   0  0  0  0  0  0  0  0  0  0  0  0
   69.2822   48.3170   54.9874 C   0  0  0  0  0  0  0  0  0  0  0  0
   70.1066   49.3707   54.6146 C   0  0  0  0  0  0  0  0  0  0  0  0
   70.4264   49.5693   53.2855 C   0  0  0  0  0  0  0  0  0  0  0  0
   69.9542   48.7508   52.2835 C   0  0  0  0  0  0  0  0  0  0  0  0
   69.1361   47.7042   52.6491 C   0  0  0  0  0  0  0  0  0  0  0  0
   68.6519   46.8700   51.6498 C   0  0  0  0  0  0  0  0  0  0  0  0
   67.8320   45.8135   51.9768 C   0  0  0  0  0  0  0  0  0  0  0  0
   67.5252   45.6333   53.3112 C   0  0  0  0  0  0  0  0  0  0  0  0
   67.9920   46.4463   54.3140 C   0  0  0  0  0  0  0  0  0  0  0  0
   68.8161   47.5047   53.9733 C   0  0  0  0  0  0  0  0  0  0  0  0
  1  2  2  0
  2 13  1  0
  2  3  1  0
 13 14  1  0
 14 15  1  0
 15 16  2  0
 15 24  1  0
 16 17  1  0
 17 18  2  0
 18 19  1  0
 19 20  1  0
 19 24  2  0
 20 21  2  0
 21 22  1  0
 22 23  2  0
 23 24  1  0
  3  4  1  0
  4  5  1  0
  5  6  2  0
  5  7  1  0
  7  8  2  0
  7 12  1  0
  8  9  1  0
  9 10  2  0
 10 11  1  0
 11 12  2  0
M  END
>  <minimizedAffinity>  (361) 
-8.84706

$$$$
data/200k_reference_output/data/smiles/31202.pdb
     RDKit          3D

 24 26  0  0  0  0  0  0  0  0999 V2000
   68.0876   41.9129   57.3186 C   0  0  0  0  0  0  0  0  0  0  0  0
   67.3881   42.3153   56.1983 C   0  0  0  0  0  0  0  0  0  0  0  0
   67.8525   43.5367   55.7493 C   0  0  0  0  0  0  0  0  0  0  0  0
   68.8311   43.8487   56.6179 N   0  0  0  0  0  0  0  0  0  0  0  0
   68.9745   42.8993   57.5427 N   0  0  0  0  0  0  0  0  0  0  0  0
   66.5868   39.3572   59.6575 C   0  0  0  0  0  0  0  0  0  0  0  0
   67.5591   38.3777   59.6197 C   0  0  0  0  0  0  0  0  0  0  0  0
   68.6909   38.5447   58.8450 C   0  0  0  0  0  0  0  0  0  0  0  0
   68.8544   39.6965   58.1043 C   0  0  0  0  0  0  0  0  0  0  0  0
   67.9129   40.7001   58.1102 C   0  0  0  0  0  0  0  0  0  0  0  0
   66.8042   40.4858   58.8972 C   0  0  0  0  0  0  0  0  0  0  0  0
   64.7097   37.9881   60.2469 C   0  0  0  0  0  0  0  0  0  0  0  0
   65.4557   39.1725   60.4398 O   0  0  0  0  0  0  0  0  0  0  0  0
   67.4185   44.3080   54.6382 N   0  0  0  0  0  0  0  0  0  0  0  0
   68.0407   45.5128   54.2198 C   0  0  0  0  0  0  0  0  0  0  0  0
   68.2519   45.7600   52.8580 C   0  0  0  0  0  0  0  0  0  0  0  0
   68.8402   46.9250   52.4012 C   0  0  0  0  0  0  0  0  0  0  0  0
   69.2442   47.8927   53.2876 C   0  0  0  0  0  0  0  0  0  0  0  0
   69.0375   47.6513   54.6263 C   0  0  0  0  0  0  0  0  0  0  0  0
   68.4441   46.4823   55.1047 C   0  0  0  0  0  0  0  0  0  0  0  0
   70.0076   49.3681   52.7509 S   0  0  0  0  0  0  0  0  0  0  0  0
   71.5681   49.5914   53.4412 N   0  0  0  0  0  0  0  0  0  0  0  0
   70.2103   49.3000   51.2397 O   0  0  0  0  0  0  0  0  0  0  0  0
   69.1732   50.5824   53.0841 O   0  0  0  0  0  0  0  0  0  0  0  0
 12 13  1  0
 13  6  1  0
  6  7  2  0
  6 11  1  0
  7  8  1  0
  8  9  2  0
  9 10  1  0
 10  1  1  0
 10 11  2  0
  1  2  1  0
  1  5  2  0
  2  3  2  0
  3 14  1  0
  3  4  1  0
 14 15  1  0
 15 16  2  0
 15 20  1  0
 16 17  1  0
 17 18  2  0
 18 21  1  0
 18 19  1  0
 21 22  1  0
 21 23  2  0
 21 24  2  0
 19 20  2  0
  4  5  1  0
M  END
>  <minimizedAffinity>  (362) 
-8.94094

$$$$
data/200k_reference_output/data/smiles/31296.pdb
     RDKit          3D

 31 33  0  0  0  0  0  0  0  0999 V2000
   69.6052   50.7127   56.1509 C   0  0  0  0  0  0  0  0  0  0  0  0
   69.7349   50.3070   57.4575 C   0  0  0  0  0  0  0  0  0  0  0  0
   69.5880   48.9772   57.7816 C   0  0  0  0  0  0  0  0  0  0  0  0
   69.3058   47.9992   56.8167 C   0  0  0  0  0  0  0  0  0  0  0  0
   69.1723   48.3825   55.5186 C   0  0  0  0  0  0  0  0  0  0  0  0
   69.3315   49.7572   55.2171 C   0  0  0  0  0  0  0  0  0  0  0  0
   68.7991   47.4788   54.4288 C   0  0  0  0  0  0  0  0  0  0  0  0
   68.1871   46.3479   54.5499 C   0  0  0  0  0  0  0  0  0  0  0  0
   67.8158   45.4351   53.4408 C   0  0  0  0  0  0  0  0  0  0  0  0
   67.8049   46.2080   52.1510 C   0  0  0  0  0  0  0  0  0  0  0  0
   69.2107   46.8196   52.0568 C   0  0  0  0  0  0  0  0  0  0  0  0
   69.2116   47.9348   53.0601 C   0  0  0  0  0  0  0  0  0  0  0  0
   69.0302   53.0488   56.7411 C   0  0  0  0  0  0  0  0  0  0  0  0
   69.7450   52.1579   55.7541 C   0  0  0  0  0  0  0  0  0  0  0  0
   69.1330   52.3090   54.4007 C   0  0  0  0  0  0  0  0  0  0  0  0
   71.1491   52.4825   55.7886 N   0  0  0  0  0  0  0  0  0  0  0  0
   71.9913   52.0436   54.7316 C   0  0  0  0  0  0  0  0  0  0  0  0
   71.6140   51.3831   53.7430 O   0  0  0  0  0  0  0  0  0  0  0  0
   73.4171   52.3846   54.7949 C   0  0  0  0  0  0  0  0  0  0  0  0
   74.2288   52.1240   55.9214 N   0  0  0  0  0  0  0  0  0  0  0  0
   73.9885   52.9490   53.7985 O   0  0  0  0  0  0  0  0  0  0  0  0
   69.2526   46.6533   57.2726 N   0  0  0  0  0  0  0  0  0  0  0  0
   70.3869   46.0008   57.8316 C   0  0  0  0  0  0  0  0  0  0  0  0
   71.4685   46.6295   57.9230 O   0  0  0  0  0  0  0  0  0  0  0  0
   70.3798   44.6182   58.3147 C   0  0  0  0  0  0  0  0  0  0  0  0
   71.0449   43.5763   57.8366 N   0  0  0  0  0  0  0  0  0  0  0  0
   70.7548   42.5071   58.5878 C   0  0  0  0  0  0  0  0  0  0  0  0
   69.8788   42.9178   59.5608 C   0  0  0  0  0  0  0  0  0  0  0  0
   69.6638   44.2251   59.3688 N   0  0  0  0  0  0  0  0  0  0  0  0
   71.2563   41.1505   58.4049 C   0  0  0  0  0  0  0  0  0  0  0  0
   71.6664   40.0742   58.2505 N   0  0  0  0  0  0  0  0  0  0  0  0
 13 14  1  0
 14 15  1  0
 14 16  1  0
 14  1  1  0
 16 17  1  0
 17 18  2  0
 17 19  1  0
 19 20  1  0
 19 21  2  0
  1  2  2  0
  1  6  1  0
  2  3  1  0
  3  4  2  0
  4 22  1  0
  4  5  1  0
 22 23  1  0
 23 24  2  0
 23 25  1  0
 25 26  2  0
 25 29  1  0
 26 27  1  0
 27 30  1  0
 27 28  2  0
 30 31  3  0
 28 29  1  0
  5  7  1  0
  5  6  2  0
  7  8  2  0
  7 12  1  0
  8  9  1  0
  9 10  1  0
 10 11  1  0
 11 12  1  0
M  CHG  1  26   1
M  END
>  <minimizedAffinity>  (363) 
-8.65510

$$$$
data/200k_reference_output/data/smiles/31416.pdb
     RDKit          3D

 23 25  0  0  0  0  0  0  0  0999 V2000
   68.2582   45.0992   55.8334 N   0  0  0  0  0  0  0  0  0  0  0  0
   68.6242   46.1838   55.5582 C   0  0  0  0  0  0  0  0  0  0  0  0
   68.3524   46.7293   54.1959 C   0  0  0  0  0  0  0  0  0  0  0  0
   69.2810   47.8027   54.0348 C   0  0  0  0  0  0  0  0  0  0  0  0
   69.6689   48.0933   52.7249 C   0  0  0  0  0  0  0  0  0  0  0  0
   69.1561   47.3787   51.6511 C   0  0  0  0  0  0  0  0  0  0  0  0
   68.2400   46.3789   51.8484 C   0  0  0  0  0  0  0  0  0  0  0  0
   67.8579   46.0739   53.1875 C   0  0  0  0  0  0  0  0  0  0  0  0
   70.1173   43.9901   56.7608 O   0  0  0  0  0  0  0  0  0  0  0  0
   69.0866   43.2125   56.7948 C   0  0  0  0  0  0  0  0  0  0  0  0
   67.8781   43.8940   56.2346 N   0  0  0  0  0  0  0  0  0  0  0  0
   69.2186   41.9172   57.3116 C   0  0  0  0  0  0  0  0  0  0  0  0
   68.1440   41.0034   57.0353 C   0  0  0  0  0  0  0  0  0  0  0  0
   68.1032   39.7691   57.5243 C   0  0  0  0  0  0  0  0  0  0  0  0
   69.1086   39.3232   58.3248 C   0  0  0  0  0  0  0  0  0  0  0  0
   70.1704   40.1559   58.6128 C   0  0  0  0  0  0  0  0  0  0  0  0
   70.2050   41.4279   58.1052 C   0  0  0  0  0  0  0  0  0  0  0  0
   69.1922   46.8585   56.7218 C   0  0  0  0  0  0  0  0  0  0  0  0
   68.1360   47.8882   57.1370 C   0  0  0  0  0  0  0  0  0  0  0  0
   66.9522   48.0287   57.5153 N   0  0  0  0  0  0  0  0  0  0  0  0
   66.6895   49.3195   57.8732 C   0  0  0  0  0  0  0  0  0  0  0  0
   67.8558   50.0067   57.6801 C   0  0  0  0  0  0  0  0  0  0  0  0
   68.7579   49.1818   57.2348 N   0  0  0  0  0  0  0  0  0  0  0  0
  9 10  2  0
 10 11  1  0
 10 12  1  0
 11  1  1  0
  1  2  2  0
  2 18  1  0
  2  3  1  0
 18 19  1  0
 19 20  2  0
 19 23  1  0
 20 21  1  0
 21 22  2  0
 22 23  1  0
  3  4  2  0
  3  8  1  0
  4  5  1  0
  5  6  2  0
  6  7  1  0
  7  8  2  0
 12 13  2  0
 12 17  1  0
 13 14  1  0
 14 15  2  0
 15 16  1  0
 16 17  2  0
M  CHG  1  20   1
M  END
>  <minimizedAffinity>  (364) 
-8.86082

$$$$
data/200k_reference_output/data/smiles/31533.pdb
     RDKit          3D

 24 27  0  0  0  0  0  0  0  0999 V2000
   71.1276   46.5790   58.2345 C   0  0  0  0  0  0  0  0  0  0  0  0
   71.7302   47.4937   59.0724 C   0  0  0  0  0  0  0  0  0  0  0  0
   71.3974   48.8263   59.0334 C   0  0  0  0  0  0  0  0  0  0  0  0
   70.4281   49.2606   58.1263 C   0  0  0  0  0  0  0  0  0  0  0  0
   69.8017   48.3981   57.2759 C   0  0  0  0  0  0  0  0  0  0  0  0
   70.1824   47.0498   57.3603 C   0  0  0  0  0  0  0  0  0  0  0  0
   69.6671   44.4722   59.4550 O   0  0  0  0  0  0  0  0  0  0  0  0
   70.7766   44.1945   58.9465 C   0  0  0  0  0  0  0  0  0  0  0  0
   71.5199   45.2211   58.3353 N   0  0  0  0  0  0  0  0  0  0  0  0
   71.3091   42.7888   58.9863 C   0  0  0  0  0  0  0  0  0  0  0  0
   70.8061   41.9243   57.7908 C   0  0  0  0  0  0  0  0  0  0  0  0
   72.2316   42.3409   57.9024 C   0  0  0  0  0  0  0  0  0  0  0  0
   68.7598   48.7834   56.2648 C   0  0  0  0  0  0  0  0  0  0  0  0
   69.2258   48.7035   54.8785 C   0  0  0  0  0  0  0  0  0  0  0  0
   70.0808   49.6581   54.3950 N   0  0  0  0  0  0  0  0  0  0  0  0
   70.5177   49.7133   53.1653 N   0  0  0  0  0  0  0  0  0  0  0  0
   70.1373   48.7958   52.2596 C   0  0  0  0  0  0  0  0  0  0  0  0
   70.5471   48.8362   51.0741 O   0  0  0  0  0  0  0  0  0  0  0  0
   69.2792   47.8077   52.6841 C   0  0  0  0  0  0  0  0  0  0  0  0
   68.8527   46.8089   51.8190 C   0  0  0  0  0  0  0  0  0  0  0  0
   68.0132   45.7992   52.2150 C   0  0  0  0  0  0  0  0  0  0  0  0
   67.5639   45.7479   53.4993 C   0  0  0  0  0  0  0  0  0  0  0  0
   67.9621   46.7271   54.4044 C   0  0  0  0  0  0  0  0  0  0  0  0
   68.8051   47.7405   54.0021 C   0  0  0  0  0  0  0  0  0  0  0  0
  7  8  2  0
  8  9  1  0
  8 10  1  0
  9  1  1  0
  1  2  2  0
  1  6  1  0
  2  3  1  0
  3  4  2  0
  4  5  1  0
  5 13  1  0
  5  6  2  0
 13 14  1  0
 14 15  2  0
 14 24  1  0
 15 16  1  0
 16 17  1  0
 17 18  2  0
 17 19  1  0
 19 20  1  0
 19 24  2  0
 20 21  2  0
 21 22  1  0
 22 23  2  0
 23 24  1  0
 10 11  1  0
 10 12  1  0
 11 12  1  0
M  END
>  <minimizedAffinity>  (365) 
-8.89151

$$$$
data/200k_reference_output/data/smiles/31612.pdb
     RDKit          3D

 21 23  0  0  0  0  0  0  0  0999 V2000
   70.2003   50.9450   56.4652 C   0  0  0  0  0  0  0  0  0  0  0  0
   70.7824   50.2013   55.4697 C   0  0  0  0  0  0  0  0  0  0  0  0
   70.4350   50.2919   54.1282 C   0  0  0  0  0  0  0  0  0  0  0  0
   69.4490   51.1828   53.7930 C   0  0  0  0  0  0  0  0  0  0  0  0
   68.8320   51.9524   54.7509 C   0  0  0  0  0  0  0  0  0  0  0  0
   69.2049   51.8385   56.0954 C   0  0  0  0  0  0  0  0  0  0  0  0
   68.6092   52.5832   57.0373 F   0  0  0  0  0  0  0  0  0  0  0  0
   71.7182   49.3081   58.2137 C   0  0  0  0  0  0  0  0  0  0  0  0
   70.7048   50.7841   58.1500 S   0  0  0  0  0  0  0  0  0  0  0  0
   71.4765   51.9784   58.6135 O   0  0  0  0  0  0  0  0  0  0  0  0
   69.4626   50.5502   58.9567 O   0  0  0  0  0  0  0  0  0  0  0  0
   71.1072   49.4879   53.1330 N   0  0  0  0  0  0  0  0  0  0  0  0
   70.3564   48.4743   52.4802 C   0  0  0  0  0  0  0  0  0  0  0  0
   70.3379   48.1377   51.1814 N   0  0  0  0  0  0  0  0  0  0  0  0
   69.4796   47.1347   50.9805 N   0  0  0  0  0  0  0  0  0  0  0  0
   68.8968   46.7657   52.1209 C   0  0  0  0  0  0  0  0  0  0  0  0
   67.9553   45.8164   52.4760 C   0  0  0  0  0  0  0  0  0  0  0  0
   67.5933   45.7476   53.8041 C   0  0  0  0  0  0  0  0  0  0  0  0
   68.1434   46.5953   54.7677 C   0  0  0  0  0  0  0  0  0  0  0  0
   69.0538   47.4976   54.3644 N   0  0  0  0  0  0  0  0  0  0  0  0
   69.4414   47.6057   53.0855 C   0  0  0  0  0  0  0  0  0  0  0  0
  8  9  1  0
  9 10  2  0
  9 11  2  0
  9  1  1  0
  1  2  2  0
  1  6  1  0
  2  3  1  0
  3 12  1  0
  3  4  2  0
 12 13  1  0
 13 14  2  0
 13 21  1  0
 14 15  1  0
 15 16  1  0
 16 17  1  0
 16 21  2  0
 17 18  2  0
 18 19  1  0
 19 20  2  0
 20 21  1  0
  4  5  1  0
  5  6  2  0
  6  7  1  0
M  END
>  <minimizedAffinity>  (366) 
-8.50005

$$$$
data/200k_reference_output/data/smiles/31615.pdb
     RDKit          3D

 20 21  0  0  0  0  0  0  0  0999 V2000
   69.9383   49.1753   52.4772 S   0  0  0  0  0  0  0  0  0  0  0  0
   69.9585   49.5725   51.0112 O   0  0  0  0  0  0  0  0  0  0  0  0
   71.3689   49.0333   52.8957 O   0  0  0  0  0  0  0  0  0  0  0  0
   68.2541   45.8238   53.9913 C   0  0  0  0  0  0  0  0  0  0  0  0
   67.6508   45.3425   52.8698 C   0  0  0  0  0  0  0  0  0  0  0  0
   67.7065   45.9611   51.6401 C   0  0  0  0  0  0  0  0  0  0  0  0
   68.4219   47.1446   51.5538 C   0  0  0  0  0  0  0  0  0  0  0  0
   69.0528   47.6794   52.6560 C   0  0  0  0  0  0  0  0  0  0  0  0
   68.9629   47.0178   53.8558 C   0  0  0  0  0  0  0  0  0  0  0  0
   68.5946   45.8879   56.3169 N   0  0  0  0  0  0  0  0  0  0  0  0
   68.2173   45.2007   55.3010 C   0  0  0  0  0  0  0  0  0  0  0  0
   67.7807   43.8704   55.4758 N   0  0  0  0  0  0  0  0  0  0  0  0
   69.1143   50.4004   53.3295 N   0  0  0  0  0  0  0  0  0  0  0  0
   69.7734   50.8281   54.5213 C   0  0  0  0  0  0  0  0  0  0  0  0
   68.8967   50.5521   55.6842 C   0  0  0  0  0  0  0  0  0  0  0  0
   68.0767   51.5457   56.1583 C   0  0  0  0  0  0  0  0  0  0  0  0
   67.2400   51.3236   57.2474 C   0  0  0  0  0  0  0  0  0  0  0  0
   67.2337   50.0833   57.8608 C   0  0  0  0  0  0  0  0  0  0  0  0
   68.0449   49.0806   57.4014 C   0  0  0  0  0  0  0  0  0  0  0  0
   68.8713   49.3375   56.3070 C   0  0  0  0  0  0  0  0  0  0  0  0
 10 11  2  0
 11 12  1  0
 11  4  1  0
  4  5  2  0
  4  9  1  0
  5  6  1  0
  6  7  2  0
  7  8  1  0
  8  1  1  0
  8  9  2  0
  1  2  2  0
  1  3  2  0
  1 13  1  0
 13 14  1  0
 14 15  1  0
 15 16  2  0
 15 20  1  0
 16 17  1  0
 17 18  2  0
 18 19  1  0
 19 20  2  0
M  CHG  1  10   1
M  END
>  <minimizedAffinity>  (367) 
-8.61097

$$$$
data/200k_reference_output/data/smiles/31625.pdb
     RDKit          3D

 24 25  0  0  0  0  0  0  0  0999 V2000
   70.3085   42.5704   57.3318 C   0  0  0  0  0  0  0  0  0  0  0  0
   69.4144   43.7261   57.4472 C   0  0  0  0  0  0  0  0  0  0  0  0
   69.7093   44.6030   58.3300 O   0  0  0  0  0  0  0  0  0  0  0  0
   68.2876   43.9851   56.7118 O   0  0  0  0  0  0  0  0  0  0  0  0
   68.3587   44.4231   55.4067 N   0  0  0  0  0  0  0  0  0  0  0  0
   68.2932   45.6970   55.1234 C   0  0  0  0  0  0  0  0  0  0  0  0
   68.1472   46.5655   56.2314 N   0  0  0  0  0  0  0  0  0  0  0  0
   68.3637   46.2059   53.7673 C   0  0  0  0  0  0  0  0  0  0  0  0
   67.6260   45.5814   52.7844 C   0  0  0  0  0  0  0  0  0  0  0  0
   67.6646   46.0386   51.4608 C   0  0  0  0  0  0  0  0  0  0  0  0
   68.4345   47.1078   51.1392 N   0  0  0  0  0  0  0  0  0  0  0  0
   69.1585   47.7275   52.0866 C   0  0  0  0  0  0  0  0  0  0  0  0
   69.1273   47.2772   53.4141 C   0  0  0  0  0  0  0  0  0  0  0  0
   70.3866   41.7560   58.4510 O   0  0  0  0  0  0  0  0  0  0  0  0
   71.9085   37.8188   58.6211 C   0  0  0  0  0  0  0  0  0  0  0  0
   70.5745   38.0842   58.3466 C   0  0  0  0  0  0  0  0  0  0  0  0
   70.0887   39.3738   58.2941 C   0  0  0  0  0  0  0  0  0  0  0  0
   70.9040   40.4712   58.5119 C   0  0  0  0  0  0  0  0  0  0  0  0
   72.2306   40.2112   58.7841 C   0  0  0  0  0  0  0  0  0  0  0  0
   72.7197   38.9135   58.8375 C   0  0  0  0  0  0  0  0  0  0  0  0
   73.7374   36.3572   59.4503 C   0  0  0  0  0  0  0  0  0  0  0  0
   72.4401   36.4328   58.6805 C   0  0  0  0  0  0  0  0  0  0  0  0
   72.6985   35.8964   57.2763 C   0  0  0  0  0  0  0  0  0  0  0  0
   71.4479   35.4820   59.3285 C   0  0  0  0  0  0  0  0  0  0  0  0
 21 22  1  0
 22 23  1  0
 22 24  1  0
 22 15  1  0
 15 16  2  0
 15 20  1  0
 16 17  1  0
 17 18  2  0
 18 14  1  0
 18 19  1  0
 14  1  1  0
  1  2  1  0
  2  3  2  0
  2  4  1  0
  4  5  1  0
  5  6  2  0
  6  7  1  0
  6  8  1  0
  8  9  2  0
  8 13  1  0
  9 10  1  0
 10 11  2  0
 11 12  1  0
 12 13  2  0
 19 20  2  0
M  CHG  1   5   1
M  END
>  <minimizedAffinity>  (368) 
-8.64615

$$$$
data/200k_reference_output/data/smiles/31695.pdb
     RDKit          3D

 20 22  0  0  0  0  0  0  0  0999 V2000
   68.8457   47.4974   56.1643 N   0  0  0  0  0  0  0  0  0  0  0  0
   68.3134   48.7331   56.5671 C   0  0  0  0  0  0  0  0  0  0  0  0
   67.3589   48.7030   57.6045 C   0  0  0  0  0  0  0  0  0  0  0  0
   66.8269   49.8835   58.0252 C   0  0  0  0  0  0  0  0  0  0  0  0
   67.2024   51.0896   57.4594 C   0  0  0  0  0  0  0  0  0  0  0  0
   68.1366   51.0984   56.4488 C   0  0  0  0  0  0  0  0  0  0  0  0
   68.5276   52.2855   55.8730 C   0  0  0  0  0  0  0  0  0  0  0  0
   69.4500   52.3738   54.8677 C   0  0  0  0  0  0  0  0  0  0  0  0
   70.0107   51.1744   54.4184 C   0  0  0  0  0  0  0  0  0  0  0  0
   69.6443   49.9868   54.9711 C   0  0  0  0  0  0  0  0  0  0  0  0
   68.7118   49.9208   55.9821 C   0  0  0  0  0  0  0  0  0  0  0  0
   68.4198   46.5986   55.2372 N   0  0  0  0  0  0  0  0  0  0  0  0
   66.8062   45.4358   51.0051 O   0  0  0  0  0  0  0  0  0  0  0  0
   67.6456   46.1208   51.6708 C   0  0  0  0  0  0  0  0  0  0  0  0
   67.5753   45.9770   53.0697 C   0  0  0  0  0  0  0  0  0  0  0  0
   68.4904   46.7248   53.8012 C   0  0  0  0  0  0  0  0  0  0  0  0
   69.3518   47.5070   53.2093 N   0  0  0  0  0  0  0  0  0  0  0  0
   69.4170   47.6422   51.8801 C   0  0  0  0  0  0  0  0  0  0  0  0
   70.2299   48.3802   51.2831 O   0  0  0  0  0  0  0  0  0  0  0  0
   68.5314   46.9220   51.1198 N   0  0  0  0  0  0  0  0  0  0  0  0
 13 14  2  0
 14 15  1  0
 14 20  1  0
 15 16  2  0
 16 12  1  0
 16 17  1  0
 12  1  1  0
  1  2  1  0
  2  3  2  0
  2 11  1  0
  3  4  1  0
  4  5  2  0
  5  6  1  0
  6  7  1  0
  6 11  2  0
  7  8  2  0
  8  9  1  0
  9 10  2  0
 10 11  1  0
 17 18  1  0
 18 19  2  0
 18 20  1  0
M  END
>  <minimizedAffinity>  (369) 
-8.67207

$$$$
data/200k_reference_output/data/smiles/31753.pdb
     RDKit          3D

 25 28  0  0  0  0  0  0  0  0999 V2000
   68.4809   46.9844   55.5432 C   0  0  0  0  0  0  0  0  0  0  0  0
   67.2471   47.3180   56.1170 O   0  0  0  0  0  0  0  0  0  0  0  0
   68.3948   46.8183   54.0930 C   0  0  0  0  0  0  0  0  0  0  0  0
   67.7254   45.9362   53.2828 C   0  0  0  0  0  0  0  0  0  0  0  0
   67.8104   45.9890   51.9017 C   0  0  0  0  0  0  0  0  0  0  0  0
   68.5964   46.9638   51.3209 C   0  0  0  0  0  0  0  0  0  0  0  0
   69.2641   47.8450   52.1442 C   0  0  0  0  0  0  0  0  0  0  0  0
   69.1822   47.7965   53.5352 C   0  0  0  0  0  0  0  0  0  0  0  0
   69.7907   48.6097   54.5783 C   0  0  0  0  0  0  0  0  0  0  0  0
   70.6583   49.7093   54.5281 C   0  0  0  0  0  0  0  0  0  0  0  0
   71.0868   50.3003   55.6968 C   0  0  0  0  0  0  0  0  0  0  0  0
   70.6547   49.7986   56.9052 C   0  0  0  0  0  0  0  0  0  0  0  0
   69.8064   48.7234   56.9348 C   0  0  0  0  0  0  0  0  0  0  0  0
   69.3742   48.1282   55.7825 C   0  0  0  0  0  0  0  0  0  0  0  0
   68.3372   44.5132   56.1827 N   0  0  0  0  0  0  0  0  0  0  0  0
   68.9865   45.7747   56.2331 C   0  0  0  0  0  0  0  0  0  0  0  0
   70.0405   45.8514   56.9002 O   0  0  0  0  0  0  0  0  0  0  0  0
   68.2564   42.2308   56.7961 C   0  0  0  0  0  0  0  0  0  0  0  0
   68.8049   43.3714   56.8276 N   0  0  0  0  0  0  0  0  0  0  0  0
   71.3741   39.1509   59.1342 C   0  0  0  0  0  0  0  0  0  0  0  0
   70.1291   39.6993   58.4998 C   0  0  0  0  0  0  0  0  0  0  0  0
   68.9373   39.0082   58.4255 C   0  0  0  0  0  0  0  0  0  0  0  0
   68.0793   39.8751   57.7739 C   0  0  0  0  0  0  0  0  0  0  0  0
   68.7576   41.0383   57.4776 C   0  0  0  0  0  0  0  0  0  0  0  0
   69.9742   40.8699   57.9370 O   0  0  0  0  0  0  0  0  0  0  0  0
 20 21  1  0
 21 22  2  0
 21 25  1  0
 22 23  1  0
 23 24  2  0
 24 18  1  0
 24 25  1  0
 18 19  2  0
 19 15  1  0
 15 16  1  0
 16 17  2  0
 16  1  1  0
  1  2  1  0
  1  3  1  0
  1 14  1  0
  3  4  2  0
  3  8  1  0
  4  5  1  0
  5  6  2  0
  6  7  1  0
  7  8  2  0
  8  9  1  0
  9 10  2  0
  9 14  1  0
 10 11  1  0
 11 12  2  0
 12 13  1  0
 13 14  2  0
M  END
>  <minimizedAffinity>  (370) 
-8.60366

$$$$
data/200k_reference_output/data/smiles/31781.pdb
     RDKit          3D

 23 24  0  0  0  0  0  0  0  0999 V2000
   71.1947   49.6566   53.3698 N   0  0  0  0  0  0  0  0  0  0  0  0
   71.9034   51.4385   54.8611 C   0  0  0  0  0  0  0  0  0  0  0  0
   71.5540   52.5373   55.5957 C   0  0  0  0  0  0  0  0  0  0  0  0
   70.2693   53.0391   55.6623 C   0  0  0  0  0  0  0  0  0  0  0  0
   69.9677   54.1195   56.3953 F   0  0  0  0  0  0  0  0  0  0  0  0
   69.2614   52.4169   54.9557 C   0  0  0  0  0  0  0  0  0  0  0  0
   69.5991   51.3076   54.2100 C   0  0  0  0  0  0  0  0  0  0  0  0
   70.9043   50.8058   54.1488 C   0  0  0  0  0  0  0  0  0  0  0  0
   74.5835   52.1486   55.2929 N   0  0  0  0  0  0  0  0  0  0  0  0
   73.5641   50.8627   54.8296 S   0  0  0  0  0  0  0  0  0  0  0  0
   73.7556   49.7276   55.8153 O   0  0  0  0  0  0  0  0  0  0  0  0
   73.8808   50.3317   53.4645 O   0  0  0  0  0  0  0  0  0  0  0  0
   70.0913   48.9281   52.2959 S   0  0  0  0  0  0  0  0  0  0  0  0
   69.1454   49.9571   51.7292 O   0  0  0  0  0  0  0  0  0  0  0  0
   70.8787   48.4135   51.0963 O   0  0  0  0  0  0  0  0  0  0  0  0
   69.1833   47.6358   53.0233 C   0  0  0  0  0  0  0  0  0  0  0  0
   69.1446   47.5298   54.3911 C   0  0  0  0  0  0  0  0  0  0  0  0
   68.4142   46.5020   55.0016 C   0  0  0  0  0  0  0  0  0  0  0  0
   67.7394   45.6029   54.2253 C   0  0  0  0  0  0  0  0  0  0  0  0
   67.7622   45.6865   52.8487 C   0  0  0  0  0  0  0  0  0  0  0  0
   67.0791   44.7743   52.1162 F   0  0  0  0  0  0  0  0  0  0  0  0
   68.4924   46.7145   52.2757 C   0  0  0  0  0  0  0  0  0  0  0  0
   68.5022   46.7805   50.9221 F   0  0  0  0  0  0  0  0  0  0  0  0
  9 10  1  0
 10 11  2  0
 10 12  2  0
 10  2  1  0
  2  3  2  0
  2  8  1  0
  3  4  1  0
  4  5  1  0
  4  6  2  0
  6  7  1  0
  7  8  2  0
  8  1  1  0
  1 13  1  0
 13 14  2  0
 13 15  2  0
 13 16  1  0
 16 17  2  0
 16 22  1  0
 17 18  1  0
 18 19  2  0
 19 20  1  0
 20 21  1  0
 20 22  2  0
 22 23  1  0
M  END
>  <minimizedAffinity>  (371) 
-9.33028

$$$$
data/200k_reference_output/data/smiles/31821.pdb
     RDKit          3D

 22 24  0  0  0  0  0  0  0  0999 V2000
   69.0230   47.9303   56.8530 S   0  0  0  0  0  0  0  0  0  0  0  0
   67.6670   47.2429   56.9449 O   0  0  0  0  0  0  0  0  0  0  0  0
   68.9085   49.1809   57.6659 O   0  0  0  0  0  0  0  0  0  0  0  0
   69.3545   48.2553   55.1740 C   0  0  0  0  0  0  0  0  0  0  0  0
   70.1209   49.3366   54.7943 C   0  0  0  0  0  0  0  0  0  0  0  0
   70.4077   49.6311   53.4834 C   0  0  0  0  0  0  0  0  0  0  0  0
   69.9132   48.8134   52.4736 C   0  0  0  0  0  0  0  0  0  0  0  0
   70.2034   49.1082   51.1103 N   0  0  0  0  0  0  0  0  0  0  0  0
   69.1394   47.7175   52.8282 C   0  0  0  0  0  0  0  0  0  0  0  0
   68.6530   46.9128   51.8189 C   0  0  0  0  0  0  0  0  0  0  0  0
   67.8771   45.8089   52.1181 C   0  0  0  0  0  0  0  0  0  0  0  0
   67.6211   45.5616   53.4497 C   0  0  0  0  0  0  0  0  0  0  0  0
   68.0965   46.3528   54.4749 C   0  0  0  0  0  0  0  0  0  0  0  0
   68.8644   47.4439   54.1728 C   0  0  0  0  0  0  0  0  0  0  0  0
   70.1758   46.8363   57.4759 N   0  0  0  0  0  0  0  0  0  0  0  0
   70.7268   41.9014   58.0632 C   0  0  0  0  0  0  0  0  0  0  0  0
   70.2207   43.2536   57.6795 C   0  0  0  0  0  0  0  0  0  0  0  0
   69.1014   43.5083   56.9653 N   0  0  0  0  0  0  0  0  0  0  0  0
   68.9718   44.7914   56.8214 O   0  0  0  0  0  0  0  0  0  0  0  0
   69.9381   45.4379   57.3952 C   0  0  0  0  0  0  0  0  0  0  0  0
   70.7656   44.4805   57.9607 C   0  0  0  0  0  0  0  0  0  0  0  0
   72.0107   44.6869   58.7306 C   0  0  0  0  0  0  0  0  0  0  0  0
 16 17  1  0
 17 18  2  0
 17 21  1  0
 18 19  1  0
 19 20  1  0
 20 15  1  0
 20 21  2  0
 15  1  1  0
  1  2  2  0
  1  3  2  0
  1  4  1  0
  4  5  2  0
  4 14  1  0
  5  6  1  0
  6  7  2  0
  7  8  1  0
  7  9  1  0
  9 10  1  0
  9 14  2  0
 10 11  2  0
 11 12  1  0
 12 13  2  0
 13 14  1  0
 21 22  1  0
M  END
>  <minimizedAffinity>  (372) 
-9.11699

$$$$
data/200k_reference_output/data/smiles/31962.pdb
     RDKit          3D

 24 28  0  0  0  0  0  0  0  0999 V2000
   70.5500   48.1104   50.8764 O   0  0  0  0  0  0  0  0  0  0  0  0
   70.2274   48.3686   52.0671 C   0  0  0  0  0  0  0  0  0  0  0  0
   70.7866   49.3959   52.7114 N   0  0  0  0  0  0  0  0  0  0  0  0
   70.4031   49.6296   53.9930 C   0  0  0  0  0  0  0  0  0  0  0  0
   70.8588   50.6313   54.8218 C   0  0  0  0  0  0  0  0  0  0  0  0
   70.1799   50.4518   56.0033 C   0  0  0  0  0  0  0  0  0  0  0  0
   70.2469   51.1740   57.1811 C   0  0  0  0  0  0  0  0  0  0  0  0
   69.4843   50.8396   58.2624 C   0  0  0  0  0  0  0  0  0  0  0  0
   68.6465   49.7561   58.1351 C   0  0  0  0  0  0  0  0  0  0  0  0
   68.5568   49.0042   56.9528 C   0  0  0  0  0  0  0  0  0  0  0  0
   69.3228   49.3478   55.8801 C   0  0  0  0  0  0  0  0  0  0  0  0
   69.4813   48.8540   54.6210 N   0  0  0  0  0  0  0  0  0  0  0  0
   68.9029   47.8127   53.9941 C   0  0  0  0  0  0  0  0  0  0  0  0
   67.9648   46.9918   54.5703 C   0  0  0  0  0  0  0  0  0  0  0  0
   67.3800   45.9132   53.8890 C   0  0  0  0  0  0  0  0  0  0  0  0
   67.7661   45.6743   52.5919 C   0  0  0  0  0  0  0  0  0  0  0  0
   68.7079   46.5011   52.0154 C   0  0  0  0  0  0  0  0  0  0  0  0
   69.2847   47.5630   52.6859 C   0  0  0  0  0  0  0  0  0  0  0  0
   71.8744   51.6926   54.5163 C   0  0  0  0  0  0  0  0  0  0  0  0
   73.2524   51.2234   54.7577 C   0  0  0  0  0  0  0  0  0  0  0  0
   74.1202   51.5653   55.7458 N   0  0  0  0  0  0  0  0  0  0  0  0
   75.2321   50.8870   55.5486 N   0  0  0  0  0  0  0  0  0  0  0  0
   75.1165   50.1214   54.4714 N   0  0  0  0  0  0  0  0  0  0  0  0
   73.9073   50.3268   53.9899 N   0  0  0  0  0  0  0  0  0  0  0  0
  1  2  2  0
  2  3  1  0
  2 18  1  0
  3  4  1  0
  4  5  2  0
  4 12  1  0
  5 19  1  0
  5  6  1  0
 19 20  1  0
 20 21  2  0
 20 24  1  0
 21 22  1  0
 22 23  2  0
 23 24  1  0
  6  7  2  0
  6 11  1  0
  7  8  1  0
  8  9  2  0
  9 10  1  0
 10 11  2  0
 11 12  1  0
 12 13  1  0
 13 14  1  0
 13 18  2  0
 14 15  2  0
 15 16  1  0
 16 17  2  0
 17 18  1  0
M  END
>  <minimizedAffinity>  (373) 
-9.34018

$$$$
data/200k_reference_output/data/smiles/32016.pdb
     RDKit          3D

 23 25  0  0  0  0  0  0  0  0999 V2000
   69.2137   43.7429   56.9779 N   0  0  0  0  0  0  0  0  0  0  0  0
   68.7428   42.5486   57.0301 C   0  0  0  0  0  0  0  0  0  0  0  0
   67.5227   42.0865   56.4502 C   0  0  0  0  0  0  0  0  0  0  0  0
   66.6605   42.7499   55.8108 O   0  0  0  0  0  0  0  0  0  0  0  0
   67.4372   40.6817   56.7285 N   0  0  0  0  0  0  0  0  0  0  0  0
   68.5682   40.2687   57.4646 C   0  0  0  0  0  0  0  0  0  0  0  0
   68.9687   39.0420   57.9744 C   0  0  0  0  0  0  0  0  0  0  0  0
   70.1401   38.8943   58.6718 C   0  0  0  0  0  0  0  0  0  0  0  0
   70.6202   37.3152   59.2998 Cl  0  0  0  0  0  0  0  0  0  0  0  0
   70.9601   39.9776   58.8829 C   0  0  0  0  0  0  0  0  0  0  0  0
   70.5504   41.2062   58.3671 C   0  0  0  0  0  0  0  0  0  0  0  0
   69.3757   41.3677   57.6651 C   0  0  0  0  0  0  0  0  0  0  0  0
   70.0239   46.4805   57.0597 O   0  0  0  0  0  0  0  0  0  0  0  0
   69.0136   46.1623   56.3796 C   0  0  0  0  0  0  0  0  0  0  0  0
   68.6147   44.8216   56.3345 N   0  0  0  0  0  0  0  0  0  0  0  0
   68.1980   47.1424   55.6018 C   0  0  0  0  0  0  0  0  0  0  0  0
   68.7921   47.4399   54.2731 C   0  0  0  0  0  0  0  0  0  0  0  0
   69.5965   48.5919   54.1864 C   0  0  0  0  0  0  0  0  0  0  0  0
   70.2038   48.9426   53.0165 C   0  0  0  0  0  0  0  0  0  0  0  0
   70.0401   48.1669   51.8842 C   0  0  0  0  0  0  0  0  0  0  0  0
   70.6945   48.5660   50.6917 O   0  0  0  0  0  0  0  0  0  0  0  0
   69.2603   47.0436   51.9568 C   0  0  0  0  0  0  0  0  0  0  0  0
   68.6309   46.6692   53.1432 C   0  0  0  0  0  0  0  0  0  0  0  0
 13 14  2  0
 14 16  1  0
 14 15  1  0
 16 17  1  0
 17 18  2  0
 17 23  1  0
 18 19  1  0
 19 20  2  0
 20 21  1  0
 20 22  1  0
 22 23  2  0
 15  1  1  0
  1  2  2  0
  2  3  1  0
  2 12  1  0
  3  4  2  0
  3  5  1  0
  5  6  1  0
  6  7  1  0
  6 12  2  0
  7  8  2  0
  8  9  1  0
  8 10  1  0
 10 11  2  0
 11 12  1  0
M  END
>  <minimizedAffinity>  (374) 
-8.93918

$$$$
data/200k_reference_output/data/smiles/32041.pdb
     RDKit          3D

 30 32  0  0  0  0  0  0  0  0999 V2000
   71.1348   45.7445   59.7579 O   0  0  0  0  0  0  0  0  0  0  0  0
   70.7453   44.9480   58.8676 C   0  0  0  0  0  0  0  0  0  0  0  0
   69.9646   45.5108   57.8116 N   0  0  0  0  0  0  0  0  0  0  0  0
   71.0808   43.5357   58.9288 C   0  0  0  0  0  0  0  0  0  0  0  0
   70.8701   42.7570   60.0203 C   0  0  0  0  0  0  0  0  0  0  0  0
   71.2209   41.4016   59.9998 C   0  0  0  0  0  0  0  0  0  0  0  0
   71.7832   40.8094   58.8967 C   0  0  0  0  0  0  0  0  0  0  0  0
   71.9945   41.6068   57.7901 C   0  0  0  0  0  0  0  0  0  0  0  0
   71.6452   42.9527   57.8144 C   0  0  0  0  0  0  0  0  0  0  0  0
   72.1450   39.4346   58.8617 N   0  0  0  0  0  0  0  0  0  0  0  0
   71.2582   38.4145   58.4197 C   0  0  0  0  0  0  0  0  0  0  0  0
   70.1203   38.8054   58.0554 O   0  0  0  0  0  0  0  0  0  0  0  0
   71.6216   37.0094   58.3815 C   0  0  0  0  0  0  0  0  0  0  0  0
   71.1946   36.0884   59.2957 C   0  0  0  0  0  0  0  0  0  0  0  0
   71.5934   34.7631   59.1792 C   0  0  0  0  0  0  0  0  0  0  0  0
   72.4168   34.3505   58.1521 C   0  0  0  0  0  0  0  0  0  0  0  0
   72.8499   35.2663   57.2295 C   0  0  0  0  0  0  0  0  0  0  0  0
   72.4456   36.5816   57.3583 C   0  0  0  0  0  0  0  0  0  0  0  0
   69.6611   46.8908   57.7916 N   0  0  0  0  0  0  0  0  0  0  0  0
   68.6807   47.4308   56.9212 C   0  0  0  0  0  0  0  0  0  0  0  0
   68.0841   46.6241   56.1583 O   0  0  0  0  0  0  0  0  0  0  0  0
   68.3367   48.8470   56.8689 C   0  0  0  0  0  0  0  0  0  0  0  0
   67.3602   49.3981   57.6883 C   0  0  0  0  0  0  0  0  0  0  0  0
   67.0296   50.7382   57.6429 C   0  0  0  0  0  0  0  0  0  0  0  0
   67.6768   51.5861   56.7614 C   0  0  0  0  0  0  0  0  0  0  0  0
   68.6550   51.0576   55.9352 C   0  0  0  0  0  0  0  0  0  0  0  0
   68.9652   49.7153   56.0008 C   0  0  0  0  0  0  0  0  0  0  0  0
   69.9622   49.2195   55.1452 N   0  0  0  0  0  0  0  0  0  0  0  0
   71.1769   49.3544   55.4668 O   0  0  0  0  0  0  0  0  0  0  0  0
   69.6761   48.5925   53.9697 O   0  0  0  0  0  0  0  0  0  0  0  0
  1  2  2  0
  2  3  1  0
  2  4  1  0
  3 19  1  0
 19 20  1  0
 20 21  2  0
 20 22  1  0
 22 23  2  0
 22 27  1  0
 23 24  1  0
 24 25  2  0
 25 26  1  0
 26 27  2  0
 27 28  1  0
 28 29  2  0
 28 30  1  0
  4  5  2  0
  4  9  1  0
  5  6  1  0
  6  7  2  0
  7 10  1  0
  7  8  1  0
 10 11  1  0
 11 12  2  0
 11 13  1  0
 13 14  2  0
 13 18  1  0
 14 15  1  0
 15 16  2  0
 16 17  1  0
 17 18  2  0
  8  9  2  0
M  CHG  2  28   1  30  -1
M  END
>  <minimizedAffinity>  (375) 
-8.57765

$$$$
data/200k_reference_output/data/smiles/32047.pdb
     RDKit          3D

 30 33  0  0  0  0  0  0  0  0999 V2000
   69.3191   42.0580   57.3124 C   0  0  0  0  0  0  0  0  0  0  0  0
   68.4281   41.5405   58.1573 C   0  0  0  0  0  0  0  0  0  0  0  0
   67.7872   42.3899   58.9789 N   0  0  0  0  0  0  0  0  0  0  0  0
   66.8760   41.8892   59.8423 C   0  0  0  0  0  0  0  0  0  0  0  0
   66.2652   42.6490   60.6173 O   0  0  0  0  0  0  0  0  0  0  0  0
   66.5822   40.5205   59.9068 C   0  0  0  0  0  0  0  0  0  0  0  0
   65.6867   40.0407   60.7496 C   0  0  0  0  0  0  0  0  0  0  0  0
   67.2251   39.6823   59.0849 N   0  0  0  0  0  0  0  0  0  0  0  0
   68.1393   40.1992   58.2216 C   0  0  0  0  0  0  0  0  0  0  0  0
   68.7432   39.4198   57.4503 O   0  0  0  0  0  0  0  0  0  0  0  0
   69.2262   45.7660   56.5376 C   0  0  0  0  0  0  0  0  0  0  0  0
   70.3284   46.1309   57.2840 C   0  0  0  0  0  0  0  0  0  0  0  0
   71.0912   45.2349   58.0170 C   0  0  0  0  0  0  0  0  0  0  0  0
   70.7075   43.9229   57.9845 C   0  0  0  0  0  0  0  0  0  0  0  0
   69.6098   43.4925   57.2562 C   0  0  0  0  0  0  0  0  0  0  0  0
   68.8976   44.4010   56.5564 C   0  0  0  0  0  0  0  0  0  0  0  0
   67.6633   47.5084   56.3421 O   0  0  0  0  0  0  0  0  0  0  0  0
   68.4488   46.7032   55.7434 C   0  0  0  0  0  0  0  0  0  0  0  0
   68.5335   46.7528   54.2950 C   0  0  0  0  0  0  0  0  0  0  0  0
   69.2697   47.7131   53.6382 C   0  0  0  0  0  0  0  0  0  0  0  0
   69.3573   47.8040   52.2485 C   0  0  0  0  0  0  0  0  0  0  0  0
   68.6727   46.8860   51.4810 C   0  0  0  0  0  0  0  0  0  0  0  0
   67.9341   45.9211   52.1429 C   0  0  0  0  0  0  0  0  0  0  0  0
   67.8440   45.8272   53.5028 C   0  0  0  0  0  0  0  0  0  0  0  0
   65.3311   38.6396   60.8695 C   0  0  0  0  0  0  0  0  0  0  0  0
   65.6478   37.9826   62.0625 C   0  0  0  0  0  0  0  0  0  0  0  0
   65.3341   36.6532   62.2567 C   0  0  0  0  0  0  0  0  0  0  0  0
   64.6914   35.9337   61.2637 C   0  0  0  0  0  0  0  0  0  0  0  0
   64.3939   36.6140   60.0968 C   0  0  0  0  0  0  0  0  0  0  0  0
   64.7112   37.8999   59.9430 N   0  0  0  0  0  0  0  0  0  0  0  0
 17 18  2  0
 18 19  1  0
 18 11  1  0
 19 20  2  0
 19 24  1  0
 20 21  1  0
 21 22  2  0
 22 23  1  0
 23 24  2  0
 11 12  2  0
 11 16  1  0
 12 13  1  0
 13 14  2  0
 14 15  1  0
 15  1  1  0
 15 16  2  0
  1  2  2  0
  2  3  1  0
  2  9  1  0
  3  4  1  0
  4  5  2  0
  4  6  1  0
  6  7  2  0
  6  8  1  0
  7 25  1  0
 25 26  2  0
 25 30  1  0
 26 27  1  0
 27 28  2  0
 28 29  1  0
 29 30  2  0
  8  9  1  0
  9 10  2  0
M  END
>  <minimizedAffinity>  (376) 
-9.16960

$$$$
data/200k_reference_output/data/smiles/32144.pdb
     RDKit          3D

 29 31  0  0  0  0  0  0  0  0999 V2000
   71.9783   50.4843   58.5487 C   0  0  0  0  0  0  0  0  0  0  0  0
   70.7877   50.1006   57.8706 N   0  0  0  0  0  0  0  0  0  0  0  0
   69.8264   51.0476   57.4316 C   0  0  0  0  0  0  0  0  0  0  0  0
   70.1558   52.2410   57.4899 O   0  0  0  0  0  0  0  0  0  0  0  0
   68.4616   50.7766   56.9069 C   0  0  2  0  0  0  0  0  0  0  0  0
   67.6001   50.3149   57.9257 O   0  0  0  0  0  0  0  0  0  0  0  0
   68.4773   49.8451   55.7828 N   0  0  0  0  0  0  0  0  0  0  0  0
   69.0969   48.6796   55.7048 C   0  0  0  0  0  0  0  0  0  0  0  0
   69.8229   48.0301   56.7866 C   0  0  0  0  0  0  0  0  0  0  0  0
   69.6727   46.6684   56.8244 C   0  0  0  0  0  0  0  0  0  0  0  0
   70.3270   45.8738   57.7649 C   0  0  0  0  0  0  0  0  0  0  0  0
   71.1378   46.5374   58.6615 C   0  0  0  0  0  0  0  0  0  0  0  0
   71.3023   47.9242   58.6447 C   0  0  0  0  0  0  0  0  0  0  0  0
   70.6358   48.6671   57.7013 C   0  0  0  0  0  0  0  0  0  0  0  0
   68.9734   47.9267   54.4737 C   0  0  0  0  0  0  0  0  0  0  0  0
   68.1507   46.8887   54.2278 C   0  0  0  0  0  0  0  0  0  0  0  0
   68.0341   46.2856   52.9985 C   0  0  0  0  0  0  0  0  0  0  0  0
   68.8001   46.7657   51.9649 C   0  0  0  0  0  0  0  0  0  0  0  0
   69.6511   47.8221   52.1849 C   0  0  0  0  0  0  0  0  0  0  0  0
   69.7662   48.4242   53.4106 C   0  0  0  0  0  0  0  0  0  0  0  0
   70.1220   44.4524   57.7528 C   0  0  0  0  0  0  0  0  0  0  0  0
   69.9621   43.2377   57.7569 C   0  0  0  0  0  0  0  0  0  0  0  0
   69.7456   41.7691   57.7610 C   0  0  0  0  0  0  0  0  0  0  0  0
   68.2421   41.4816   57.7086 C   0  0  0  0  0  0  0  0  0  0  0  0
   67.5664   42.2463   56.5947 C   0  0  0  0  0  0  0  0  0  0  0  0
   67.1070   41.2828   55.5802 C   0  0  0  0  0  0  0  0  0  0  0  0
   67.6959   40.1842   55.4591 O   0  0  0  0  0  0  0  0  0  0  0  0
   65.9906   41.5755   54.7197 N   0  0  0  0  0  0  0  0  0  0  0  0
   65.5834   40.6706   53.7957 O   0  0  0  0  0  0  0  0  0  0  0  0
  1  2  1  0
  2  3  1  0
  2 14  1  0
  3  4  2  0
  3  5  1  0
  5  6  1  1
  5  7  1  0
  7  8  2  0
  8 15  1  0
  8  9  1  0
 15 16  2  0
 15 20  1  0
 16 17  1  0
 17 18  2  0
 18 19  1  0
 19 20  2  0
  9 10  2  0
  9 14  1  0
 10 11  1  0
 11 21  1  0
 11 12  2  0
 21 22  3  0
 22 23  1  0
 23 24  1  0
 24 25  1  0
 25 26  1  0
 26 27  2  0
 26 28  1  0
 28 29  1  0
 12 13  1  0
 13 14  2  0
M  END
>  <minimizedAffinity>  (377) 
-9.14279

$$$$
data/200k_reference_output/data/smiles/32192.pdb
     RDKit          3D

 30 33  0  0  0  0  0  0  0  0999 V2000
   72.1901   47.7031   58.0168 C   0  0  0  0  0  0  0  0  0  0  0  0
   72.7780   46.5054   58.1337 O   0  0  0  0  0  0  0  0  0  0  0  0
   73.1149   48.7066   57.7569 N   0  0  0  0  0  0  0  0  0  0  0  0
   74.5550   48.3462   57.6592 C   0  0  0  0  0  0  0  0  0  0  0  0
   75.3485   49.3086   56.8434 C   0  0  0  0  0  0  0  0  0  0  0  0
   74.5095   49.9276   55.8419 N   0  0  0  0  0  0  0  0  0  0  0  0
   74.6752   50.2430   54.5508 N   0  0  0  0  0  0  0  0  0  0  0  0
   73.5860   50.8245   54.0691 N   0  0  0  0  0  0  0  0  0  0  0  0
   72.6436   50.9163   55.0446 C   0  0  0  0  0  0  0  0  0  0  0  0
   73.2659   50.3450   56.1243 C   0  0  0  0  0  0  0  0  0  0  0  0
   72.8447   50.0769   57.5414 C   0  0  0  0  0  0  0  0  0  0  0  0
   71.3053   51.4858   54.9503 C   0  0  0  0  0  0  0  0  0  0  0  0
   70.4180   50.9399   54.0482 C   0  0  0  0  0  0  0  0  0  0  0  0
   69.1404   51.4009   53.8801 C   0  0  0  0  0  0  0  0  0  0  0  0
   68.7241   52.4627   54.6504 C   0  0  0  0  0  0  0  0  0  0  0  0
   69.5887   53.0396   55.5701 C   0  0  0  0  0  0  0  0  0  0  0  0
   70.8778   52.5444   55.7134 C   0  0  0  0  0  0  0  0  0  0  0  0
   70.7642   47.6127   58.1902 C   0  0  0  0  0  0  0  0  0  0  0  0
   68.8470   48.9190   57.4762 N   0  0  0  0  0  0  0  0  0  0  0  0
   69.8267   47.9229   57.0951 C   0  0  2  0  0  0  0  0  0  0  0  0
   69.0200   46.7464   56.5773 C   0  0  0  0  0  0  0  0  0  0  0  0
   68.8075   46.6848   55.1478 C   0  0  0  0  0  0  0  0  0  0  0  0
   69.1831   47.7328   54.3046 C   0  0  0  0  0  0  0  0  0  0  0  0
   68.9292   47.6451   52.9578 C   0  0  0  0  0  0  0  0  0  0  0  0
   69.3045   48.6745   52.1714 F   0  0  0  0  0  0  0  0  0  0  0  0
   68.3171   46.5752   52.3656 C   0  0  0  0  0  0  0  0  0  0  0  0
   68.0705   46.5015   51.0322 F   0  0  0  0  0  0  0  0  0  0  0  0
   67.9433   45.5358   53.1882 C   0  0  0  0  0  0  0  0  0  0  0  0
   68.1943   45.6064   54.5634 C   0  0  0  0  0  0  0  0  0  0  0  0
   67.8090   44.4854   55.2598 F   0  0  0  0  0  0  0  0  0  0  0  0
 20 19  1  1
 20 18  1  0
 20 21  1  0
 18  1  1  0
  1  2  2  0
  1  3  1  0
  3  4  1  0
  3 11  1  0
  4  5  1  0
  5  6  1  0
  6  7  1  0
  6 10  1  0
  7  8  2  0
  8  9  1  0
  9 12  1  0
  9 10  2  0
 12 13  2  0
 12 17  1  0
 13 14  1  0
 14 15  2  0
 15 16  1  0
 16 17  2  0
 10 11  1  0
 21 22  1  0
 22 23  2  0
 22 29  1  0
 23 24  1  0
 24 25  1  0
 24 26  2  0
 26 27  1  0
 26 28  1  0
 28 29  2  0
 29 30  1  0
M  CHG  1  19   1
M  END
>  <minimizedAffinity>  (378) 
-8.80052

$$$$
data/200k_reference_output/data/smiles/32240.pdb
     RDKit          3D

 24 26  0  0  0  0  0  0  0  0999 V2000
   69.9964   48.9947   53.7162 C   0  0  1  0  0  0  0  0  0  0  0  0
   71.3010   49.1620   53.2437 O   0  0  0  0  0  0  0  0  0  0  0  0
   69.2505   47.9232   53.0328 C   0  0  0  0  0  0  0  0  0  0  0  0
   68.9586   47.6310   51.7042 C   0  0  0  0  0  0  0  0  0  0  0  0
   68.1785   46.5465   51.3807 C   0  0  0  0  0  0  0  0  0  0  0  0
   67.6539   45.7082   52.3353 C   0  0  0  0  0  0  0  0  0  0  0  0
   67.9382   45.9880   53.6581 C   0  0  0  0  0  0  0  0  0  0  0  0
   68.7355   47.0947   53.9836 C   0  0  0  0  0  0  0  0  0  0  0  0
   69.1836   47.5300   55.2998 C   0  0  0  0  0  0  0  0  0  0  0  0
   68.9936   47.0210   56.5820 C   0  0  0  0  0  0  0  0  0  0  0  0
   69.5936   47.6085   57.6801 C   0  0  0  0  0  0  0  0  0  0  0  0
   70.3925   48.7117   57.5214 C   0  0  0  0  0  0  0  0  0  0  0  0
   70.5812   49.2165   56.2616 C   0  0  0  0  0  0  0  0  0  0  0  0
   69.9773   48.6314   55.1404 C   0  0  0  0  0  0  0  0  0  0  0  0
   71.0216   49.3320   58.6720 C   0  0  0  0  0  0  0  0  0  0  0  0
   71.3263   50.5616   58.6528 O   0  0  0  0  0  0  0  0  0  0  0  0
   71.3253   48.6269   59.8536 N   0  0  0  0  0  0  0  0  0  0  0  0
   72.4591   48.0632   60.1012 C   0  0  0  0  0  0  0  0  0  0  0  0
   72.5803   47.3957   61.3467 N   0  0  0  0  0  0  0  0  0  0  0  0
   73.5606   48.0798   59.2035 N   0  0  0  0  0  0  0  0  0  0  0  0
   69.1774   50.2501   53.5209 C   0  0  0  0  0  0  0  0  0  0  0  0
   69.8360   51.5201   53.9213 C   0  0  0  0  0  0  0  0  0  0  0  0
   69.3832   52.7680   56.0652 C   0  0  0  0  0  0  0  0  0  0  0  0
   68.8800   52.4312   54.6991 C   0  0  0  0  0  0  0  0  0  0  0  0
 23 24  1  0
 24 22  1  0
 22 21  1  0
 21  1  1  0
  1  2  1  6
  1  3  1  0
  1 14  1  0
  3  4  2  0
  3  8  1  0
  4  5  1  0
  5  6  2  0
  6  7  1  0
  7  8  2  0
  8  9  1  0
  9 10  2  0
  9 14  1  0
 10 11  1  0
 11 12  2  0
 12 15  1  0
 12 13  1  0
 15 16  2  0
 15 17  1  0
 17 18  2  0
 18 19  1  0
 18 20  1  0
 13 14  2  0
M  CHG  1  17   1
M  END
>  <minimizedAffinity>  (379) 
-8.60448

$$$$
data/200k_reference_output/data/smiles/32291.pdb
     RDKit          3D

 23 25  0  0  0  0  0  0  0  0999 V2000
   68.2861   45.6999   54.8419 C   0  0  0  0  0  0  0  0  0  0  0  0
   68.6206   46.4597   55.9137 C   0  0  0  0  0  0  0  0  0  0  0  0
   69.1425   47.7562   55.7811 C   0  0  0  0  0  0  0  0  0  0  0  0
   69.3164   48.2689   54.5192 C   0  0  0  0  0  0  0  0  0  0  0  0
   69.8110   49.4994   54.3501 N   0  0  0  0  0  0  0  0  0  0  0  0
   69.9727   49.9798   53.1118 C   0  0  0  0  0  0  0  0  0  0  0  0
   70.4385   51.1398   52.9463 O   0  0  0  0  0  0  0  0  0  0  0  0
   69.6587   49.2721   52.0128 N   0  0  0  0  0  0  0  0  0  0  0  0
   69.8491   49.8224   50.7500 O   0  0  0  0  0  0  0  0  0  0  0  0
   69.1601   48.0329   52.1308 C   0  0  0  0  0  0  0  0  0  0  0  0
   68.8473   47.3218   51.1369 O   0  0  0  0  0  0  0  0  0  0  0  0
   68.9872   47.5240   53.4124 C   0  0  0  0  0  0  0  0  0  0  0  0
   68.4790   46.2568   53.5944 C   0  0  0  0  0  0  0  0  0  0  0  0
   68.6474   43.7497   56.9699 O   0  0  0  0  0  0  0  0  0  0  0  0
   67.9474   43.4723   55.9821 C   0  0  0  0  0  0  0  0  0  0  0  0
   67.3562   42.1689   55.9739 N   0  0  0  0  0  0  0  0  0  0  0  0
   67.7629   44.4030   54.9471 N   0  0  0  0  0  0  0  0  0  0  0  0
   67.5419   41.2295   57.0190 C   0  0  0  0  0  0  0  0  0  0  0  0
   68.3606   40.1308   56.8613 C   0  0  0  0  0  0  0  0  0  0  0  0
   68.5421   39.2075   57.8932 C   0  0  0  0  0  0  0  0  0  0  0  0
   67.9057   39.3654   59.1070 C   0  0  0  0  0  0  0  0  0  0  0  0
   67.0910   40.4710   59.2435 C   0  0  0  0  0  0  0  0  0  0  0  0
   66.8999   41.3945   58.2359 C   0  0  0  0  0  0  0  0  0  0  0  0
 14 15  2  0
 15 16  1  0
 15 17  1  0
 16 18  1  0
 18 19  2  0
 18 23  1  0
 19 20  1  0
 20 21  2  0
 21 22  1  0
 22 23  2  0
 17  1  1  0
  1  2  2  0
  1 13  1  0
  2  3  1  0
  3  4  2  0
  4  5  1  0
  4 12  1  0
  5  6  1  0
  6  7  2  0
  6  8  1  0
  8  9  1  0
  8 10  1  0
 10 11  2  0
 10 12  1  0
 12 13  2  0
M  END
>  <minimizedAffinity>  (380) 
-8.88688

$$$$
data/200k_reference_output/data/smiles/32300.pdb
     RDKit          3D

 30 32  0  0  0  0  0  0  0  0999 V2000
   69.7806   47.2343   57.4662 C   0  0  0  0  0  0  0  0  0  0  0  0
   68.6366   47.2841   57.9727 O   0  0  0  0  0  0  0  0  0  0  0  0
   69.9893   47.7284   56.1528 N   0  0  0  0  0  0  0  0  0  0  0  0
   68.8844   48.2870   55.4023 C   0  0  1  0  0  0  0  0  0  0  0  0
   69.1092   49.7426   55.1344 C   0  0  0  0  0  0  0  0  0  0  0  0
   68.3964   50.5342   55.8003 O   0  0  0  0  0  0  0  0  0  0  0  0
   70.0081   50.3828   54.2360 N   0  0  0  0  0  0  0  0  0  0  0  0
   70.2775   51.7928   54.4496 C   0  0  0  0  0  0  0  0  0  0  0  0
   70.6915   49.8072   53.1352 N   0  0  0  0  0  0  0  0  0  0  0  0
   70.4033   48.6705   52.5654 C   0  0  0  0  0  0  0  0  0  0  0  0
   69.3459   47.7203   52.8887 C   0  0  0  0  0  0  0  0  0  0  0  0
   69.0478   46.9565   51.7809 C   0  0  0  0  0  0  0  0  0  0  0  0
   68.0616   45.9976   51.9053 C   0  0  0  0  0  0  0  0  0  0  0  0
   67.3903   45.7988   53.0900 C   0  0  0  0  0  0  0  0  0  0  0  0
   67.7231   46.5881   54.1712 C   0  0  0  0  0  0  0  0  0  0  0  0
   68.7051   47.5646   54.0994 C   0  0  0  0  0  0  0  0  0  0  0  0
   72.1866   47.5035   57.9848 C   0  0  0  0  0  0  0  0  0  0  0  0
   70.9565   46.6697   58.1917 C   0  0  2  0  0  0  0  0  0  0  0  0
   71.1625   45.2745   57.8371 N   0  0  0  0  0  0  0  0  0  0  0  0
   70.7945   44.2127   58.7008 C   0  0  0  0  0  0  0  0  0  0  0  0
   70.2745   44.4246   59.8097 O   0  0  0  0  0  0  0  0  0  0  0  0
   71.0291   42.8124   58.2837 C   0  0  0  0  0  0  0  0  0  0  0  0
   69.8490   42.2049   57.6489 C   0  0  0  0  0  0  0  0  0  0  0  0
   69.0632   43.0006   56.8422 C   0  0  0  0  0  0  0  0  0  0  0  0
   67.9388   42.4949   56.2142 C   0  0  0  0  0  0  0  0  0  0  0  0
   67.1720   43.2903   55.4219 F   0  0  0  0  0  0  0  0  0  0  0  0
   67.5749   41.1725   56.3820 C   0  0  0  0  0  0  0  0  0  0  0  0
   68.3689   40.3891   57.1893 C   0  0  0  0  0  0  0  0  0  0  0  0
   68.0275   39.0839   57.3674 F   0  0  0  0  0  0  0  0  0  0  0  0
   69.4882   40.8832   57.8177 C   0  0  0  0  0  0  0  0  0  0  0  0
 18 17  1  6
 18 19  1  0
 18  1  1  0
 19 20  1  0
 20 21  2  0
 20 22  1  0
 22 23  1  0
 23 24  2  0
 23 30  1  0
 24 25  1  0
 25 26  1  0
 25 27  2  0
 27 28  1  0
 28 29  1  0
 28 30  2  0
  1  2  2  0
  1  3  1  0
  4  3  1  6
  4  5  1  0
  4 16  1  0
  5  6  2  0
  5  7  1  0
  7  8  1  0
  7  9  1  0
  9 10  2  0
 10 11  1  0
 11 12  1  0
 11 16  2  0
 12 13  2  0
 13 14  1  0
 14 15  2  0
 15 16  1  0
M  END
>  <minimizedAffinity>  (381) 
-8.57816

$$$$
data/200k_reference_output/data/smiles/32315.pdb
     RDKit          3D

 28 30  0  0  0  0  0  0  0  0999 V2000
   69.7047   42.3474   57.8460 C   0  0  0  0  0  0  0  0  0  0  0  0
   70.9013   42.4063   57.4087 O   0  0  0  0  0  0  0  0  0  0  0  0
   69.2273   43.3706   58.6839 N   0  0  0  0  0  0  0  0  0  0  0  0
   67.1185   42.2095   55.9217 C   0  0  0  0  0  0  0  0  0  0  0  0
   67.8005   41.1363   56.6523 C   0  0  0  0  0  0  0  0  0  0  0  0
   67.4140   39.8896   56.6126 O   0  0  0  0  0  0  0  0  0  0  0  0
   68.1654   39.1603   57.3234 N   0  0  0  0  0  0  0  0  0  0  0  0
   69.1249   39.9126   57.8946 C   0  0  0  0  0  0  0  0  0  0  0  0
   68.8914   41.2179   57.4551 C   0  0  0  0  0  0  0  0  0  0  0  0
   70.1714   39.4118   58.7675 C   0  0  0  0  0  0  0  0  0  0  0  0
   70.0117   39.3899   60.1188 C   0  0  0  0  0  0  0  0  0  0  0  0
   71.0220   38.9320   60.9604 C   0  0  0  0  0  0  0  0  0  0  0  0
   72.2205   38.4842   60.4562 C   0  0  0  0  0  0  0  0  0  0  0  0
   72.3703   38.5106   59.0846 C   0  0  0  0  0  0  0  0  0  0  0  0
   71.3861   38.9581   58.2399 C   0  0  0  0  0  0  0  0  0  0  0  0
   70.0618   44.4732   59.0444 N   0  0  0  0  0  0  0  0  0  0  0  0
   70.3588   45.5052   58.1596 C   0  0  0  0  0  0  0  0  0  0  0  0
   71.2475   46.7626   58.7727 S   0  0  0  0  0  0  0  0  0  0  0  0
   69.9827   45.5851   56.8097 N   0  0  0  0  0  0  0  0  0  0  0  0
   68.9193   46.3446   56.2809 C   0  0  0  0  0  0  0  0  0  0  0  0
   68.1940   47.0477   57.0607 O   0  0  0  0  0  0  0  0  0  0  0  0
   68.6258   46.3483   54.8645 C   0  0  0  0  0  0  0  0  0  0  0  0
   69.1077   47.4247   54.1136 C   0  0  0  0  0  0  0  0  0  0  0  0
   68.9023   47.5538   52.7584 C   0  0  0  0  0  0  0  0  0  0  0  0
   68.1761   46.5484   52.1412 C   0  0  0  0  0  0  0  0  0  0  0  0
   67.9535   46.6414   50.8064 F   0  0  0  0  0  0  0  0  0  0  0  0
   67.7012   45.4941   52.8631 C   0  0  0  0  0  0  0  0  0  0  0  0
   67.9127   45.3681   54.2336 C   0  0  0  0  0  0  0  0  0  0  0  0
  4  5  1  0
  5  6  1  0
  5  9  2  0
  6  7  1  0
  7  8  2  0
  8 10  1  0
  8  9  1  0
 10 11  2  0
 10 15  1  0
 11 12  1  0
 12 13  2  0
 13 14  1  0
 14 15  2  0
  9  1  1  0
  1  2  2  0
  1  3  1  0
  3 16  1  0
 16 17  1  0
 17 18  2  0
 17 19  1  0
 19 20  1  0
 20 21  2  0
 20 22  1  0
 22 23  2  0
 22 28  1  0
 23 24  1  0
 24 25  2  0
 25 26  1  0
 25 27  1  0
 27 28  2  0
M  END
>  <minimizedAffinity>  (382) 
-9.08966

$$$$
data/200k_reference_output/data/smiles/32476.pdb
     RDKit          3D

 31 34  0  0  0  0  0  0  0  0999 V2000
   72.5246   44.8623   60.4597 N   0  0  0  0  0  0  0  0  0  0  0  0
   72.7921   44.1326   59.2358 C   0  0  0  0  0  0  0  0  0  0  0  0
   72.0349   44.7844   58.1418 C   0  0  0  0  0  0  0  0  0  0  0  0
   71.0098   45.6142   58.8382 C   0  0  1  0  0  0  0  0  0  0  0  0
   69.9110   44.8661   59.2288 O   0  0  0  0  0  0  0  0  0  0  0  0
   71.7238   45.9760   60.1127 C   0  0  0  0  0  0  0  0  0  0  0  0
   71.6488   47.0425   60.7642 O   0  0  0  0  0  0  0  0  0  0  0  0
   74.1827   41.6120   67.2602 O   0  0  0  0  0  0  0  0  0  0  0  0
   73.6442   42.2250   66.2758 C   0  0  0  0  0  0  0  0  0  0  0  0
   72.2906   41.8593   65.8518 C   0  0  0  0  0  0  0  0  0  0  0  0
   72.0220   42.0039   64.4031 C   0  0  0  0  0  0  0  0  0  0  0  0
   72.7797   43.0674   63.7234 C   0  0  0  0  0  0  0  0  0  0  0  0
   72.3629   43.4902   62.4606 C   0  0  0  0  0  0  0  0  0  0  0  0
   73.0043   44.4774   61.7458 C   0  0  0  0  0  0  0  0  0  0  0  0
   74.1071   45.0561   62.3354 C   0  0  0  0  0  0  0  0  0  0  0  0
   74.5280   44.6468   63.5828 C   0  0  0  0  0  0  0  0  0  0  0  0
   73.8789   43.6437   64.3128 C   0  0  0  0  0  0  0  0  0  0  0  0
   74.3522   43.2528   65.5958 N   0  0  0  0  0  0  0  0  0  0  0  0
   70.6206   46.8205   58.0639 C   0  0  0  0  0  0  0  0  0  0  0  0
   71.3910   47.7524   57.8088 O   0  0  0  0  0  0  0  0  0  0  0  0
   69.2769   46.8822   57.5986 N   0  0  0  0  0  0  0  0  0  0  0  0
   68.7225   47.9694   56.8289 C   0  0  0  0  0  0  0  0  0  0  0  0
   68.7083   47.5680   55.3851 C   0  0  0  0  0  0  0  0  0  0  0  0
   69.3436   48.3824   54.4414 C   0  0  0  0  0  0  0  0  0  0  0  0
   69.3802   48.0730   53.1049 C   0  0  0  0  0  0  0  0  0  0  0  0
   70.0090   48.8839   52.1938 F   0  0  0  0  0  0  0  0  0  0  0  0
   68.7777   46.9212   52.6313 C   0  0  0  0  0  0  0  0  0  0  0  0
   68.7867   46.5730   51.3218 F   0  0  0  0  0  0  0  0  0  0  0  0
   68.1520   46.1200   53.5632 C   0  0  0  0  0  0  0  0  0  0  0  0
   67.5454   44.9710   53.1181 F   0  0  0  0  0  0  0  0  0  0  0  0
   68.1100   46.4240   54.9140 C   0  0  0  0  0  0  0  0  0  0  0  0
  8  9  2  0
  9 10  1  0
  9 18  1  0
 10 11  1  0
 11 12  1  0
 12 13  1  0
 12 17  2  0
 13 14  2  0
 14  1  1  0
 14 15  1  0
  1  2  1  0
  1  6  1  0
  2  3  1  0
  3  4  1  0
  4  5  1  1
  4 19  1  0
  4  6  1  0
 19 20  2  0
 19 21  1  0
 21 22  1  0
 22 23  1  0
 23 24  2  0
 23 31  1  0
 24 25  1  0
 25 26  1  0
 25 27  2  0
 27 28  1  0
 27 29  1  0
 29 30  1  0
 29 31  2  0
  6  7  2  0
 15 16  2  0
 16 17  1  0
 17 18  1  0
M  END
>  <minimizedAffinity>  (383) 
-9.25096

$$$$
data/200k_reference_output/data/smiles/32554.pdb
     RDKit          3D

 22 23  0  0  0  0  0  0  0  0999 V2000
   74.0196   50.2751   53.7140 O   0  0  0  0  0  0  0  0  0  0  0  0
   73.4791   50.8562   54.7075 C   0  0  0  0  0  0  0  0  0  0  0  0
   74.3921   51.2987   55.7096 N   0  0  0  0  0  0  0  0  0  0  0  0
   75.7665   51.1000   55.5896 N   0  0  0  0  0  0  0  0  0  0  0  0
   76.4469   50.2716   56.2690 C   0  0  0  0  0  0  0  0  0  0  0  0
   77.8855   50.0761   56.1312 C   0  0  0  0  0  0  0  0  0  0  0  0
   78.4211   48.9884   55.4740 C   0  0  0  0  0  0  0  0  0  0  0  0
   79.7946   48.8502   55.3724 C   0  0  0  0  0  0  0  0  0  0  0  0
   80.6687   49.7740   55.9106 C   0  0  0  0  0  0  0  0  0  0  0  0
   80.1188   50.8266   56.5457 N   0  0  0  0  0  0  0  0  0  0  0  0
   78.7746   50.9855   56.6605 C   0  0  0  0  0  0  0  0  0  0  0  0
   72.0150   51.0630   54.8265 C   0  0  0  0  0  0  0  0  0  0  0  0
   71.3382   49.7680   54.6847 N   0  0  0  0  0  0  0  0  0  0  0  0
   70.4158   49.6587   53.6223 C   0  0  0  0  0  0  0  0  0  0  0  0
   70.2113   50.6738   52.8514 O   0  0  0  0  0  0  0  0  0  0  0  0
   69.6472   48.4692   53.3070 C   0  0  0  0  0  0  0  0  0  0  0  0
   68.8004   47.9070   54.2711 C   0  0  0  0  0  0  0  0  0  0  0  0
   68.0601   46.7740   54.0353 C   0  0  0  0  0  0  0  0  0  0  0  0
   68.1042   46.1180   52.8302 C   0  0  0  0  0  0  0  0  0  0  0  0
   68.9263   46.6500   51.8697 C   0  0  0  0  0  0  0  0  0  0  0  0
   69.6832   47.8066   52.1105 C   0  0  0  0  0  0  0  0  0  0  0  0
   70.4590   48.2707   51.1096 F   0  0  0  0  0  0  0  0  0  0  0  0
  1  2  2  0
  2 12  1  0
  2  3  1  0
 12 13  1  0
 13 14  1  0
 14 15  2  0
 14 16  1  0
 16 17  2  0
 16 21  1  0
 17 18  1  0
 18 19  2  0
 19 20  1  0
 20 21  2  0
 21 22  1  0
  3  4  1  0
  4  5  2  0
  5  6  1  0
  6  7  2  0
  6 11  1  0
  7  8  1  0
  8  9  2  0
  9 10  1  0
 10 11  2  0
M  END
>  <minimizedAffinity>  (384) 
-8.55086

$$$$
data/200k_reference_output/data/smiles/32613.pdb
     RDKit          3D

 25 27  0  0  0  0  0  0  0  0999 V2000
   71.5313   51.4680   55.1144 N   0  0  0  0  0  0  0  0  0  0  0  0
   73.6170   53.0576   53.9559 C   0  0  0  0  0  0  0  0  0  0  0  0
   73.1704   51.5576   54.8178 S   0  0  0  0  0  0  0  0  0  0  0  0
   73.5809   50.3851   53.9163 O   0  0  0  0  0  0  0  0  0  0  0  0
   74.0558   51.4551   56.0138 O   0  0  0  0  0  0  0  0  0  0  0  0
   71.0573   51.9446   56.3522 C   0  0  0  0  0  0  0  0  0  0  0  0
   69.8015   51.3690   56.8660 C   0  0  0  0  0  0  0  0  0  0  0  0
   68.5738   51.9706   56.7425 C   0  0  0  0  0  0  0  0  0  0  0  0
   67.4233   51.3667   57.2628 C   0  0  0  0  0  0  0  0  0  0  0  0
   67.4765   50.1638   57.9105 C   0  0  0  0  0  0  0  0  0  0  0  0
   66.4029   49.5469   58.4253 F   0  0  0  0  0  0  0  0  0  0  0  0
   68.7155   49.5429   58.0420 C   0  0  0  0  0  0  0  0  0  0  0  0
   69.8454   50.1523   57.5218 C   0  0  0  0  0  0  0  0  0  0  0  0
   70.6270   51.4577   54.0159 C   0  0  0  0  0  0  0  0  0  0  0  0
   70.1564   50.1080   53.6083 C   0  0  0  0  0  0  0  0  0  0  0  0
   69.4068   49.3375   54.4496 N   0  0  0  0  0  0  0  0  0  0  0  0
   68.9670   48.1218   54.0874 C   0  0  0  0  0  0  0  0  0  0  0  0
   68.1993   47.3339   54.9500 C   0  0  0  0  0  0  0  0  0  0  0  0
   67.7410   46.0863   54.5956 C   0  0  0  0  0  0  0  0  0  0  0  0
   68.0388   45.5678   53.3390 C   0  0  0  0  0  0  0  0  0  0  0  0
   68.7948   46.3319   52.4763 C   0  0  0  0  0  0  0  0  0  0  0  0
   69.2459   47.5814   52.8501 C   0  0  0  0  0  0  0  0  0  0  0  0
   70.0022   48.3574   51.9999 C   0  0  0  0  0  0  0  0  0  0  0  0
   70.2916   47.9218   50.8530 O   0  0  0  0  0  0  0  0  0  0  0  0
   70.4310   49.5902   52.4039 N   0  0  0  0  0  0  0  0  0  0  0  0
  2  3  1  0
  3  4  2  0
  3  5  2  0
  3  1  1  0
  1  6  1  0
  1 14  1  0
  6  7  1  0
  7  8  2  0
  7 13  1  0
  8  9  1  0
  9 10  2  0
 10 11  1  0
 10 12  1  0
 12 13  2  0
 14 15  1  0
 15 16  2  0
 15 25  1  0
 16 17  1  0
 17 18  2  0
 17 22  1  0
 18 19  1  0
 19 20  2  0
 20 21  1  0
 21 22  2  0
 22 23  1  0
 23 24  2  0
 23 25  1  0
M  END
>  <minimizedAffinity>  (385) 
-8.98340

$$$$
data/200k_reference_output/data/smiles/32654.pdb
     RDKit          3D

 31 34  0  0  0  0  0  0  0  0999 V2000
   73.6337   51.3760   54.6127 C   0  0  2  0  0  0  0  0  0  0  0  0
   72.9496   52.7164   54.4403 C   0  0  0  0  0  0  0  0  0  0  0  0
   71.7628   52.5583   55.4036 C   0  0  0  0  0  0  0  0  0  0  0  0
   71.3827   51.2054   55.1409 N   0  0  1  0  0  0  0  0  0  0  0  0
   72.6236   50.4878   55.3459 C   0  0  0  0  0  0  0  0  0  0  0  0
   77.0210   50.7548   56.2909 N   0  0  0  0  0  0  0  0  0  0  0  0
   75.8548   50.6221   55.5039 C   0  0  0  0  0  0  0  0  0  0  0  0
   75.7426   49.5818   54.8059 O   0  0  0  0  0  0  0  0  0  0  0  0
   74.8153   51.5918   55.4604 N   0  0  0  0  0  0  0  0  0  0  0  0
   79.9894   48.0040   56.5108 N   0  0  0  0  0  0  0  0  0  0  0  0
   79.3266   48.2430   57.7535 C   0  0  0  0  0  0  0  0  0  0  0  0
   77.9483   48.8477   57.5239 C   0  0  0  0  0  0  0  0  0  0  0  0
   78.0630   49.7685   56.3268 C   0  0  0  0  0  0  0  0  0  0  0  0
   79.4456   50.3222   56.2422 C   0  0  0  0  0  0  0  0  0  0  0  0
   80.3693   49.1800   55.7975 C   0  0  0  0  0  0  0  0  0  0  0  0
   81.1897   46.1040   58.2576 C   0  0  0  0  0  0  0  0  0  0  0  0
   81.2393   46.8331   56.6243 S   0  0  0  0  0  0  0  0  0  0  0  0
   81.0800   45.7576   55.6174 O   0  0  0  0  0  0  0  0  0  0  0  0
   82.5504   47.5558   56.4871 O   0  0  0  0  0  0  0  0  0  0  0  0
   70.3035   50.7152   55.9330 C   0  0  0  0  0  0  0  0  0  0  0  0
   69.6631   49.5012   55.3792 C   0  0  0  0  0  0  0  0  0  0  0  0
   69.0403   48.6217   56.2386 C   0  0  0  0  0  0  0  0  0  0  0  0
   68.4453   47.4911   55.7214 C   0  0  0  0  0  0  0  0  0  0  0  0
   68.4414   47.1927   54.3769 C   0  0  0  0  0  0  0  0  0  0  0  0
   67.8391   46.0505   53.8704 C   0  0  0  0  0  0  0  0  0  0  0  0
   67.8788   45.8212   52.5092 C   0  0  0  0  0  0  0  0  0  0  0  0
   67.2985   44.7083   51.9557 F   0  0  0  0  0  0  0  0  0  0  0  0
   68.5004   46.6995   51.6499 C   0  0  0  0  0  0  0  0  0  0  0  0
   69.0908   47.8259   52.1809 C   0  0  0  0  0  0  0  0  0  0  0  0
   69.0788   48.1023   53.5457 C   0  0  0  0  0  0  0  0  0  0  0  0
   69.6852   49.2454   54.0238 C   0  0  0  0  0  0  0  0  0  0  0  0
 16 17  1  0
 17 18  2  0
 17 19  2  0
 17 10  1  0
 10 11  1  0
 10 15  1  0
 11 12  1  0
 12 13  1  0
 13  6  1  0
 13 14  1  0
  6  7  1  0
  7  8  2  0
  7  9  1  0
  1  9  1  1
  1  2  1  0
  1  5  1  0
  2  3  1  0
  3  4  1  0
  4 20  1  1
  4  5  1  0
 20 21  1  0
 21 22  2  0
 21 31  1  0
 22 23  1  0
 23 24  2  0
 24 25  1  0
 24 30  1  0
 25 26  2  0
 26 27  1  0
 26 28  1  0
 28 29  2  0
 29 30  1  0
 30 31  2  0
 14 15  1  0
M  CHG  1   4   1
M  END
>  <minimizedAffinity>  (386) 
-8.55224

$$$$
data/200k_reference_output/data/smiles/32730.pdb
     RDKit          3D

 24 27  0  0  0  0  0  0  0  0999 V2000
   68.2259   43.8264   55.9347 C   0  0  0  0  0  0  0  0  0  0  0  0
   67.1634   43.0851   55.5287 N   0  0  0  0  0  0  0  0  0  0  0  0
   66.9339   41.8796   56.0658 C   0  0  0  0  0  0  0  0  0  0  0  0
   67.7442   41.3441   57.0342 C   0  0  0  0  0  0  0  0  0  0  0  0
   68.8380   42.1184   57.4456 C   0  0  0  0  0  0  0  0  0  0  0  0
   69.0187   43.3194   56.8720 N   0  0  0  0  0  0  0  0  0  0  0  0
   68.4395   46.4829   53.2730 C   0  0  0  0  0  0  0  0  0  0  0  0
   68.7607   47.5948   54.0257 C   0  0  0  0  0  0  0  0  0  0  0  0
   68.9070   47.4844   55.3883 C   0  0  0  0  0  0  0  0  0  0  0  0
   68.7340   46.2525   56.0281 C   0  0  0  0  0  0  0  0  0  0  0  0
   68.4145   45.1262   55.3083 C   0  0  0  0  0  0  0  0  0  0  0  0
   68.2775   45.2922   53.9374 C   0  0  0  0  0  0  0  0  0  0  0  0
   69.3263   47.1326   51.0463 N   0  0  0  0  0  0  0  0  0  0  0  0
   68.2862   46.6015   51.8397 C   0  0  0  0  0  0  0  0  0  0  0  0
   67.2257   46.2301   51.3041 O   0  0  0  0  0  0  0  0  0  0  0  0
   69.6847   41.5777   58.4471 N   0  0  0  0  0  0  0  0  0  0  0  0
   70.0996   40.2411   58.5081 C   0  0  0  0  0  0  0  0  0  0  0  0
   71.3567   39.6730   58.4181 C   0  0  0  0  0  0  0  0  0  0  0  0
   71.2560   38.2983   58.5392 C   0  0  0  0  0  0  0  0  0  0  0  0
   69.9502   38.0531   58.6996 N   0  0  0  0  0  0  0  0  0  0  0  0
   69.2720   39.1672   58.6844 N   0  0  0  0  0  0  0  0  0  0  0  0
   72.4026   37.3342   58.4917 C   0  0  0  0  0  0  0  0  0  0  0  0
   72.4757   36.4302   57.2357 C   0  0  0  0  0  0  0  0  0  0  0  0
   72.0841   35.8575   58.5701 C   0  0  0  0  0  0  0  0  0  0  0  0
 13 14  1  0
 14 15  2  0
 14  7  1  0
  7  8  2  0
  7 12  1  0
  8  9  1  0
  9 10  2  0
 10 11  1  0
 11  1  1  0
 11 12  2  0
  1  2  2  0
  1  6  1  0
  2  3  1  0
  3  4  2  0
  4  5  1  0
  5 16  1  0
  5  6  2  0
 16 17  1  0
 17 18  1  0
 17 21  2  0
 18 19  2  0
 19 22  1  0
 19 20  1  0
 22 23  1  0
 22 24  1  0
 23 24  1  0
 20 21  1  0
M  END
>  <minimizedAffinity>  (387) 
-8.83111

$$$$
data/200k_reference_output/data/smiles/32774.pdb
     RDKit          3D

 27 30  0  0  0  0  0  0  0  0999 V2000
   69.3112   45.1653   56.9260 C   0  0  0  0  0  0  0  0  0  0  0  0
   69.3035   43.8370   56.7411 N   0  0  0  0  0  0  0  0  0  0  0  0
   70.2320   43.2633   57.4848 N   0  0  0  0  0  0  0  0  0  0  0  0
   70.9101   44.1848   58.2068 C   0  0  0  0  0  0  0  0  0  0  0  0
   71.9443   44.1271   59.1118 C   0  0  0  0  0  0  0  0  0  0  0  0
   72.4102   45.2874   59.6783 C   0  0  0  0  0  0  0  0  0  0  0  0
   71.8544   46.5078   59.3509 C   0  0  0  0  0  0  0  0  0  0  0  0
   70.8204   46.5280   58.4406 C   0  0  0  0  0  0  0  0  0  0  0  0
   70.3133   45.3986   57.8418 C   0  0  0  0  0  0  0  0  0  0  0  0
   72.4511   47.9605   60.0711 S   0  0  0  0  0  0  0  0  0  0  0  0
   71.4175   49.0351   59.8807 O   0  0  0  0  0  0  0  0  0  0  0  0
   72.5875   47.7788   61.5769 O   0  0  0  0  0  0  0  0  0  0  0  0
   73.9330   48.4922   59.4687 N   0  0  0  0  0  0  0  0  0  0  0  0
   74.0957   48.4741   58.0666 C   0  0  0  0  0  0  0  0  0  0  0  0
   74.1166   49.8664   57.4768 C   0  0  0  0  0  0  0  0  0  0  0  0
   75.0824   50.6019   58.1715 O   0  0  0  0  0  0  0  0  0  0  0  0
   74.6479   50.8481   59.4810 C   0  0  0  0  0  0  0  0  0  0  0  0
   74.5750   49.5274   60.1832 C   0  0  0  0  0  0  0  0  0  0  0  0
   68.4621   46.1118   56.3030 N   0  0  0  0  0  0  0  0  0  0  0  0
   69.7822   48.6064   52.2175 C   0  0  0  0  0  0  0  0  0  0  0  0
   69.0653   47.4898   52.8889 C   0  0  0  0  0  0  0  0  0  0  0  0
   69.0925   47.3179   54.2585 C   0  0  0  0  0  0  0  0  0  0  0  0
   68.4286   46.2818   54.8887 C   0  0  0  0  0  0  0  0  0  0  0  0
   67.7294   45.4154   54.0806 C   0  0  0  0  0  0  0  0  0  0  0  0
   67.6938   45.5769   52.7046 C   0  0  0  0  0  0  0  0  0  0  0  0
   68.3604   46.6142   52.0902 C   0  0  0  0  0  0  0  0  0  0  0  0
   68.3145   46.7560   50.7411 F   0  0  0  0  0  0  0  0  0  0  0  0
 20 21  1  0
 21 22  2  0
 21 26  1  0
 22 23  1  0
 23 19  1  0
 23 24  2  0
 19  1  1  0
  1  2  2  0
  1  9  1  0
  2  3  1  0
  3  4  1  0
  4  5  1  0
  4  9  2  0
  5  6  2  0
  6  7  1  0
  7 10  1  0
  7  8  2  0
 10 11  2  0
 10 12  2  0
 10 13  1  0
 13 14  1  0
 13 18  1  0
 14 15  1  0
 15 16  1  0
 16 17  1  0
 17 18  1  0
  8  9  1  0
 24 25  1  0
 25 26  2  0
 26 27  1  0
M  END
>  <minimizedAffinity>  (388) 
-8.57377

$$$$
data/200k_reference_output/data/smiles/32798.pdb
     RDKit          3D

 23 25  0  0  0  0  0  0  0  0999 V2000
   73.1056   51.4972   55.0748 C   0  0  0  0  0  0  0  0  0  0  0  0
   72.7783   52.4964   55.9596 C   0  0  0  0  0  0  0  0  0  0  0  0
   71.4665   52.8852   56.0839 C   0  0  0  0  0  0  0  0  0  0  0  0
   71.1294   53.7897   56.8769 O   0  0  0  0  0  0  0  0  0  0  0  0
   70.5169   52.2442   55.3003 C   0  0  0  0  0  0  0  0  0  0  0  0
   69.1749   52.6162   55.3747 C   0  0  0  0  0  0  0  0  0  0  0  0
   68.2282   52.0017   54.5931 C   0  0  0  0  0  0  0  0  0  0  0  0
   68.6170   51.0086   53.7300 C   0  0  0  0  0  0  0  0  0  0  0  0
   69.9396   50.5826   53.6015 C   0  0  0  0  0  0  0  0  0  0  0  0
   70.8415   51.2398   54.4116 C   0  0  0  0  0  0  0  0  0  0  0  0
   72.1456   50.8960   54.3270 N   0  0  0  0  0  0  0  0  0  0  0  0
   75.4306   51.7658   55.3882 O   0  0  0  0  0  0  0  0  0  0  0  0
   74.4961   51.0762   54.9346 C   0  0  0  0  0  0  0  0  0  0  0  0
   74.8264   49.8940   54.2913 O   0  0  0  0  0  0  0  0  0  0  0  0
   70.2612   49.2947   52.5513 S   0  0  0  0  0  0  0  0  0  0  0  0
   69.7721   49.6122   51.1521 O   0  0  0  0  0  0  0  0  0  0  0  0
   71.6217   48.7672   52.4405 O   0  0  0  0  0  0  0  0  0  0  0  0
   69.2826   47.9217   53.0605 C   0  0  0  0  0  0  0  0  0  0  0  0
   68.7409   47.0519   52.1515 C   0  0  0  0  0  0  0  0  0  0  0  0
   67.9715   45.9524   52.5136 C   0  0  0  0  0  0  0  0  0  0  0  0
   67.7364   45.7213   53.8481 C   0  0  0  0  0  0  0  0  0  0  0  0
   68.2883   46.6061   54.7501 C   0  0  0  0  0  0  0  0  0  0  0  0
   69.0468   47.6884   54.4059 C   0  0  0  0  0  0  0  0  0  0  0  0
 12 13  2  0
 13 14  1  0
 13  1  1  0
  1  2  2  0
  1 11  1  0
  2  3  1  0
  3  4  2  0
  3  5  1  0
  5  6  1  0
  5 10  2  0
  6  7  2  0
  7  8  1  0
  8  9  2  0
  9 15  1  0
  9 10  1  0
 15 16  2  0
 15 17  2  0
 15 18  1  0
 18 19  2  0
 18 23  1  0
 19 20  1  0
 20 21  2  0
 21 22  1  0
 22 23  2  0
 10 11  1  0
M  END
>  <minimizedAffinity>  (389) 
-8.74810

$$$$
data/200k_reference_output/data/smiles/32862.pdb
     RDKit          3D

 29 32  0  0  0  0  0  0  0  0999 V2000
   69.1981   48.4764   56.7174 C   0  0  0  0  0  0  0  0  0  0  0  0
   70.7219   51.0229   54.2736 C   0  0  2  0  0  0  0  0  0  0  0  0
   70.7025   50.2087   53.1386 O   0  0  0  0  0  0  0  0  0  0  0  0
   69.9833   49.0412   53.0986 C   0  0  0  0  0  0  0  0  0  0  0  0
   69.7324   48.3925   51.8786 C   0  0  0  0  0  0  0  0  0  0  0  0
   69.0089   47.2274   51.8731 C   0  0  0  0  0  0  0  0  0  0  0  0
   68.5108   46.6514   53.0166 C   0  0  0  0  0  0  0  0  0  0  0  0
   67.7307   45.4035   53.0542 C   0  0  0  0  0  0  0  0  0  0  0  0
   68.7764   47.3169   54.2067 C   0  0  0  0  0  0  0  0  0  0  0  0
   69.5014   48.4969   54.2683 C   0  0  0  0  0  0  0  0  0  0  0  0
   69.7097   49.0895   55.5403 N   0  0  0  0  0  0  0  0  0  0  0  0
   70.4577   50.3107   55.5438 C   0  0  0  0  0  0  0  0  0  0  0  0
   70.8785   50.7553   56.6373 O   0  0  0  0  0  0  0  0  0  0  0  0
   68.6860   52.1275   55.2090 C   0  0  0  0  0  0  0  0  0  0  0  0
   69.6324   52.0814   54.0497 C   0  0  0  0  0  0  0  0  0  0  0  0
   70.1077   47.6035   57.4539 C   0  0  0  0  0  0  0  0  0  0  0  0
   71.2528   48.0170   57.7505 O   0  0  0  0  0  0  0  0  0  0  0  0
   69.7479   46.2915   57.8548 N   0  0  0  0  0  0  0  0  0  0  0  0
   70.7200   45.5025   58.5826 C   0  0  0  0  0  0  0  0  0  0  0  0
   70.4461   44.0517   58.3352 C   0  0  1  0  0  0  0  0  0  0  0  0
   70.2474   43.2667   59.6042 C   0  0  0  0  0  0  0  0  0  0  0  0
   70.1787   41.8879   59.2194 O   0  0  0  0  0  0  0  0  0  0  0  0
   69.3144   41.5363   58.1920 C   0  0  0  0  0  0  0  0  0  0  0  0
   68.9220   40.2263   58.0096 C   0  0  0  0  0  0  0  0  0  0  0  0
   68.0638   39.8578   56.9963 C   0  0  0  0  0  0  0  0  0  0  0  0
   67.6106   40.8602   56.1659 C   0  0  0  0  0  0  0  0  0  0  0  0
   68.0031   42.1692   56.3493 C   0  0  0  0  0  0  0  0  0  0  0  0
   68.8615   42.5495   57.3600 C   0  0  0  0  0  0  0  0  0  0  0  0
   69.2639   43.8637   57.5544 O   0  0  0  0  0  0  0  0  0  0  0  0
 14 15  1  0
  2 15  1  6
  2  3  1  0
  2 12  1  0
  3  4  1  0
  4  5  1  0
  4 10  2  0
  5  6  2  0
  6  7  1  0
  7  8  1  0
  7  9  2  0
  9 10  1  0
 10 11  1  0
 11  1  1  0
 11 12  1  0
  1 16  1  0
 16 17  2  0
 16 18  1  0
 18 19  1  0
 20 19  1  1
 20 21  1  0
 20 29  1  0
 21 22  1  0
 22 23  1  0
 23 24  2  0
 23 28  1  0
 24 25  1  0
 25 26  2  0
 26 27  1  0
 27 28  2  0
 28 29  1  0
 12 13  2  0
M  END
>  <minimizedAffinity>  (390) 
-8.68141

$$$$
data/200k_reference_output/data/smiles/32870.pdb
     RDKit          3D

 27 29  0  0  0  0  0  0  0  0999 V2000
   71.9111   50.7442   54.3209 C   0  0  0  0  0  0  0  0  0  0  0  0
   71.2056   49.6432   53.9330 N   0  0  0  0  0  0  0  0  0  0  0  0
   69.9017   49.6376   53.7587 N   0  0  0  0  0  0  0  0  0  0  0  0
   69.1667   50.7549   53.9609 C   0  0  0  0  0  0  0  0  0  0  0  0
   69.7909   51.9124   54.3530 C   0  0  0  0  0  0  0  0  0  0  0  0
   71.1755   51.8732   54.5255 C   0  0  0  0  0  0  0  0  0  0  0  0
   71.6890   52.9464   54.8808 O   0  0  0  0  0  0  0  0  0  0  0  0
   69.2755   48.4299   53.3471 C   0  0  0  0  0  0  0  0  0  0  0  0
   68.5858   47.6519   54.2676 C   0  0  0  0  0  0  0  0  0  0  0  0
   67.9663   46.4748   53.9009 C   0  0  0  0  0  0  0  0  0  0  0  0
   68.0156   46.0340   52.5944 C   0  0  0  0  0  0  0  0  0  0  0  0
   67.4073   44.8669   52.2065 F   0  0  0  0  0  0  0  0  0  0  0  0
   68.7032   46.8114   51.6836 C   0  0  0  0  0  0  0  0  0  0  0  0
   69.3326   48.0022   52.0402 C   0  0  0  0  0  0  0  0  0  0  0  0
   74.0807   51.0507   55.6313 N   0  0  0  0  0  0  0  0  0  0  0  0
   73.3516   50.6594   54.4913 C   0  0  0  0  0  0  0  0  0  0  0  0
   74.0813   50.1922   53.5505 O   0  0  0  0  0  0  0  0  0  0  0  0
   75.4674   48.8741   56.7034 O   0  0  0  0  0  0  0  0  0  0  0  0
   76.1585   49.8181   56.2507 C   0  0  0  0  0  0  0  0  0  0  0  0
   75.4794   50.9298   55.7048 N   0  0  0  0  0  0  0  0  0  0  0  0
   77.6093   49.6992   56.3209 C   0  0  0  0  0  0  0  0  0  0  0  0
   78.3426   49.1850   55.2744 C   0  0  0  0  0  0  0  0  0  0  0  0
   79.7229   49.0651   55.3275 C   0  0  0  0  0  0  0  0  0  0  0  0
   80.3979   49.4714   56.4602 C   0  0  0  0  0  0  0  0  0  0  0  0
   79.6772   49.9869   57.5133 C   0  0  0  0  0  0  0  0  0  0  0  0
   78.2871   50.1037   57.4512 C   0  0  0  0  0  0  0  0  0  0  0  0
   77.3540   50.7531   58.7680 Cl  0  0  0  0  0  0  0  0  0  0  0  0
 18 19  2  0
 19 20  1  0
 19 21  1  0
 20 15  1  0
 15 16  1  0
 16 17  2  0
 16  1  1  0
  1  2  2  0
  1  6  1  0
  2  3  1  0
  3  8  1  0
  3  4  1  0
  8  9  2  0
  8 14  1  0
  9 10  1  0
 10 11  2  0
 11 12  1  0
 11 13  1  0
 13 14  2  0
  4  5  2  0
  5  6  1  0
  6  7  2  0
 21 22  2  0
 21 26  1  0
 22 23  1  0
 23 24  2  0
 24 25  1  0
 25 26  2  0
 26 27  1  0
M  END
>  <minimizedAffinity>  (391) 
-8.96007

$$$$
data/200k_reference_output/data/smiles/32932.pdb
     RDKit          3D

 26 28  0  0  0  0  0  0  0  0999 V2000
   71.0810   38.9361   59.8319 C   0  0  0  0  0  0  0  0  0  0  0  0
   70.2424   39.6432   58.8401 C   0  0  0  0  0  0  0  0  0  0  0  0
   69.0261   39.0722   58.4548 C   0  0  0  0  0  0  0  0  0  0  0  0
   68.1531   39.7845   57.6486 C   0  0  0  0  0  0  0  0  0  0  0  0
   68.4471   41.0382   57.2151 C   0  0  0  0  0  0  0  0  0  0  0  0
   67.5994   41.8277   56.3067 C   0  0  0  0  0  0  0  0  0  0  0  0
   69.6437   41.6190   57.5987 C   0  0  0  0  0  0  0  0  0  0  0  0
   70.5582   40.9273   58.4065 C   0  0  0  0  0  0  0  0  0  0  0  0
   71.6987   41.8016   58.5708 N   0  0  0  0  0  0  0  0  0  0  0  0
   71.5295   43.0311   57.9148 C   0  0  0  0  0  0  0  0  0  0  0  0
   72.2104   44.0957   57.7789 O   0  0  0  0  0  0  0  0  0  0  0  0
   70.1676   42.9231   57.2838 C   0  0  0  0  0  0  0  0  0  0  0  0
   69.6259   44.0099   57.2069 N   0  0  0  0  0  0  0  0  0  0  0  0
   69.1869   45.1921   57.0910 N   0  0  0  0  0  0  0  0  0  0  0  0
   69.7083   46.4411   57.3514 C   0  0  0  0  0  0  0  0  0  0  0  0
   70.7908   46.6272   57.8401 O   0  0  0  0  0  0  0  0  0  0  0  0
   68.7602   47.6172   56.8956 C   0  0  0  0  0  0  0  0  0  0  0  0
   69.0232   47.6093   55.3911 C   0  0  0  0  0  0  0  0  0  0  0  0
   69.7975   48.5416   54.8422 C   0  0  0  0  0  0  0  0  0  0  0  0
   69.8513   48.5619   53.4496 C   0  0  0  0  0  0  0  0  0  0  0  0
   69.1624   47.6922   52.7124 C   0  0  0  0  0  0  0  0  0  0  0  0
   69.2408   47.7673   51.2821 O   0  0  0  0  0  0  0  0  0  0  0  0
   68.3712   46.7142   53.2488 C   0  0  0  0  0  0  0  0  0  0  0  0
   68.3114   46.7033   54.6789 C   0  0  0  0  0  0  0  0  0  0  0  0
   67.6581   45.8311   52.5455 C   0  0  0  0  0  0  0  0  0  0  0  0
   66.9583   44.9343   51.8278 N   0  0  0  0  0  0  0  0  0  0  0  0
  1  2  1  0
  2  3  2  0
  2  8  1  0
  3  4  1  0
  4  5  2  0
  5  6  1  0
  5  7  1  0
  7  8  2  0
  7 12  1  0
  8  9  1  0
  9 10  1  0
 10 11  2  0
 10 12  1  0
 12 13  2  0
 13 14  1  0
 14 15  1  0
 15 16  2  0
 15 17  1  0
 17 18  1  0
 18 19  2  0
 18 24  1  0
 19 20  1  0
 20 21  2  0
 21 22  1  0
 21 23  1  0
 23 25  1  0
 23 24  2  0
 25 26  3  0
M  END
>  <minimizedAffinity>  (392) 
-8.60253

$$$$
data/200k_reference_output/data/smiles/33013.pdb
     RDKit          3D

 29 32  0  0  0  0  0  0  0  0999 V2000
   71.3820   48.3040   58.0027 N   0  0  0  0  0  0  0  0  0  0  0  0
   70.6106   47.1816   58.3953 C   0  0  0  0  0  0  0  0  0  0  0  0
   70.8372   46.4441   59.4079 O   0  0  0  0  0  0  0  0  0  0  0  0
   69.5313   46.9751   57.5019 N   0  0  0  0  0  0  0  0  0  0  0  0
   69.4834   48.1239   56.6235 C   0  0  0  0  0  0  0  0  0  0  0  0
   70.7519   48.8026   56.8272 C   0  0  0  0  0  0  0  0  0  0  0  0
   71.3262   49.7095   56.1492 O   0  0  0  0  0  0  0  0  0  0  0  0
   68.3945   49.0634   57.0239 C   0  0  0  0  0  0  0  0  0  0  0  0
   67.2866   48.6242   57.7100 C   0  0  0  0  0  0  0  0  0  0  0  0
   66.3166   49.5382   58.0450 C   0  0  0  0  0  0  0  0  0  0  0  0
   66.4446   50.8709   57.7038 C   0  0  0  0  0  0  0  0  0  0  0  0
   67.5453   51.3227   57.0197 C   0  0  0  0  0  0  0  0  0  0  0  0
   68.5234   50.3859   56.6849 C   0  0  0  0  0  0  0  0  0  0  0  0
   69.1813   47.7052   55.2413 C   0  0  0  0  0  0  0  0  0  0  0  0
   68.4769   46.5195   55.1070 C   0  0  0  0  0  0  0  0  0  0  0  0
   68.1378   46.0263   53.8646 C   0  0  0  0  0  0  0  0  0  0  0  0
   68.4848   46.6926   52.7083 C   0  0  0  0  0  0  0  0  0  0  0  0
   69.1852   47.8724   52.8465 C   0  0  0  0  0  0  0  0  0  0  0  0
   69.5330   48.3771   54.1055 C   0  0  0  0  0  0  0  0  0  0  0  0
   72.5573   48.7796   58.7076 C   0  0  0  0  0  0  0  0  0  0  0  0
   74.4157   49.6860   57.2111 N   0  0  0  0  0  0  0  0  0  0  0  0
   73.7672   48.6018   57.8423 C   0  0  0  0  0  0  0  0  0  0  0  0
   74.2563   47.4548   57.6447 O   0  0  0  0  0  0  0  0  0  0  0  0
   79.1323   49.0801   55.5131 C   0  0  0  0  0  0  0  0  0  0  0  0
   77.6416   49.2620   55.6026 C   0  0  0  0  0  0  0  0  0  0  0  0
   76.8864   49.3789   56.7508 C   0  0  0  0  0  0  0  0  0  0  0  0
   75.5626   49.5308   56.3882 C   0  0  0  0  0  0  0  0  0  0  0  0
   75.5731   49.4998   55.0394 N   0  0  0  0  0  0  0  0  0  0  0  0
   76.7896   49.3430   54.6089 O   0  0  0  0  0  0  0  0  0  0  0  0
 24 25  1  0
 25 26  2  0
 25 29  1  0
 26 27  1  0
 27 21  1  0
 27 28  2  0
 21 22  1  0
 22 23  2  0
 22 20  1  0
 20  1  1  0
  1  2  1  0
  1  6  1  0
  2  3  2  0
  2  4  1  0
  4  5  1  0
  5  8  1  0
  5 14  1  0
  5  6  1  0
  8  9  2  0
  8 13  1  0
  9 10  1  0
 10 11  2  0
 11 12  1  0
 12 13  2  0
 14 15  2  0
 14 19  1  0
 15 16  1  0
 16 17  2  0
 17 18  1  0
 18 19  2  0
  6  7  2  0
 28 29  1  0
M  END
>  <minimizedAffinity>  (393) 
-9.01640

$$$$
data/200k_reference_output/data/smiles/33107.pdb
     RDKit          3D

 23 24  0  0  0  0  0  0  0  0999 V2000
   67.9426   43.7056   55.6289 C   0  0  0  0  0  0  0  0  0  0  0  0
   67.1871   42.8064   56.1254 N   0  0  0  0  0  0  0  0  0  0  0  0
   67.6141   41.9541   57.1671 N   0  0  0  0  0  0  0  0  0  0  0  0
   67.9495   40.6094   56.9982 C   0  0  0  0  0  0  0  0  0  0  0  0
   67.8385   40.1893   55.7944 O   0  0  0  0  0  0  0  0  0  0  0  0
   68.3936   39.6635   57.9919 C   0  0  0  0  0  0  0  0  0  0  0  0
   67.4766   38.8257   58.6348 C   0  0  0  0  0  0  0  0  0  0  0  0
   67.8504   37.9097   59.5884 C   0  0  0  0  0  0  0  0  0  0  0  0
   69.1648   37.7902   59.9434 C   0  0  0  0  0  0  0  0  0  0  0  0
   70.0865   38.5836   59.3442 C   0  0  0  0  0  0  0  0  0  0  0  0
   69.6964   39.5016   58.3864 C   0  0  0  0  0  0  0  0  0  0  0  0
   70.6813   40.2461   57.8418 F   0  0  0  0  0  0  0  0  0  0  0  0
   67.4473   44.5182   54.5914 N   0  0  0  0  0  0  0  0  0  0  0  0
   69.4780   47.9135   53.0877 C   0  0  0  0  0  0  0  0  0  0  0  0
   69.1821   47.8171   54.4245 C   0  0  0  0  0  0  0  0  0  0  0  0
   68.5149   46.7093   54.9636 C   0  0  0  0  0  0  0  0  0  0  0  0
   68.1287   45.6717   54.1645 C   0  0  0  0  0  0  0  0  0  0  0  0
   68.4380   45.7823   52.7981 C   0  0  0  0  0  0  0  0  0  0  0  0
   69.0936   46.8757   52.2852 C   0  0  0  0  0  0  0  0  0  0  0  0
   69.3595   46.9086   50.9320 O   0  0  0  0  0  0  0  0  0  0  0  0
   69.8309   49.5902   51.4334 O   0  0  0  0  0  0  0  0  0  0  0  0
   70.1697   49.0465   52.4904 C   0  0  0  0  0  0  0  0  0  0  0  0
   71.2915   49.5633   53.1451 O   0  0  0  0  0  0  0  0  0  0  0  0
 21 22  2  0
 22 23  1  0
 22 14  1  0
 14 15  2  0
 14 19  1  0
 15 16  1  0
 16 17  2  0
 17 13  1  0
 17 18  1  0
 13  1  1  0
  1  2  2  0
  2  3  1  0
  3  4  1  0
  4  5  2  0
  4  6  1  0
  6  7  2  0
  6 11  1  0
  7  8  1  0
  8  9  2  0
  9 10  1  0
 10 11  2  0
 11 12  1  0
 18 19  2  0
 19 20  1  0
M  END
>  <minimizedAffinity>  (394) 
-8.71970

$$$$
data/200k_reference_output/data/smiles/33127.pdb
     RDKit          3D

 30 33  0  0  0  0  0  0  0  0999 V2000
   70.6370   42.1445   60.0810 N   0  0  0  0  0  0  0  0  0  0  0  0
   71.4670   41.4118   59.1204 C   0  0  0  0  0  0  0  0  0  0  0  0
   71.5341   42.4233   57.9671 C   0  0  0  0  0  0  0  0  0  0  0  0
   70.1264   42.9129   57.9028 C   0  0  1  0  0  0  0  0  0  0  0  0
   69.2824   42.1154   57.1771 O   0  0  0  0  0  0  0  0  0  0  0  0
   69.7436   42.9710   59.3521 C   0  0  0  0  0  0  0  0  0  0  0  0
   68.7983   43.6423   59.7792 O   0  0  0  0  0  0  0  0  0  0  0  0
   72.8737   41.1361   67.3081 O   0  0  0  0  0  0  0  0  0  0  0  0
   72.5462   41.6963   66.2599 C   0  0  0  0  0  0  0  0  0  0  0  0
   73.5053   42.4923   65.4540 C   0  0  0  0  0  0  0  0  0  0  0  0
   73.5325   41.9185   64.0609 C   0  0  0  0  0  0  0  0  0  0  0  0
   72.1763   41.9007   63.4925 C   0  0  0  0  0  0  0  0  0  0  0  0
   72.0030   42.0282   62.1167 C   0  0  0  0  0  0  0  0  0  0  0  0
   70.7667   42.0023   61.5050 C   0  0  0  0  0  0  0  0  0  0  0  0
   69.6720   41.8409   62.3245 C   0  0  0  0  0  0  0  0  0  0  0  0
   69.8490   41.7148   63.6939 C   0  0  0  0  0  0  0  0  0  0  0  0
   71.0882   41.7409   64.3077 C   0  0  0  0  0  0  0  0  0  0  0  0
   71.2171   41.6296   65.7279 N   0  0  0  0  0  0  0  0  0  0  0  0
   70.0472   44.3227   57.4198 C   0  0  0  0  0  0  0  0  0  0  0  0
   70.9486   45.1093   57.7864 O   0  0  0  0  0  0  0  0  0  0  0  0
   69.0268   44.7954   56.5887 N   0  0  0  0  0  0  0  0  0  0  0  0
   68.9732   46.1386   56.1418 C   0  0  0  0  0  0  0  0  0  0  0  0
   68.7367   46.3480   54.7096 C   0  0  0  0  0  0  0  0  0  0  0  0
   68.0018   45.4853   53.9487 C   0  0  0  0  0  0  0  0  0  0  0  0
   67.7772   45.7049   52.5840 C   0  0  0  0  0  0  0  0  0  0  0  0
   67.0472   44.8449   51.8327 F   0  0  0  0  0  0  0  0  0  0  0  0
   68.3279   46.8270   52.0367 C   0  0  0  0  0  0  0  0  0  0  0  0
   69.0704   47.7069   52.7866 C   0  0  0  0  0  0  0  0  0  0  0  0
   69.7594   49.1379   52.0300 Cl  0  0  0  0  0  0  0  0  0  0  0  0
   69.2742   47.4675   54.1197 C   0  0  0  0  0  0  0  0  0  0  0  0
  8  9  2  0
  9 10  1  0
  9 18  1  0
 10 11  1  0
 11 12  1  0
 12 13  1  0
 12 17  2  0
 13 14  2  0
 14  1  1  0
 14 15  1  0
  1  2  1  0
  1  6  1  0
  2  3  1  0
  3  4  1  0
  4  5  1  6
  4 19  1  0
  4  6  1  0
 19 20  2  0
 19 21  1  0
 21 22  1  0
 22 23  1  0
 23 24  2  0
 23 30  1  0
 24 25  1  0
 25 26  1  0
 25 27  2  0
 27 28  1  0
 28 29  1  0
 28 30  2  0
  6  7  2  0
 15 16  2  0
 16 17  1  0
 17 18  1  0
M  END
>  <minimizedAffinity>  (395) 
-8.56005

$$$$
data/200k_reference_output/data/smiles/33158.pdb
     RDKit          3D

 25 26  0  0  0  0  0  0  0  0999 V2000
   72.9045   51.3747   53.9970 N   0  0  0  0  0  0  0  0  0  0  0  0
   72.1606   50.1727   53.8869 N   0  0  0  0  0  0  0  0  0  0  0  0
   70.8487   50.1339   53.3960 C   0  0  0  0  0  0  0  0  0  0  0  0
   70.3311   51.2317   53.0432 O   0  0  0  0  0  0  0  0  0  0  0  0
   70.0399   48.9247   53.2613 C   0  0  0  0  0  0  0  0  0  0  0  0
   69.9381   48.2254   52.0783 C   0  0  0  0  0  0  0  0  0  0  0  0
   69.1644   47.0771   51.9699 C   0  0  0  0  0  0  0  0  0  0  0  0
   68.4562   46.5770   53.0423 C   0  0  0  0  0  0  0  0  0  0  0  0
   68.5552   47.2770   54.2344 C   0  0  0  0  0  0  0  0  0  0  0  0
   69.3239   48.4155   54.3365 C   0  0  0  0  0  0  0  0  0  0  0  0
   67.6611   45.4026   52.9410 N   0  0  0  0  0  0  0  0  0  0  0  0
   67.6131   44.6353   53.9179 O   0  0  0  0  0  0  0  0  0  0  0  0
   66.9387   45.0572   51.8313 O   0  0  0  0  0  0  0  0  0  0  0  0
   73.7134   51.6572   55.1107 C   0  0  0  0  0  0  0  0  0  0  0  0
   72.9330   52.3400   56.4047 S   0  0  0  0  0  0  0  0  0  0  0  0
   75.7162   50.2226   55.6480 C   0  0  0  0  0  0  0  0  0  0  0  0
   74.9895   49.2415   55.9028 O   0  0  0  0  0  0  0  0  0  0  0  0
   75.0925   51.4287   55.2547 N   0  0  0  0  0  0  0  0  0  0  0  0
   81.4334   49.3639   56.0534 C   0  0  0  0  0  0  0  0  0  0  0  0
   79.9710   49.6082   55.9699 C   0  0  0  0  0  0  0  0  0  0  0  0
   79.1766   48.8300   55.1552 C   0  0  0  0  0  0  0  0  0  0  0  0
   77.8174   49.0385   55.0639 C   0  0  0  0  0  0  0  0  0  0  0  0
   77.1652   50.0408   55.7809 C   0  0  0  0  0  0  0  0  0  0  0  0
   77.9570   50.8156   56.5931 C   0  0  0  0  0  0  0  0  0  0  0  0
   79.3402   50.6008   56.6842 C   0  0  0  0  0  0  0  0  0  0  0  0
 19 20  1  0
 20 21  2  0
 20 25  1  0
 21 22  1  0
 22 23  2  0
 23 16  1  0
 23 24  1  0
 16 17  2  0
 16 18  1  0
 18 14  1  0
 14 15  2  0
 14  1  1  0
  1  2  1  0
  2  3  1  0
  3  4  2  0
  3  5  1  0
  5  6  2  0
  5 10  1  0
  6  7  1  0
  7  8  2  0
  8 11  1  0
  8  9  1  0
 11 12  2  0
 11 13  1  0
  9 10  2  0
 24 25  2  0
M  CHG  2  11   1  13  -1
M  END
>  <minimizedAffinity>  (396) 
-8.69016

$$$$
data/200k_reference_output/data/smiles/33218.pdb
     RDKit          3D

 20 21  0  0  0  0  0  0  0  0999 V2000
   68.9659   47.0018   54.9115 C   0  0  0  0  0  0  0  0  0  0  0  0
   68.1367   46.0572   54.3308 C   0  0  0  0  0  0  0  0  0  0  0  0
   67.8880   46.0473   52.9620 C   0  0  0  0  0  0  0  0  0  0  0  0
   67.0531   45.0824   52.4271 O   0  0  0  0  0  0  0  0  0  0  0  0
   68.4840   47.0040   52.1628 C   0  0  0  0  0  0  0  0  0  0  0  0
   68.2173   46.9685   50.8022 O   0  0  0  0  0  0  0  0  0  0  0  0
   69.3214   47.9670   52.7136 C   0  0  0  0  0  0  0  0  0  0  0  0
   69.5279   47.9271   54.0639 C   0  0  0  0  0  0  0  0  0  0  0  0
   69.9053   48.9273   51.8406 N   0  0  0  0  0  0  0  0  0  0  0  0
   69.7051   50.1486   51.9720 O   0  0  0  0  0  0  0  0  0  0  0  0
   70.7154   48.4403   50.8229 O   0  0  0  0  0  0  0  0  0  0  0  0
   69.0000   45.9455   57.0118 O   0  0  0  0  0  0  0  0  0  0  0  0
   69.2161   46.9981   56.3468 C   0  0  0  0  0  0  0  0  0  0  0  0
   69.7184   48.2199   57.0175 C   0  0  0  0  0  0  0  0  0  0  0  0
   68.6412   49.2241   57.1894 C   0  0  0  0  0  0  0  0  0  0  0  0
   68.8182   50.5054   56.7282 C   0  0  0  0  0  0  0  0  0  0  0  0
   67.7915   51.4148   56.9061 C   0  0  0  0  0  0  0  0  0  0  0  0
   66.6089   51.0809   57.5252 C   0  0  0  0  0  0  0  0  0  0  0  0
   66.4229   49.7919   57.9934 C   0  0  0  0  0  0  0  0  0  0  0  0
   67.4578   48.8986   57.8069 C   0  0  0  0  0  0  0  0  0  0  0  0
 12 13  2  0
 13 14  1  0
 13  1  1  0
 14 15  1  0
 15 16  2  0
 15 20  1  0
 16 17  1  0
 17 18  2  0
 18 19  1  0
 19 20  2  0
  1  2  2  0
  1  8  1  0
  2  3  1  0
  3  4  1  0
  3  5  2  0
  5  6  1  0
  5  7  1  0
  7  9  1  0
  7  8  2  0
  9 10  2  0
  9 11  1  0
M  CHG  2   9   1  11  -1
M  END
>  <minimizedAffinity>  (397) 
-8.92138

$$$$
data/200k_reference_output/data/smiles/33380.pdb
     RDKit          3D

 30 33  0  0  0  0  0  0  0  0999 V2000
   69.8431   47.7283   57.5070 C   0  0  0  0  0  0  0  0  0  0  0  0
   70.8918   48.3967   58.1717 C   0  0  0  0  0  0  0  0  0  0  0  0
   71.7662   47.6996   58.9631 C   0  0  0  0  0  0  0  0  0  0  0  0
   71.6164   46.3394   59.1094 C   0  0  0  0  0  0  0  0  0  0  0  0
   70.6077   45.6394   58.4817 C   0  0  0  0  0  0  0  0  0  0  0  0
   69.7430   46.3708   57.6890 C   0  0  0  0  0  0  0  0  0  0  0  0
   70.5153   44.2037   58.6921 C   0  0  0  0  0  0  0  0  0  0  0  0
   71.5782   43.5053   58.7526 O   0  0  0  0  0  0  0  0  0  0  0  0
   69.3183   43.4700   58.8466 N   0  0  0  0  0  0  0  0  0  0  0  0
   69.3032   42.0334   59.0590 C   0  0  2  0  0  0  0  0  0  0  0  0
   69.0576   41.2404   57.8087 C   0  0  0  0  0  0  0  0  0  0  0  0
   67.6921   41.2746   57.6412 O   0  0  0  0  0  0  0  0  0  0  0  0
   67.1098   41.2339   58.9073 C   0  0  0  0  0  0  0  0  0  0  0  0
   68.1421   41.5999   59.9189 C   0  0  2  0  0  0  0  0  0  0  0  0
   67.7485   42.5808   60.9162 C   0  0  0  0  0  0  0  0  0  0  0  0
   66.6373   43.1403   60.8656 O   0  0  0  0  0  0  0  0  0  0  0  0
   68.6367   42.9144   61.9657 N   0  0  0  0  0  0  0  0  0  0  0  0
   68.3628   43.8149   62.9422 O   0  0  0  0  0  0  0  0  0  0  0  0
   68.9275   48.5150   56.6415 C   0  0  0  0  0  0  0  0  0  0  0  0
   71.6620   51.8653   54.3199 C   0  0  0  0  0  0  0  0  0  0  0  0
   70.8705   50.6058   54.2376 C   0  0  0  0  0  0  0  0  0  0  0  0
   70.2973   50.0947   55.3702 C   0  0  0  0  0  0  0  0  0  0  0  0
   69.5389   48.9221   55.3723 C   0  0  0  0  0  0  0  0  0  0  0  0
   69.3909   48.2906   54.1677 C   0  0  0  0  0  0  0  0  0  0  0  0
   68.6723   47.1171   54.1068 C   0  0  0  0  0  0  0  0  0  0  0  0
   68.5620   46.5003   52.8695 C   0  0  0  0  0  0  0  0  0  0  0  0
   69.1393   47.0259   51.7475 C   0  0  0  0  0  0  0  0  0  0  0  0
   69.8516   48.1847   51.8000 C   0  0  0  0  0  0  0  0  0  0  0  0
   69.9691   48.8104   53.0375 C   0  0  0  0  0  0  0  0  0  0  0  0
   70.6942   49.9470   53.0748 N   0  0  0  0  0  0  0  0  0  0  0  0
 20 21  1  0
 21 22  2  0
 21 30  1  0
 22 23  1  0
 23 19  1  0
 23 24  2  0
 19  1  1  0
  1  2  2  0
  1  6  1  0
  2  3  1  0
  3  4  2  0
  4  5  1  0
  5  7  1  0
  5  6  2  0
  7  8  2  0
  7  9  1  0
 10  9  1  6
 10 11  1  0
 10 14  1  0
 11 12  1  0
 12 13  1  0
 13 14  1  0
 14 15  1  1
 15 16  2  0
 15 17  1  0
 17 18  1  0
 24 25  1  0
 24 29  1  0
 25 26  2  0
 26 27  1  0
 27 28  2  0
 28 29  1  0
 29 30  2  0
M  END
>  <minimizedAffinity>  (398) 
-8.73994

$$$$
data/200k_reference_output/data/smiles/33426.pdb
     RDKit          3D

 24 26  0  0  0  0  0  0  0  0999 V2000
   68.8869   41.9624   57.3416 C   0  0  0  0  0  0  0  0  0  0  0  0
   67.9587   42.0205   56.3270 C   0  0  0  0  0  0  0  0  0  0  0  0
   67.6438   43.2215   55.7565 N   0  0  0  0  0  0  0  0  0  0  0  0
   68.2307   44.3203   56.1803 N   0  0  0  0  0  0  0  0  0  0  0  0
   69.1407   44.3056   57.1662 C   0  0  0  0  0  0  0  0  0  0  0  0
   69.4461   43.1238   57.7214 N   0  0  0  0  0  0  0  0  0  0  0  0
   70.3648   36.9569   59.7963 C   0  0  0  0  0  0  0  0  0  0  0  0
   69.9975   38.2525   59.1644 C   0  0  0  0  0  0  0  0  0  0  0  0
   68.6899   38.4885   58.7983 C   0  0  0  0  0  0  0  0  0  0  0  0
   68.3255   39.6908   58.2063 C   0  0  0  0  0  0  0  0  0  0  0  0
   69.2339   40.6899   57.9595 C   0  0  0  0  0  0  0  0  0  0  0  0
   70.5437   40.4466   58.3286 C   0  0  0  0  0  0  0  0  0  0  0  0
   70.9169   39.2501   58.9196 C   0  0  0  0  0  0  0  0  0  0  0  0
   69.7502   45.5297   57.5898 N   0  0  0  0  0  0  0  0  0  0  0  0
   69.8853   46.5523   56.6691 N   0  0  0  0  0  0  0  0  0  0  0  0
   68.8730   47.5174   56.5294 C   0  0  0  0  0  0  0  0  0  0  0  0
   67.8514   47.4276   57.2565 O   0  0  0  0  0  0  0  0  0  0  0  0
   68.9937   48.6427   55.5343 C   0  0  0  0  0  0  0  0  0  0  0  0
   69.0976   48.1161   54.1591 C   0  0  0  0  0  0  0  0  0  0  0  0
   69.9153   48.6756   53.1965 C   0  0  0  0  0  0  0  0  0  0  0  0
   69.9811   48.1464   51.9141 C   0  0  0  0  0  0  0  0  0  0  0  0
   69.2260   47.0348   51.5548 C   0  0  0  0  0  0  0  0  0  0  0  0
   68.3987   46.4638   52.5187 C   0  0  0  0  0  0  0  0  0  0  0  0
   68.3592   47.0164   53.7804 C   0  0  0  0  0  0  0  0  0  0  0  0
  7  8  1  0
  8  9  2  0
  8 13  1  0
  9 10  1  0
 10 11  2  0
 11  1  1  0
 11 12  1  0
  1  2  2  0
  1  6  1  0
  2  3  1  0
  3  4  2  0
  4  5  1  0
  5 14  1  0
  5  6  2  0
 14 15  1  0
 15 16  1  0
 16 17  2  0
 16 18  1  0
 18 19  1  0
 19 20  2  0
 19 24  1  0
 20 21  1  0
 21 22  2  0
 22 23  1  0
 23 24  2  0
 12 13  2  0
M  END
>  <minimizedAffinity>  (399) 
-8.56719

$$$$
data/200k_reference_output/data/smiles/33541.pdb
     RDKit          3D

 32 35  0  0  0  0  0  0  0  0999 V2000
   71.4862   46.9834   58.8600 C   0  0  0  0  0  0  0  0  0  0  0  0
   70.8658   47.9517   58.0836 C   0  0  0  0  0  0  0  0  0  0  0  0
   69.9622   47.6070   57.0965 C   0  0  0  0  0  0  0  0  0  0  0  0
   69.6690   46.2756   56.8794 C   0  0  0  0  0  0  0  0  0  0  0  0
   70.2754   45.2885   57.6452 C   0  0  0  0  0  0  0  0  0  0  0  0
   71.1876   45.6621   58.6362 C   0  0  0  0  0  0  0  0  0  0  0  0
   71.7660   44.6868   59.3677 F   0  0  0  0  0  0  0  0  0  0  0  0
   77.7032   48.7884   59.0219 C   0  0  0  0  0  0  0  0  0  0  0  0
   78.4433   48.8321   60.0410 O   0  0  0  0  0  0  0  0  0  0  0  0
   76.5022   48.0467   59.1028 N   0  0  0  0  0  0  0  0  0  0  0  0
   75.5759   47.9108   57.9991 C   0  0  0  0  0  0  0  0  0  0  0  0
   74.3725   47.0670   58.3338 C   0  0  0  0  0  0  0  0  0  0  0  0
   73.8326   47.4396   59.6408 N   0  0  0  0  0  0  0  0  0  0  0  0
   72.4288   47.3786   59.8869 C   0  0  0  0  0  0  0  0  0  0  0  0
   72.0159   47.6816   61.0372 O   0  0  0  0  0  0  0  0  0  0  0  0
   74.7214   47.8725   60.6795 C   0  0  0  0  0  0  0  0  0  0  0  0
   76.1290   47.3540   60.3337 C   0  0  0  0  0  0  0  0  0  0  0  0
   78.7551   50.8882   58.2181 C   0  0  0  0  0  0  0  0  0  0  0  0
   78.1818   49.5216   57.8512 C   0  0  0  0  0  0  0  0  0  0  0  0
   79.1460   48.8175   56.9733 C   0  0  0  0  0  0  0  0  0  0  0  0
   69.2531   48.6186   56.3223 C   0  0  0  0  0  0  0  0  0  0  0  0
   69.5987   48.5321   54.8848 C   0  0  0  0  0  0  0  0  0  0  0  0
   70.7268   49.2204   54.4326 N   0  0  0  0  0  0  0  0  0  0  0  0
   71.0492   49.1581   53.1501 N   0  0  0  0  0  0  0  0  0  0  0  0
   70.3685   48.4762   52.2309 C   0  0  0  0  0  0  0  0  0  0  0  0
   70.6835   48.4223   51.0095 O   0  0  0  0  0  0  0  0  0  0  0  0
   69.2402   47.7725   52.6150 C   0  0  0  0  0  0  0  0  0  0  0  0
   68.8995   47.8366   53.9580 C   0  0  0  0  0  0  0  0  0  0  0  0
   67.6672   47.0629   54.3230 C   0  0  0  0  0  0  0  0  0  0  0  0
   67.7984   45.6753   53.7866 C   0  0  0  0  0  0  0  0  0  0  0  0
   68.3397   45.5741   52.3895 C   0  0  0  0  0  0  0  0  0  0  0  0
   68.3859   46.9591   51.7183 C   0  0  0  0  0  0  0  0  0  0  0  0
 18 19  1  0
 19 20  1  0
 19  8  1  0
  8  9  2  0
  8 10  1  0
 10 11  1  0
 10 17  1  0
 11 12  1  0
 12 13  1  0
 13 14  1  0
 13 16  1  0
 14 15  2  0
 14  1  1  0
  1  2  2  0
  1  6  1  0
  2  3  1  0
  3 21  1  0
  3  4  2  0
 21 22  1  0
 22 23  2  0
 22 28  1  0
 23 24  1  0
 24 25  1  0
 25 26  2  0
 25 27  1  0
 27 28  2  0
 27 32  1  0
 28 29  1  0
 29 30  1  0
 30 31  1  0
 31 32  1  0
  4  5  1  0
  5  6  2  0
  6  7  1  0
 16 17  1  0
M  END
>  <minimizedAffinity>  (400) 
-8.65207

$$$$
data/200k_reference_output/data/smiles/33598.pdb
     RDKit          3D

 28 31  0  0  0  0  0  0  0  0999 V2000
   69.8306   49.7820   55.9236 N   0  0  0  0  0  0  0  0  0  0  0  0
   68.8073   50.7642   56.0001 C   0  0  0  0  0  0  0  0  0  0  0  0
   67.7359   50.5609   56.6665 O   0  0  0  0  0  0  0  0  0  0  0  0
   69.0639   52.0020   55.2728 C   0  0  0  0  0  0  0  0  0  0  0  0
   70.4050   51.5129   54.1307 S   0  0  0  0  0  0  0  0  0  0  0  0
   70.4660   49.7358   54.6786 C   0  0  2  0  0  0  0  0  0  0  0  0
   69.9107   48.9679   53.5868 C   0  0  0  0  0  0  0  0  0  0  0  0
   70.0967   49.3793   52.2562 C   0  0  0  0  0  0  0  0  0  0  0  0
   69.5047   48.5141   51.4235 N   0  0  0  0  0  0  0  0  0  0  0  0
   68.9369   47.5510   52.1467 C   0  0  0  0  0  0  0  0  0  0  0  0
   68.2142   46.4412   51.7802 C   0  0  0  0  0  0  0  0  0  0  0  0
   67.7444   45.6151   52.7807 C   0  0  0  0  0  0  0  0  0  0  0  0
   67.9755   45.8660   54.1054 C   0  0  0  0  0  0  0  0  0  0  0  0
   68.7038   46.9822   54.4792 C   0  0  0  0  0  0  0  0  0  0  0  0
   69.1746   47.8101   53.4874 C   0  0  0  0  0  0  0  0  0  0  0  0
   71.8102   50.3497   57.8946 O   0  0  0  0  0  0  0  0  0  0  0  0
   71.1392   49.2934   57.9954 C   0  0  0  0  0  0  0  0  0  0  0  0
   70.1534   48.9705   57.0355 N   0  0  0  0  0  0  0  0  0  0  0  0
   71.4520   48.4355   59.1602 C   0  0  0  0  0  0  0  0  0  0  0  0
   71.9576   47.1295   58.8270 N   0  0  0  0  0  0  0  0  0  0  0  0
   71.1297   46.0027   58.5992 C   0  0  0  0  0  0  0  0  0  0  0  0
   69.8752   46.1764   58.7114 O   0  0  0  0  0  0  0  0  0  0  0  0
   71.6452   44.6839   58.2491 C   0  0  0  0  0  0  0  0  0  0  0  0
   73.0197   44.4983   58.0620 C   0  0  0  0  0  0  0  0  0  0  0  0
   73.5560   43.2725   57.7304 C   0  0  0  0  0  0  0  0  0  0  0  0
   72.7484   42.1667   57.5683 C   0  0  0  0  0  0  0  0  0  0  0  0
   71.3960   42.3478   57.7522 C   0  0  0  0  0  0  0  0  0  0  0  0
   70.8415   43.5906   58.0889 C   0  0  0  0  0  0  0  0  0  0  0  0
 16 17  2  0
 17 19  1  0
 17 18  1  0
 19 20  1  0
 20 21  1  0
 21 22  2  0
 21 23  1  0
 23 24  2  0
 23 28  1  0
 24 25  1  0
 25 26  2  0
 26 27  1  0
 27 28  2  0
 18  1  1  0
  1  2  1  0
  1  6  1  0
  2  3  2  0
  2  4  1  0
  4  5  1  0
  5  6  1  0
  6  7  1  6
  7  8  2  0
  7 15  1  0
  8  9  1  0
  9 10  1  0
 10 11  1  0
 10 15  2  0
 11 12  2  0
 12 13  1  0
 13 14  2  0
 14 15  1  0
M  END
>  <minimizedAffinity>  (401) 
-8.50352

$$$$
data/200k_reference_output/data/smiles/33620.pdb
     RDKit          3D

 25 26  0  0  0  0  0  0  0  0999 V2000
   74.4338   50.2276   54.4650 O   0  0  0  0  0  0  0  0  0  0  0  0
   73.7450   51.2524   54.3665 C   0  0  0  0  0  0  0  0  0  0  0  0
   72.3931   51.1475   54.0279 N   0  0  0  0  0  0  0  0  0  0  0  0
   71.6222   50.0554   53.7645 N   0  0  0  0  0  0  0  0  0  0  0  0
   70.2439   49.9005   53.5890 C   0  0  0  0  0  0  0  0  0  0  0  0
   69.5234   50.9188   53.6779 O   0  0  0  0  0  0  0  0  0  0  0  0
   69.5918   48.6047   53.3050 C   0  0  0  0  0  0  0  0  0  0  0  0
   68.8533   47.8992   54.2193 C   0  0  0  0  0  0  0  0  0  0  0  0
   68.2617   46.6798   53.8905 C   0  0  0  0  0  0  0  0  0  0  0  0
   68.3961   46.1339   52.6332 C   0  0  0  0  0  0  0  0  0  0  0  0
   69.1357   46.8362   51.7107 C   0  0  0  0  0  0  0  0  0  0  0  0
   69.7140   48.0419   52.0529 C   0  0  0  0  0  0  0  0  0  0  0  0
   70.4673   48.7518   51.1072 O   0  0  0  0  0  0  0  0  0  0  0  0
   74.3736   52.6200   54.6135 C   0  0  0  0  0  0  0  0  0  0  0  0
   73.5412   53.3511   55.6648 C   0  0  0  0  0  0  0  0  0  0  0  0
   72.4404   52.5182   56.1107 N   0  0  0  0  0  0  0  0  0  0  0  0
   71.1374   53.0182   56.3360 C   0  0  0  0  0  0  0  0  0  0  0  0
   70.9505   54.2433   56.1337 O   0  0  0  0  0  0  0  0  0  0  0  0
   70.0218   52.1963   56.7831 C   0  0  0  0  0  0  0  0  0  0  0  0
   70.2420   51.1637   57.6721 C   0  0  0  0  0  0  0  0  0  0  0  0
   69.2164   50.3573   58.1239 C   0  0  0  0  0  0  0  0  0  0  0  0
   67.9186   50.5553   57.6990 C   0  0  0  0  0  0  0  0  0  0  0  0
   66.4849   49.4480   58.3153 Br  0  0  0  0  0  0  0  0  0  0  0  0
   67.6783   51.5816   56.8113 C   0  0  0  0  0  0  0  0  0  0  0  0
   68.7237   52.3798   56.3698 C   0  0  0  0  0  0  0  0  0  0  0  0
  1  2  2  0
  2 14  1  0
  2  3  1  0
 14 15  1  0
 15 16  1  0
 16 17  1  0
 17 18  2  0
 17 19  1  0
 19 20  2  0
 19 25  1  0
 20 21  1  0
 21 22  2  0
 22 23  1  0
 22 24  1  0
 24 25  2  0
  3  4  1  0
  4  5  1  0
  5  6  2  0
  5  7  1  0
  7  8  2  0
  7 12  1  0
  8  9  1  0
  9 10  2  0
 10 11  1  0
 11 12  2  0
 12 13  1  0
M  END
>  <minimizedAffinity>  (402) 
-9.04850

$$$$
data/200k_reference_output/data/smiles/33715.pdb
     RDKit          3D

 29 32  0  0  0  0  0  0  0  0999 V2000
   69.7409   45.7041   58.0139 N   0  0  0  0  0  0  0  0  0  0  0  0
   72.1615   45.3077   59.0495 S   0  0  0  0  0  0  0  0  0  0  0  0
   70.7378   44.7682   58.3625 C   0  0  0  0  0  0  0  0  0  0  0  0
   70.5744   43.3904   58.1495 N   0  0  0  0  0  0  0  0  0  0  0  0
   71.7151   42.6699   57.5772 C   0  0  0  0  0  0  0  0  0  0  0  0
   71.9035   41.3365   58.2891 C   0  0  0  0  0  0  0  0  0  0  0  0
   70.6821   40.5515   58.2435 N   0  0  0  0  0  0  0  0  0  0  0  0
   69.4955   41.2233   57.7969 C   0  0  0  0  0  0  0  0  0  0  0  0
   69.3917   42.6142   58.4352 C   0  0  0  0  0  0  0  0  0  0  0  0
   70.7291   39.1822   58.6381 C   0  0  0  0  0  0  0  0  0  0  0  0
   69.8340   38.7004   59.5672 C   0  0  0  0  0  0  0  0  0  0  0  0
   69.8238   37.3814   59.9973 C   0  0  0  0  0  0  0  0  0  0  0  0
   70.7437   36.4917   59.4816 C   0  0  0  0  0  0  0  0  0  0  0  0
   71.6364   36.9782   58.5536 C   0  0  0  0  0  0  0  0  0  0  0  0
   71.6404   38.2963   58.1301 C   0  0  0  0  0  0  0  0  0  0  0  0
   69.3714   45.9597   56.7396 N   0  0  0  0  0  0  0  0  0  0  0  0
   68.7639   46.8733   56.1499 C   0  0  0  0  0  0  0  0  0  0  0  0
   68.5989   46.6942   54.6720 C   0  0  0  0  0  0  0  0  0  0  0  0
   69.1389   47.5766   53.7696 C   0  0  0  0  0  0  0  0  0  0  0  0
   68.9844   47.4052   52.3992 C   0  0  0  0  0  0  0  0  0  0  0  0
   68.2730   46.3237   51.9218 C   0  0  0  0  0  0  0  0  0  0  0  0
   67.7456   45.4581   52.8593 C   0  0  0  0  0  0  0  0  0  0  0  0
   67.9097   45.6479   54.1839 N   0  0  0  0  0  0  0  0  0  0  0  0
   68.1984   48.0705   56.7606 C   0  0  0  0  0  0  0  0  0  0  0  0
   68.7492   49.3161   56.6764 C   0  0  0  0  0  0  0  0  0  0  0  0
   68.1563   50.4368   57.2820 C   0  0  0  0  0  0  0  0  0  0  0  0
   66.9857   50.2980   57.9856 C   0  0  0  0  0  0  0  0  0  0  0  0
   66.4453   49.0334   58.0588 C   0  0  0  0  0  0  0  0  0  0  0  0
   67.0321   47.9857   57.4732 N   0  0  0  0  0  0  0  0  0  0  0  0
  2  3  2  0
  3  1  1  0
  3  4  1  0
  1 16  1  0
 16 17  2  0
 17 18  1  0
 17 24  1  0
 18 19  2  0
 18 23  1  0
 19 20  1  0
 20 21  2  0
 21 22  1  0
 22 23  2  0
 24 25  2  0
 24 29  1  0
 25 26  1  0
 26 27  2  0
 27 28  1  0
 28 29  2  0
  4  5  1  0
  4  9  1  0
  5  6  1  0
  6  7  1  0
  7 10  1  0
  7  8  1  0
 10 11  2  0
 10 15  1  0
 11 12  1  0
 12 13  2  0
 13 14  1  0
 14 15  2  0
  8  9  1  0
M  END
>  <minimizedAffinity>  (403) 
-9.53314

$$$$
data/200k_reference_output/data/smiles/33720.pdb
     RDKit          3D

 22 24  0  0  0  0  0  0  0  0999 V2000
   68.8649   48.4382   56.1707 C   0  0  0  0  0  0  0  0  0  0  0  0
   69.2805   48.4844   54.7598 C   0  0  0  0  0  0  0  0  0  0  0  0
   70.1512   49.4152   54.3543 N   0  0  0  0  0  0  0  0  0  0  0  0
   70.5729   49.5248   53.1043 N   0  0  0  0  0  0  0  0  0  0  0  0
   70.1173   48.6638   52.1668 C   0  0  0  0  0  0  0  0  0  0  0  0
   70.5336   48.7884   50.9875 O   0  0  0  0  0  0  0  0  0  0  0  0
   69.2209   47.6701   52.4829 C   0  0  0  0  0  0  0  0  0  0  0  0
   68.7661   46.8002   51.5257 C   0  0  0  0  0  0  0  0  0  0  0  0
   67.8704   45.8249   51.8998 C   0  0  0  0  0  0  0  0  0  0  0  0
   67.4261   45.7077   53.2123 C   0  0  0  0  0  0  0  0  0  0  0  0
   67.9197   46.6153   54.1352 C   0  0  0  0  0  0  0  0  0  0  0  0
   68.8092   47.6031   53.8207 C   0  0  0  0  0  0  0  0  0  0  0  0
   70.9062   48.3151   57.3144 O   0  0  0  0  0  0  0  0  0  0  0  0
   69.8556   47.7190   57.0003 C   0  0  0  0  0  0  0  0  0  0  0  0
   69.6606   46.3951   57.4475 N   0  0  0  0  0  0  0  0  0  0  0  0
   70.6828   45.7667   58.2519 C   0  0  0  0  0  0  0  0  0  0  0  0
   70.5277   44.3026   58.1220 C   0  0  0  0  0  0  0  0  0  0  0  0
   71.6906   43.5384   58.0225 C   0  0  0  0  0  0  0  0  0  0  0  0
   71.6277   42.1639   57.8932 C   0  0  0  0  0  0  0  0  0  0  0  0
   70.3910   41.5655   57.8664 C   0  0  0  0  0  0  0  0  0  0  0  0
   69.2442   42.3263   57.9654 C   0  0  0  0  0  0  0  0  0  0  0  0
   69.3611   43.6591   58.0889 N   0  0  0  0  0  0  0  0  0  0  0  0
 13 14  2  0
 14  1  1  0
 14 15  1  0
  1  2  1  0
  2  3  2  0
  2 12  1  0
  3  4  1  0
  4  5  1  0
  5  6  2  0
  5  7  1  0
  7  8  1  0
  7 12  2  0
  8  9  2  0
  9 10  1  0
 10 11  2  0
 11 12  1  0
 15 16  1  0
 16 17  1  0
 17 18  2  0
 17 22  1  0
 18 19  1  0
 19 20  2  0
 20 21  1  0
 21 22  2  0
M  END
>  <minimizedAffinity>  (404) 
-8.51486

$$$$
data/200k_reference_output/data/smiles/33919.pdb
     RDKit          3D

 31 34  0  0  0  0  0  0  0  0999 V2000
   71.0728   40.2763   58.3268 N   0  0  0  0  0  0  0  0  0  0  0  0
   69.9858   41.2218   58.1464 C   0  0  0  0  0  0  0  0  0  0  0  0
   70.4359   42.4223   57.3916 C   0  0  0  0  0  0  0  0  0  0  0  0
   71.4669   43.1829   58.1592 C   0  0  0  0  0  0  0  0  0  0  0  0
   71.9291   42.3274   59.3088 C   0  0  0  0  0  0  0  0  0  0  0  0
   72.2720   40.9356   58.8020 C   0  0  0  0  0  0  0  0  0  0  0  0
   70.6576   39.0353   59.4428 S   0  0  0  0  0  0  0  0  0  0  0  0
   71.0674   39.3691   60.8287 O   0  0  0  0  0  0  0  0  0  0  0  0
   69.1478   38.9172   59.4224 O   0  0  0  0  0  0  0  0  0  0  0  0
   72.8351   33.6428   57.6713 C   0  0  0  0  0  0  0  0  0  0  0  0
   72.3106   34.9745   58.0904 C   0  0  0  0  0  0  0  0  0  0  0  0
   72.6044   36.1338   57.4039 C   0  0  0  0  0  0  0  0  0  0  0  0
   72.1011   37.3507   57.8203 C   0  0  0  0  0  0  0  0  0  0  0  0
   71.2889   37.4759   58.9282 C   0  0  0  0  0  0  0  0  0  0  0  0
   70.9959   36.3162   59.6136 C   0  0  0  0  0  0  0  0  0  0  0  0
   71.4991   35.1020   59.1961 C   0  0  0  0  0  0  0  0  0  0  0  0
   70.9883   44.5191   58.5795 C   0  0  0  0  0  0  0  0  0  0  0  0
   70.6702   44.7128   59.7940 O   0  0  0  0  0  0  0  0  0  0  0  0
   70.8547   45.5963   57.7169 O   0  0  0  0  0  0  0  0  0  0  0  0
   69.6447   46.0276   57.1982 C   0  0  0  0  0  0  0  0  0  0  0  0
   69.5202   47.3841   56.7099 C   0  0  0  0  0  0  0  0  0  0  0  0
   69.6681   48.3089   57.6136 O   0  0  0  0  0  0  0  0  0  0  0  0
   69.2658   47.8713   55.4231 N   0  0  0  0  0  0  0  0  0  0  0  0
   69.4667   49.2672   54.9449 C   0  0  0  0  0  0  0  0  0  0  0  0
   70.0737   48.9701   53.5756 C   0  0  0  0  0  0  0  0  0  0  0  0
   69.2614   47.8143   53.1029 C   0  0  0  0  0  0  0  0  0  0  0  0
   68.9517   47.3884   51.8382 C   0  0  0  0  0  0  0  0  0  0  0  0
   68.1339   46.2829   51.7245 C   0  0  0  0  0  0  0  0  0  0  0  0
   67.6564   45.6420   52.8497 C   0  0  0  0  0  0  0  0  0  0  0  0
   67.9868   46.0948   54.1106 C   0  0  0  0  0  0  0  0  0  0  0  0
   68.8093   47.2085   54.2505 C   0  0  0  0  0  0  0  0  0  0  0  0
 10 11  1  0
 11 12  2  0
 11 16  1  0
 12 13  1  0
 13 14  2  0
 14  7  1  0
 14 15  1  0
  7  8  2  0
  7  9  2  0
  7  1  1  0
  1  2  1  0
  1  6  1  0
  2  3  1  0
  3  4  1  0
  4 17  1  0
  4  5  1  0
 17 18  2  0
 17 19  1  0
 19 20  1  0
 20 21  1  0
 21 22  2  0
 21 23  1  0
 23 24  1  0
 23 31  1  0
 24 25  1  0
 25 26  1  0
 26 27  1  0
 26 31  2  0
 27 28  2  0
 28 29  1  0
 29 30  2  0
 30 31  1  0
  5  6  1  0
 15 16  2  0
M  END
>  <minimizedAffinity>  (405) 
-9.06155

$$$$
data/200k_reference_output/data/smiles/33922.pdb
     RDKit          3D

 31 35  0  0  0  0  0  0  0  0999 V2000
   73.3961   47.4446   61.2532 C   0  0  0  0  0  0  0  0  0  0  0  0
   72.6105   46.4158   60.7876 C   0  0  0  0  0  0  0  0  0  0  0  0
   71.8285   46.5438   59.6292 C   0  0  0  0  0  0  0  0  0  0  0  0
   71.8018   47.6977   58.8970 C   0  0  0  0  0  0  0  0  0  0  0  0
   72.6076   48.7316   59.3899 C   0  0  0  0  0  0  0  0  0  0  0  0
   73.3770   48.6127   60.5249 C   0  0  0  0  0  0  0  0  0  0  0  0
   71.0556   47.9363   57.7214 N   0  0  0  0  0  0  0  0  0  0  0  0
   69.9901   47.1693   57.2291 C   0  0  0  0  0  0  0  0  0  0  0  0
   69.6274   46.1437   57.8801 O   0  0  0  0  0  0  0  0  0  0  0  0
   69.2968   47.4916   56.0284 N   0  0  0  0  0  0  0  0  0  0  0  0
   68.2044   46.7495   55.4774 C   0  0  0  0  0  0  0  0  0  0  0  0
   68.4088   46.9000   54.0229 C   0  0  0  0  0  0  0  0  0  0  0  0
   67.9709   46.1816   52.9368 C   0  0  0  0  0  0  0  0  0  0  0  0
   68.3232   46.5564   51.6374 C   0  0  0  0  0  0  0  0  0  0  0  0
   69.0982   47.6332   51.4754 N   0  0  0  0  0  0  0  0  0  0  0  0
   69.5272   48.3392   52.5412 C   0  0  0  0  0  0  0  0  0  0  0  0
   69.2062   48.0064   53.8303 C   0  0  0  0  0  0  0  0  0  0  0  0
   69.5364   48.5952   55.1436 C   0  0  0  0  0  0  0  0  0  0  0  0
   75.3138   46.7731   64.1182 C   0  0  0  0  0  0  0  0  0  0  0  0
   73.8713   47.1225   63.8283 C   0  0  0  0  0  0  0  0  0  0  0  0
   74.1916   47.3150   62.4283 N   0  0  0  0  0  0  0  0  0  0  0  0
   75.6035   47.3138   62.7540 C   0  0  0  0  0  0  0  0  0  0  0  0
   75.2217   47.8098   66.2752 O   0  0  0  0  0  0  0  0  0  0  0  0
   75.8855   47.6022   65.2042 C   0  0  0  0  0  0  0  0  0  0  0  0
   77.1754   48.1601   65.0341 N   0  0  0  0  0  0  0  0  0  0  0  0
   77.7583   48.9680   66.0682 C   0  0  0  0  0  0  0  0  0  0  0  0
   78.7978   48.2614   66.8916 C   0  0  1  0  0  0  0  0  0  0  0  0
   79.6923   47.5002   65.9171 C   0  0  0  0  0  0  0  0  0  0  0  0
   80.9915   47.4572   66.6565 C   0  0  0  0  0  0  0  0  0  0  0  0
   80.7465   48.3508   67.8496 C   0  0  0  0  0  0  0  0  0  0  0  0
   79.6453   49.1457   67.5419 O   0  0  0  0  0  0  0  0  0  0  0  0
 23 24  2  0
 24 25  1  0
 24 19  1  0
 25 26  1  0
 27 26  1  6
 27 28  1  0
 27 31  1  0
 28 29  1  0
 29 30  1  0
 30 31  1  0
 19 20  1  0
 19 22  1  0
 20 21  1  0
 21  1  1  0
 21 22  1  0
  1  2  2  0
  1  6  1  0
  2  3  1  0
  3  4  2  0
  4  7  1  0
  4  5  1  0
  7  8  1  0
  8  9  2  0
  8 10  1  0
 10 11  1  0
 10 18  1  0
 11 12  1  0
 12 13  1  0
 12 17  2  0
 13 14  2  0
 14 15  1  0
 15 16  2  0
 16 17  1  0
 17 18  1  0
  5  6  2  0
M  END
>  <minimizedAffinity>  (406) 
-8.55439

$$$$
data/200k_reference_output/data/smiles/34122.pdb
     RDKit          3D

 24 26  0  0  0  0  0  0  0  0999 V2000
   70.8925   45.9787   58.4317 O   0  0  0  0  0  0  0  0  0  0  0  0
   70.3670   45.0840   57.7663 C   0  0  0  0  0  0  0  0  0  0  0  0
   69.3204   45.4711   56.8220 N   0  0  0  0  0  0  0  0  0  0  0  0
   70.7641   43.6968   57.9010 C   0  0  0  0  0  0  0  0  0  0  0  0
   72.0624   43.2569   58.0088 C   0  0  0  0  0  0  0  0  0  0  0  0
   72.3141   41.8968   58.1602 C   0  0  0  0  0  0  0  0  0  0  0  0
   71.3198   40.9468   58.2089 C   0  0  0  0  0  0  0  0  0  0  0  0
   71.5643   39.6370   58.3584 N   0  0  0  0  0  0  0  0  0  0  0  0
   70.5687   38.7227   58.4092 C   0  0  0  0  0  0  0  0  0  0  0  0
   69.2469   39.1049   58.3059 C   0  0  0  0  0  0  0  0  0  0  0  0
   69.0031   40.4522   58.1522 C   0  0  0  0  0  0  0  0  0  0  0  0
   70.0096   41.4065   58.0976 C   0  0  0  0  0  0  0  0  0  0  0  0
   69.7419   42.7406   57.9491 C   0  0  0  0  0  0  0  0  0  0  0  0
   68.9449   46.7147   56.6844 N   0  0  0  0  0  0  0  0  0  0  0  0
   68.6676   47.4213   55.7610 C   0  0  0  0  0  0  0  0  0  0  0  0
   68.6113   47.2820   54.3361 C   0  0  0  0  0  0  0  0  0  0  0  0
   67.7756   46.1800   53.9452 C   0  0  0  0  0  0  0  0  0  0  0  0
   67.6896   45.7659   52.6641 C   0  0  0  0  0  0  0  0  0  0  0  0
   68.4080   46.3948   51.6963 C   0  0  0  0  0  0  0  0  0  0  0  0
   69.1911   47.4349   52.0391 C   0  0  0  0  0  0  0  0  0  0  0  0
   69.3062   47.9150   53.3946 C   0  0  0  0  0  0  0  0  0  0  0  0
   70.0895   49.0895   53.4366 N   0  0  0  0  0  0  0  0  0  0  0  0
   69.3894   50.1573   53.5973 O   0  0  0  0  0  0  0  0  0  0  0  0
   71.3912   49.3271   53.2851 O   0  0  0  0  0  0  0  0  0  0  0  0
  1  2  2  0
  2  3  1  0
  2  4  1  0
  3 14  1  0
 14 15  2  0
 15 16  1  0
 16 17  2  0
 16 21  1  0
 17 18  1  0
 18 19  2  0
 19 20  1  0
 20 21  2  0
 21 22  1  0
 22 23  2  0
 22 24  1  0
  4  5  2  0
  4 13  1  0
  5  6  1  0
  6  7  2  0
  7  8  1  0
  7 12  1  0
  8  9  2  0
  9 10  1  0
 10 11  2  0
 11 12  1  0
 12 13  2  0
M  CHG  2  22   1  24  -1
M  END
>  <minimizedAffinity>  (407) 
-8.78201

$$$$
data/200k_reference_output/data/smiles/34217.pdb
     RDKit          3D

 29 32  0  0  0  0  0  0  0  0999 V2000
   67.9123   45.3618   54.2648 C   0  0  0  0  0  0  0  0  0  0  0  0
   68.0698   45.4308   52.8996 C   0  0  0  0  0  0  0  0  0  0  0  0
   68.6445   46.5182   52.2660 C   0  0  0  0  0  0  0  0  0  0  0  0
   69.0986   47.6080   53.0011 C   0  0  0  0  0  0  0  0  0  0  0  0
   68.9435   47.5426   54.3664 C   0  0  0  0  0  0  0  0  0  0  0  0
   68.3677   46.4527   54.9957 C   0  0  0  0  0  0  0  0  0  0  0  0
   69.4989   48.8025   54.8770 C   0  0  0  0  0  0  0  0  0  0  0  0
   69.5365   49.1140   56.1085 O   0  0  0  0  0  0  0  0  0  0  0  0
   69.9750   49.5968   53.7991 N   0  0  0  0  0  0  0  0  0  0  0  0
   69.7316   48.8608   52.6083 C   0  0  0  0  0  0  0  0  0  0  0  0
   70.0079   49.2154   51.4105 O   0  0  0  0  0  0  0  0  0  0  0  0
   70.6034   50.9261   53.8521 C   0  0  1  0  0  0  0  0  0  0  0  0
   69.6550   51.9937   54.2731 C   0  0  0  0  0  0  0  0  0  0  0  0
   69.6737   52.3867   55.6970 C   0  0  0  0  0  0  0  0  0  0  0  0
   70.9368   52.1669   56.4059 C   0  0  0  0  0  0  0  0  0  0  0  0
   71.0958   52.7151   57.5265 O   0  0  0  0  0  0  0  0  0  0  0  0
   72.0018   51.3711   55.9108 N   0  0  0  0  0  0  0  0  0  0  0  0
   71.8754   50.8891   54.5847 C   0  0  0  0  0  0  0  0  0  0  0  0
   72.9223   50.4122   54.0401 O   0  0  0  0  0  0  0  0  0  0  0  0
   67.2992   44.2479   54.9376 N   0  0  0  0  0  0  0  0  0  0  0  0
   69.2616   41.6942   57.6562 C   0  0  0  0  0  0  0  0  0  0  0  0
   69.7211   42.9722   57.4400 C   0  0  0  0  0  0  0  0  0  0  0  0
   69.0697   43.8050   56.5364 C   0  0  0  0  0  0  0  0  0  0  0  0
   67.9690   43.4071   55.8354 C   0  0  0  0  0  0  0  0  0  0  0  0
   67.5157   42.1297   56.0562 C   0  0  0  0  0  0  0  0  0  0  0  0
   68.1515   41.2778   56.9555 C   0  0  0  0  0  0  0  0  0  0  0  0
   71.4350   40.7835   58.4491 C   0  0  0  0  0  0  0  0  0  0  0  0
   69.9330   40.7703   58.6175 C   0  0  0  0  0  0  0  0  0  0  0  0
   69.4408   39.3742   58.3952 C   0  0  0  0  0  0  0  0  0  0  0  0
 27 28  1  0
 28 29  1  0
 28 21  1  0
 21 22  2  0
 21 26  1  0
 22 23  1  0
 23 24  2  0
 24 20  1  0
 24 25  1  0
 20  1  1  0
  1  2  2  0
  1  6  1  0
  2  3  1  0
  3  4  2  0
  4  5  1  0
  4 10  1  0
  5  6  2  0
  5  7  1  0
  7  8  2  0
  7  9  1  0
 12  9  1  1
  9 10  1  0
 12 13  1  0
 12 18  1  0
 13 14  1  0
 14 15  1  0
 15 16  2  0
 15 17  1  0
 17 18  1  0
 18 19  2  0
 10 11  2  0
 25 26  2  0
M  END
>  <minimizedAffinity>  (408) 
-8.98178

$$$$
data/200k_reference_output/data/smiles/34321.pdb
     RDKit          3D

 21 22  0  0  0  0  0  0  0  0999 V2000
   68.0465   45.4889   54.5462 C   0  0  0  0  0  0  0  0  0  0  0  0
   68.6429   46.4929   55.3756 C   0  0  0  0  0  0  0  0  0  0  0  0
   69.2236   47.6188   54.8765 C   0  0  0  0  0  0  0  0  0  0  0  0
   69.2735   47.8655   53.5250 C   0  0  0  0  0  0  0  0  0  0  0  0
   68.7115   46.9281   52.7003 C   0  0  0  0  0  0  0  0  0  0  0  0
   68.1109   45.7609   53.2285 C   0  0  0  0  0  0  0  0  0  0  0  0
   67.5741   44.9521   52.2945 F   0  0  0  0  0  0  0  0  0  0  0  0
   70.0157   49.3043   52.8616 S   0  0  0  0  0  0  0  0  0  0  0  0
   69.9192   49.3070   51.1442 N   0  0  0  0  0  0  0  0  0  0  0  0
   69.3213   50.5155   53.3865 O   0  0  0  0  0  0  0  0  0  0  0  0
   71.4593   49.4013   53.2653 O   0  0  0  0  0  0  0  0  0  0  0  0
   67.5338   44.4730   55.1897 O   0  0  0  0  0  0  0  0  0  0  0  0
   68.7889   41.1437   57.4007 C   0  0  0  0  0  0  0  0  0  0  0  0
   69.4394   42.3543   57.4311 C   0  0  0  0  0  0  0  0  0  0  0  0
   69.0122   43.4146   56.7047 C   0  0  0  0  0  0  0  0  0  0  0  0
   67.8547   43.3666   55.8505 C   0  0  0  0  0  0  0  0  0  0  0  0
   67.2410   42.1561   55.8499 C   0  0  0  0  0  0  0  0  0  0  0  0
   66.0991   41.9703   55.0690 O   0  0  0  0  0  0  0  0  0  0  0  0
   67.6834   41.0457   56.6048 C   0  0  0  0  0  0  0  0  0  0  0  0
   68.1208   39.0327   58.4705 C   0  0  0  0  0  0  0  0  0  0  0  0
   69.2612   39.9838   58.1950 C   0  0  0  0  0  0  0  0  0  0  0  0
 20 21  1  0
 21 13  1  0
 13 14  2  0
 13 19  1  0
 14 15  1  0
 15 16  2  0
 16 12  1  0
 16 17  1  0
 12  1  1  0
  1  2  2  0
  1  6  1  0
  2  3  1  0
  3  4  2  0
  4  8  1  0
  4  5  1  0
  8  9  1  0
  8 10  2  0
  8 11  2  0
  5  6  2  0
  6  7  1  0
 17 18  1  0
 17 19  2  0
M  END
>  <minimizedAffinity>  (409) 
-9.08854

$$$$
data/200k_reference_output/data/smiles/34391.pdb
     RDKit          3D

 27 29  0  0  0  0  0  0  0  0999 V2000
   71.3554   41.5127   58.4642 C   0  0  0  0  0  0  0  0  0  0  0  0
   70.2346   42.1386   58.9732 C   0  0  0  0  0  0  0  0  0  0  0  0
   70.1106   43.5165   58.9919 C   0  0  0  0  0  0  0  0  0  0  0  0
   71.0909   44.3487   58.5056 C   0  0  0  0  0  0  0  0  0  0  0  0
   72.2290   43.7154   57.9889 C   0  0  0  0  0  0  0  0  0  0  0  0
   72.3427   42.3476   57.9758 C   0  0  0  0  0  0  0  0  0  0  0  0
   70.9818   46.0923   58.4987 S   0  0  0  0  0  0  0  0  0  0  0  0
   71.1274   46.6315   59.9175 O   0  0  0  0  0  0  0  0  0  0  0  0
   72.1247   46.7042   57.7319 O   0  0  0  0  0  0  0  0  0  0  0  0
   69.5182   46.6513   57.8511 N   0  0  0  0  0  0  0  0  0  0  0  0
   69.0473   46.4707   56.5375 C   0  0  0  0  0  0  0  0  0  0  0  0
   69.0648   47.4910   55.6218 C   0  0  0  0  0  0  0  0  0  0  0  0
   68.6086   47.2448   54.3295 C   0  0  0  0  0  0  0  0  0  0  0  0
   68.1385   46.0100   53.9321 C   0  0  0  0  0  0  0  0  0  0  0  0
   68.1401   45.0152   54.8856 C   0  0  0  0  0  0  0  0  0  0  0  0
   68.5763   45.2451   56.1273 N   0  0  0  0  0  0  0  0  0  0  0  0
   71.5858   38.8799   58.4255 C   0  0  0  0  0  0  0  0  0  0  0  0
   71.4759   40.0821   58.4488 C   0  0  0  0  0  0  0  0  0  0  0  0
   72.5856   35.4001   57.4611 C   0  0  0  0  0  0  0  0  0  0  0  0
   71.9814   34.6652   58.4556 C   0  0  0  0  0  0  0  0  0  0  0  0
   71.2633   35.3057   59.4173 C   0  0  0  0  0  0  0  0  0  0  0  0
   71.1462   36.6754   59.3896 C   0  0  0  0  0  0  0  0  0  0  0  0
   71.7330   37.4531   58.4162 C   0  0  0  0  0  0  0  0  0  0  0  0
   72.4540   36.7787   57.4539 C   0  0  0  0  0  0  0  0  0  0  0  0
   72.9728   33.5649   56.0730 O   0  0  0  0  0  0  0  0  0  0  0  0
   73.3460   34.6995   56.4463 C   0  0  0  0  0  0  0  0  0  0  0  0
   74.4786   35.2383   55.8660 O   0  0  0  0  0  0  0  0  0  0  0  0
 25 26  2  0
 26 27  1  0
 26 19  1  0
 19 20  2  0
 19 24  1  0
 20 21  1  0
 21 22  2  0
 22 23  1  0
 23 17  1  0
 23 24  2  0
 17 18  3  0
 18  1  1  0
  1  2  2  0
  1  6  1  0
  2  3  1  0
  3  4  2  0
  4  7  1  0
  4  5  1  0
  7  8  2  0
  7  9  2  0
  7 10  1  0
 10 11  1  0
 11 12  2  0
 11 16  1  0
 12 13  1  0
 13 14  2  0
 14 15  1  0
 15 16  2  0
  5  6  2  0
M  END
>  <minimizedAffinity>  (410) 
-8.57644

$$$$
data/200k_reference_output/data/smiles/34426.pdb
     RDKit          3D

 27 30  0  0  0  0  0  0  0  0999 V2000
   69.0575   45.6465   56.5703 C   0  0  0  0  0  0  0  0  0  0  0  0
   69.8588   46.6453   57.1604 C   0  0  0  0  0  0  0  0  0  0  0  0
   70.8918   46.3226   57.9901 C   0  0  0  0  0  0  0  0  0  0  0  0
   71.1073   45.0281   58.2160 N   0  0  0  0  0  0  0  0  0  0  0  0
   70.3661   44.0211   57.6771 C   0  0  0  0  0  0  0  0  0  0  0  0
   69.3090   44.3323   56.8322 C   0  0  0  0  0  0  0  0  0  0  0  0
   68.4589   43.2570   56.3075 C   0  0  0  0  0  0  0  0  0  0  0  0
   67.5067   43.5079   55.5577 O   0  0  0  0  0  0  0  0  0  0  0  0
   68.7668   41.9015   56.6970 N   0  0  0  0  0  0  0  0  0  0  0  0
   69.4626   41.7272   57.9491 C   0  0  0  0  0  0  0  0  0  0  0  0
   70.6844   42.6093   57.9651 C   0  0  0  0  0  0  0  0  0  0  0  0
   71.7423   47.3390   58.6169 C   0  0  0  0  0  0  0  0  0  0  0  0
   72.2611   47.1244   59.8750 C   0  0  0  0  0  0  0  0  0  0  0  0
   73.0681   48.0581   60.5058 C   0  0  0  0  0  0  0  0  0  0  0  0
   73.3788   49.2312   59.8945 C   0  0  0  0  0  0  0  0  0  0  0  0
   72.8725   49.4751   58.6307 C   0  0  0  0  0  0  0  0  0  0  0  0
   72.0658   48.5264   58.0171 C   0  0  0  0  0  0  0  0  0  0  0  0
   67.9961   46.0413   55.7171 N   0  0  0  0  0  0  0  0  0  0  0  0
   69.3282   47.6917   52.6480 C   0  0  0  0  0  0  0  0  0  0  0  0
   68.7592   46.9417   51.6330 C   0  0  0  0  0  0  0  0  0  0  0  0
   67.9469   45.8923   52.0008 C   0  0  0  0  0  0  0  0  0  0  0  0
   67.7162   45.6080   53.3307 C   0  0  0  0  0  0  0  0  0  0  0  0
   68.2795   46.3501   54.3617 C   0  0  0  0  0  0  0  0  0  0  0  0
   69.1036   47.4140   53.9781 C   0  0  0  0  0  0  0  0  0  0  0  0
   71.1870   49.2346   53.1649 N   0  0  0  0  0  0  0  0  0  0  0  0
   70.1843   48.7975   52.2488 C   0  0  0  0  0  0  0  0  0  0  0  0
   70.0757   49.3726   51.1436 O   0  0  0  0  0  0  0  0  0  0  0  0
 25 26  1  0
 26 27  2  0
 26 19  1  0
 19 20  2  0
 19 24  1  0
 20 21  1  0
 21 22  2  0
 22 23  1  0
 23 18  1  0
 23 24  2  0
 18  1  1  0
  1  2  2  0
  1  6  1  0
  2  3  1  0
  3 12  1  0
  3  4  2  0
 12 13  2  0
 12 17  1  0
 13 14  1  0
 14 15  2  0
 15 16  1  0
 16 17  2  0
  4  5  1  0
  5  6  2  0
  5 11  1  0
  6  7  1  0
  7  8  2  0
  7  9  1  0
  9 10  1  0
 10 11  1  0
M  END
>  <minimizedAffinity>  (411) 
-9.29008

$$$$
data/200k_reference_output/data/smiles/34457.pdb
     RDKit          3D

 27 30  0  0  0  0  0  0  0  0999 V2000
   69.2451   40.4992   58.2244 C   0  0  0  0  0  0  0  0  0  0  0  0
   68.0404   40.5995   57.5583 C   0  0  0  0  0  0  0  0  0  0  0  0
   67.7753   41.6675   56.7158 C   0  0  0  0  0  0  0  0  0  0  0  0
   68.7092   42.6641   56.5187 C   0  0  0  0  0  0  0  0  0  0  0  0
   69.8669   42.5126   57.1961 N   0  0  0  0  0  0  0  0  0  0  0  0
   70.1201   41.4922   58.0001 N   0  0  0  0  0  0  0  0  0  0  0  0
   68.4678   43.7729   55.6604 N   0  0  0  0  0  0  0  0  0  0  0  0
   68.7804   45.1062   56.0325 C   0  0  0  0  0  0  0  0  0  0  0  0
   69.2932   45.2326   57.1936 O   0  0  0  0  0  0  0  0  0  0  0  0
   68.5541   46.2251   55.2097 N   0  0  0  0  0  0  0  0  0  0  0  0
   67.9920   46.3050   53.8784 C   0  0  0  0  0  0  0  0  0  0  0  0
   68.8318   47.3328   53.2363 C   0  0  0  0  0  0  0  0  0  0  0  0
   69.1661   47.6452   51.9247 C   0  0  0  0  0  0  0  0  0  0  0  0
   69.9937   48.6919   51.6326 C   0  0  0  0  0  0  0  0  0  0  0  0
   70.5043   49.4457   52.6185 N   0  0  0  0  0  0  0  0  0  0  0  0
   70.1873   49.1528   53.8850 C   0  0  0  0  0  0  0  0  0  0  0  0
   69.3603   48.1135   54.2443 C   0  0  0  0  0  0  0  0  0  0  0  0
   68.8643   47.5938   55.5690 C   0  0  0  0  0  0  0  0  0  0  0  0
   69.0439   39.3633   60.2651 O   0  0  0  0  0  0  0  0  0  0  0  0
   69.5076   39.3684   59.1085 C   0  0  0  0  0  0  0  0  0  0  0  0
   70.2826   38.2443   58.7111 N   0  0  0  0  0  0  0  0  0  0  0  0
   70.5500   37.1204   59.5697 C   0  0  0  0  0  0  0  0  0  0  0  0
   71.8401   36.4505   59.1262 C   0  0  0  0  0  0  0  0  0  0  0  0
   71.6637   34.9543   59.0000 C   0  0  0  0  0  0  0  0  0  0  0  0
   72.6115   34.4699   57.9525 C   0  0  0  0  0  0  0  0  0  0  0  0
   73.1952   35.7021   57.3455 C   0  0  0  0  0  0  0  0  0  0  0  0
   72.2786   36.8546   57.7495 C   0  0  0  0  0  0  0  0  0  0  0  0
 19 20  2  0
 20 21  1  0
 20  1  1  0
 21 22  1  0
 22 23  1  0
 23 24  1  0
 23 27  1  0
 24 25  1  0
 25 26  1  0
 26 27  1  0
  1  2  2  0
  1  6  1  0
  2  3  1  0
  3  4  2  0
  4  7  1  0
  4  5  1  0
  7  8  1  0
  8  9  2  0
  8 10  1  0
 10 11  1  0
 10 18  1  0
 11 12  1  0
 12 13  1  0
 12 17  2  0
 13 14  2  0
 14 15  1  0
 15 16  2  0
 16 17  1  0
 17 18  1  0
  5  6  2  0
M  END
>  <minimizedAffinity>  (412) 
-8.61070

$$$$
data/200k_reference_output/data/smiles/34491.pdb
     RDKit          3D

 23 25  0  0  0  0  0  0  0  0999 V2000
   68.0136   43.5861   55.8677 C   0  0  0  0  0  0  0  0  0  0  0  0
   67.6813   42.3044   56.2667 C   0  0  0  0  0  0  0  0  0  0  0  0
   68.4045   41.9568   57.3938 C   0  0  0  0  0  0  0  0  0  0  0  0
   69.1597   43.0353   57.6540 N   0  0  0  0  0  0  0  0  0  0  0  0
   68.9394   43.9894   56.7706 N   0  0  0  0  0  0  0  0  0  0  0  0
   68.3334   40.6928   58.1157 C   0  0  0  0  0  0  0  0  0  0  0  0
   67.2133   40.3394   58.8254 C   0  0  0  0  0  0  0  0  0  0  0  0
   67.0834   39.1516   59.5360 C   0  0  0  0  0  0  0  0  0  0  0  0
   68.1490   38.2753   59.5248 C   0  0  0  0  0  0  0  0  0  0  0  0
   69.2849   38.5907   58.8293 C   0  0  0  0  0  0  0  0  0  0  0  0
   70.3419   37.6718   58.8456 O   0  0  0  0  0  0  0  0  0  0  0  0
   69.3800   39.7887   58.1288 C   0  0  0  0  0  0  0  0  0  0  0  0
   67.4963   44.2975   54.7596 N   0  0  0  0  0  0  0  0  0  0  0  0
   69.2141   47.9343   53.3566 C   0  0  0  0  0  0  0  0  0  0  0  0
   69.1248   47.6589   54.7119 C   0  0  0  0  0  0  0  0  0  0  0  0
   68.5607   46.4723   55.1708 C   0  0  0  0  0  0  0  0  0  0  0  0
   68.0674   45.5236   54.3043 C   0  0  0  0  0  0  0  0  0  0  0  0
   68.1554   45.7961   52.9528 C   0  0  0  0  0  0  0  0  0  0  0  0
   68.7199   46.9827   52.4929 C   0  0  0  0  0  0  0  0  0  0  0  0
   69.8311   49.5502   51.0583 N   0  0  0  0  0  0  0  0  0  0  0  0
   69.9348   49.4400   52.8001 S   0  0  0  0  0  0  0  0  0  0  0  0
   71.3789   49.4246   53.1895 O   0  0  0  0  0  0  0  0  0  0  0  0
   69.2046   50.6206   53.3760 O   0  0  0  0  0  0  0  0  0  0  0  0
 20 21  1  0
 21 22  2  0
 21 23  2  0
 21 14  1  0
 14 15  2  0
 14 19  1  0
 15 16  1  0
 16 17  2  0
 17 13  1  0
 17 18  1  0
 13  1  1  0
  1  2  2  0
  1  5  1  0
  2  3  1  0
  3  6  1  0
  3  4  2  0
  6  7  2  0
  6 12  1  0
  7  8  1  0
  8  9  2  0
  9 10  1  0
 10 11  1  0
 10 12  2  0
  4  5  1  0
 18 19  2  0
M  END
>  <minimizedAffinity>  (413) 
-8.96179

$$$$
data/200k_reference_output/data/smiles/34509.pdb
     RDKit          3D

 26 28  0  0  0  0  0  0  0  0999 V2000
   73.2172   49.5234   57.9314 O   0  0  0  0  0  0  0  0  0  0  0  0
   72.6989   49.8891   56.8509 C   0  0  0  0  0  0  0  0  0  0  0  0
   73.5557   49.9457   55.7164 N   0  0  0  0  0  0  0  0  0  0  0  0
   74.9255   49.5959   55.8521 N   0  0  0  0  0  0  0  0  0  0  0  0
   75.9371   50.5531   55.6424 C   0  0  0  0  0  0  0  0  0  0  0  0
   75.5712   51.7154   55.3332 O   0  0  0  0  0  0  0  0  0  0  0  0
   77.3593   50.2560   55.7650 C   0  0  0  0  0  0  0  0  0  0  0  0
   77.8705   49.1058   55.1755 C   0  0  0  0  0  0  0  0  0  0  0  0
   79.2107   48.7517   55.2439 C   0  0  0  0  0  0  0  0  0  0  0  0
   80.0680   49.5787   55.9279 C   0  0  0  0  0  0  0  0  0  0  0  0
   81.7522   49.1598   56.0319 Cl  0  0  0  0  0  0  0  0  0  0  0  0
   79.6126   50.7276   56.5289 C   0  0  0  0  0  0  0  0  0  0  0  0
   78.2521   51.0584   56.4413 C   0  0  0  0  0  0  0  0  0  0  0  0
   71.2952   50.2577   56.6657 C   0  0  0  0  0  0  0  0  0  0  0  0
   70.9541   50.7714   55.3021 C   0  0  0  0  0  0  0  0  0  0  0  0
   70.4044   49.7623   54.3921 C   0  0  0  0  0  0  0  0  0  0  0  0
   69.6221   48.7798   54.8703 N   0  0  0  0  0  0  0  0  0  0  0  0
   69.0826   47.8257   54.1141 C   0  0  0  0  0  0  0  0  0  0  0  0
   68.2812   46.8233   54.6262 C   0  0  0  0  0  0  0  0  0  0  0  0
   67.7467   45.8605   53.8118 C   0  0  0  0  0  0  0  0  0  0  0  0
   67.9919   45.8620   52.4577 C   0  0  0  0  0  0  0  0  0  0  0  0
   68.7881   46.8536   51.9355 C   0  0  0  0  0  0  0  0  0  0  0  0
   69.3300   47.8259   52.7484 C   0  0  0  0  0  0  0  0  0  0  0  0
   70.1299   48.8267   52.2417 C   0  0  0  0  0  0  0  0  0  0  0  0
   70.3871   48.8740   50.9994 O   0  0  0  0  0  0  0  0  0  0  0  0
   70.6417   49.7592   53.0593 N   0  0  0  0  0  0  0  0  0  0  0  0
  1  2  2  0
  2 14  1  0
  2  3  1  0
 14 15  1  0
 15 16  1  0
 16 17  2  0
 16 26  1  0
 17 18  1  0
 18 19  2  0
 18 23  1  0
 19 20  1  0
 20 21  2  0
 21 22  1  0
 22 23  2  0
 23 24  1  0
 24 25  2  0
 24 26  1  0
  3  4  1  0
  4  5  1  0
  5  6  2  0
  5  7  1  0
  7  8  2  0
  7 13  1  0
  8  9  1  0
  9 10  2  0
 10 11  1  0
 10 12  1  0
 12 13  2  0
M  END
>  <minimizedAffinity>  (414) 
-9.34833

$$$$
data/200k_reference_output/data/smiles/34749.pdb
     RDKit          3D

 33 37  0  0  0  0  0  0  0  0999 V2000
   72.1092   47.5252   58.8550 C   0  0  0  0  0  0  0  0  0  0  0  0
   71.0019   47.9151   58.0885 C   0  0  0  0  0  0  0  0  0  0  0  0
   71.0587   48.8932   57.1538 C   0  0  0  0  0  0  0  0  0  0  0  0
   72.2924   49.5338   56.9586 C   0  0  0  0  0  0  0  0  0  0  0  0
   73.4009   49.1884   57.6810 C   0  0  0  0  0  0  0  0  0  0  0  0
   73.2919   48.1727   58.6340 C   0  0  0  0  0  0  0  0  0  0  0  0
   74.3764   47.8225   59.3532 F   0  0  0  0  0  0  0  0  0  0  0  0
   71.7456   46.7865   61.0205 O   0  0  0  0  0  0  0  0  0  0  0  0
   71.9071   46.4639   59.8185 C   0  0  0  0  0  0  0  0  0  0  0  0
   71.8829   45.0833   59.4813 N   0  0  0  0  0  0  0  0  0  0  0  0
   72.0606   44.7438   58.0623 C   0  0  0  0  0  0  0  0  0  0  0  0
   72.0399   43.2369   57.9735 C   0  0  0  0  0  0  0  0  0  0  0  0
   70.8789   42.7608   58.6540 N   0  0  0  0  0  0  0  0  0  0  0  0
   70.8136   42.9559   60.0807 C   0  0  0  0  0  0  0  0  0  0  0  0
   71.6968   44.1029   60.5221 C   0  0  0  0  0  0  0  0  0  0  0  0
   69.8152   42.1295   57.9735 C   0  0  0  0  0  0  0  0  0  0  0  0
   69.5248   40.7752   58.2071 C   0  0  0  0  0  0  0  0  0  0  0  0
   68.4915   40.1332   57.5706 C   0  0  0  0  0  0  0  0  0  0  0  0
   67.7173   40.8390   56.6754 C   0  0  0  0  0  0  0  0  0  0  0  0
   67.9555   42.1689   56.4062 C   0  0  0  0  0  0  0  0  0  0  0  0
   69.0019   42.7838   57.0645 C   0  0  0  0  0  0  0  0  0  0  0  0
   69.9074   49.2863   56.3118 C   0  0  0  0  0  0  0  0  0  0  0  0
   70.0586   48.8982   54.9050 C   0  0  0  0  0  0  0  0  0  0  0  0
   70.9181   49.5635   54.0827 N   0  0  0  0  0  0  0  0  0  0  0  0
   71.0298   49.2671   52.8036 N   0  0  0  0  0  0  0  0  0  0  0  0
   70.3134   48.3059   52.2384 C   0  0  0  0  0  0  0  0  0  0  0  0
   70.3891   47.9879   51.0062 O   0  0  0  0  0  0  0  0  0  0  0  0
   69.4082   47.5668   52.9866 C   0  0  0  0  0  0  0  0  0  0  0  0
   69.3096   47.8974   54.3371 C   0  0  0  0  0  0  0  0  0  0  0  0
   68.4508   47.1356   55.1983 N   0  0  0  0  0  0  0  0  0  0  0  0
   68.0959   45.7701   54.7724 C   0  0  0  0  0  0  0  0  0  0  0  0
   67.6845   45.7953   53.3331 C   0  0  0  0  0  0  0  0  0  0  0  0
   68.6010   46.4954   52.4026 C   0  0  0  0  0  0  0  0  0  0  0  0
  8  9  2  0
  9  1  1  0
  9 10  1  0
  1  2  2  0
  1  6  1  0
  2  3  1  0
  3 22  1  0
  3  4  2  0
 22 23  1  0
 23 24  2  0
 23 29  1  0
 24 25  1  0
 25 26  1  0
 26 27  2  0
 26 28  1  0
 28 29  2  0
 28 33  1  0
 29 30  1  0
 30 31  1  0
 31 32  1  0
 32 33  1  0
  4  5  1  0
  5  6  2  0
  6  7  1  0
 10 11  1  0
 10 15  1  0
 11 12  1  0
 12 13  1  0
 13 16  1  0
 13 14  1  0
 16 17  2  0
 16 21  1  0
 17 18  1  0
 18 19  2  0
 19 20  1  0
 20 21  2  0
 14 15  1  0
M  END
>  <minimizedAffinity>  (415) 
-9.48397

$$$$
data/200k_reference_output/data/smiles/34752.pdb
     RDKit          3D

 31 34  0  0  0  0  0  0  0  0999 V2000
   72.4052   44.6563   60.4693 N   0  0  0  0  0  0  0  0  0  0  0  0
   72.6097   43.8115   59.2791 C   0  0  0  0  0  0  0  0  0  0  0  0
   72.0193   44.6338   58.1570 C   0  0  0  0  0  0  0  0  0  0  0  0
   70.9375   45.4050   58.8623 C   0  0  1  0  0  0  0  0  0  0  0  0
   69.8872   44.6165   59.2494 O   0  0  0  0  0  0  0  0  0  0  0  0
   71.6954   45.8195   60.0941 C   0  0  0  0  0  0  0  0  0  0  0  0
   71.7295   46.9157   60.6898 O   0  0  0  0  0  0  0  0  0  0  0  0
   74.0353   41.6322   67.3442 O   0  0  0  0  0  0  0  0  0  0  0  0
   73.5095   42.1662   66.3504 C   0  0  0  0  0  0  0  0  0  0  0  0
   72.1521   41.7355   65.9283 C   0  0  0  0  0  0  0  0  0  0  0  0
   71.9250   41.8772   64.4702 C   0  0  0  0  0  0  0  0  0  0  0  0
   72.6742   42.9339   63.7838 C   0  0  0  0  0  0  0  0  0  0  0  0
   72.2381   43.3147   62.5015 C   0  0  0  0  0  0  0  0  0  0  0  0
   72.8744   44.2886   61.7702 C   0  0  0  0  0  0  0  0  0  0  0  0
   73.9686   44.8815   62.3496 C   0  0  0  0  0  0  0  0  0  0  0  0
   74.4186   44.5242   63.6128 C   0  0  0  0  0  0  0  0  0  0  0  0
   73.7676   43.5365   64.3471 C   0  0  0  0  0  0  0  0  0  0  0  0
   74.2237   43.1748   65.6474 N   0  0  0  0  0  0  0  0  0  0  0  0
   70.5169   46.6155   58.1185 C   0  0  0  0  0  0  0  0  0  0  0  0
   71.2579   47.5972   57.9172 O   0  0  0  0  0  0  0  0  0  0  0  0
   69.1931   46.6714   57.5980 N   0  0  0  0  0  0  0  0  0  0  0  0
   68.7361   47.8532   56.8538 C   0  0  0  0  0  0  0  0  0  0  0  0
   68.6978   47.5051   55.4084 C   0  0  0  0  0  0  0  0  0  0  0  0
   68.1351   46.3199   54.9754 C   0  0  0  0  0  0  0  0  0  0  0  0
   68.0968   45.9951   53.6292 C   0  0  0  0  0  0  0  0  0  0  0  0
   68.6172   46.8369   52.6644 C   0  0  0  0  0  0  0  0  0  0  0  0
   68.5709   46.5019   51.3485 F   0  0  0  0  0  0  0  0  0  0  0  0
   69.1794   48.0208   53.0948 C   0  0  0  0  0  0  0  0  0  0  0  0
   69.8491   49.1121   51.8821 Cl  0  0  0  0  0  0  0  0  0  0  0  0
   69.2187   48.3520   54.4532 C   0  0  0  0  0  0  0  0  0  0  0  0
   69.7746   49.5198   54.8663 F   0  0  0  0  0  0  0  0  0  0  0  0
  8  9  2  0
  9 10  1  0
  9 18  1  0
 10 11  1  0
 11 12  1  0
 12 13  1  0
 12 17  2  0
 13 14  2  0
 14  1  1  0
 14 15  1  0
  1  2  1  0
  1  6  1  0
  2  3  1  0
  3  4  1  0
  4  5  1  1
  4 19  1  0
  4  6  1  0
 19 20  2  0
 19 21  1  0
 21 22  1  0
 22 23  1  0
 23 24  2  0
 23 30  1  0
 24 25  1  0
 25 26  2  0
 26 27  1  0
 26 28  1  0
 28 29  1  0
 28 30  2  0
 30 31  1  0
  6  7  2  0
 15 16  2  0
 16 17  1  0
 17 18  1  0
M  END
>  <minimizedAffinity>  (416) 
-9.03729

$$$$
data/200k_reference_output/data/smiles/35003.pdb
     RDKit          3D

 23 26  0  0  0  0  0  0  0  0999 V2000
   68.8485   45.4503   56.0800 C   0  0  0  0  0  0  0  0  0  0  0  0
   68.0640   44.4424   55.7527 N   0  0  0  0  0  0  0  0  0  0  0  0
   68.2162   43.2494   56.3289 C   0  0  0  0  0  0  0  0  0  0  0  0
   67.3191   41.6815   56.1080 S   0  0  0  0  0  0  0  0  0  0  0  0
   68.2535   40.7677   57.2777 C   0  0  0  0  0  0  0  0  0  0  0  0
   69.1533   41.6488   57.7547 C   0  0  0  0  0  0  0  0  0  0  0  0
   69.1322   42.9201   57.2660 C   0  0  0  0  0  0  0  0  0  0  0  0
   69.9739   44.0163   57.6127 C   0  0  0  0  0  0  0  0  0  0  0  0
   70.8876   43.9072   58.4673 O   0  0  0  0  0  0  0  0  0  0  0  0
   69.7931   45.1861   57.0191 N   0  0  0  0  0  0  0  0  0  0  0  0
   69.9606   40.8530   58.7905 C   0  0  0  0  0  0  0  0  0  0  0  0
   69.8611   39.4672   58.2539 C   0  0  0  0  0  0  0  0  0  0  0  0
   68.3822   39.4004   57.8866 C   0  0  0  0  0  0  0  0  0  0  0  0
   68.7774   46.8058   55.5177 C   0  0  0  0  0  0  0  0  0  0  0  0
   69.1055   47.6490   53.1792 C   0  0  0  0  0  0  0  0  0  0  0  0
   68.8281   47.5128   51.8108 C   0  0  0  0  0  0  0  0  0  0  0  0
   68.0846   46.4696   51.3554 C   0  0  0  0  0  0  0  0  0  0  0  0
   67.5733   45.5085   52.1973 C   0  0  0  0  0  0  0  0  0  0  0  0
   67.8448   45.6457   53.5297 C   0  0  0  0  0  0  0  0  0  0  0  0
   68.6107   46.7145   54.0417 C   0  0  0  0  0  0  0  0  0  0  0  0
   69.6467   49.5613   54.4380 O   0  0  0  0  0  0  0  0  0  0  0  0
   69.9604   48.7362   53.5826 C   0  0  0  0  0  0  0  0  0  0  0  0
   71.2203   48.8842   52.9840 O   0  0  0  0  0  0  0  0  0  0  0  0
 21 22  2  0
 22 23  1  0
 22 15  1  0
 15 16  2  0
 15 20  1  0
 16 17  1  0
 17 18  2  0
 18 19  1  0
 19 20  2  0
 20 14  1  0
 14  1  1  0
  1  2  2  0
  1 10  1  0
  2  3  1  0
  3  4  1  0
  3  7  2  0
  4  5  1  0
  5  6  2  0
  5 13  1  0
  6  7  1  0
  6 11  1  0
  7  8  1  0
  8  9  2  0
  8 10  1  0
 11 12  1  0
 12 13  1  0
M  END
>  <minimizedAffinity>  (417) 
-9.07302

$$$$
data/200k_reference_output/data/smiles/35034.pdb
     RDKit          3D

 28 30  0  0  0  0  0  0  0  0999 V2000
   67.8358   42.0848   56.8331 N   0  0  0  0  0  0  0  0  0  0  0  0
   67.9196   40.6813   56.7617 C   0  0  0  0  0  0  0  0  0  0  0  0
   67.6611   40.1339   55.6709 O   0  0  0  0  0  0  0  0  0  0  0  0
   68.2938   39.8383   57.9052 C   0  0  0  0  0  0  0  0  0  0  0  0
   69.3325   38.9858   57.8548 N   0  0  0  0  0  0  0  0  0  0  0  0
   69.6694   38.2231   58.8930 N   0  0  0  0  0  0  0  0  0  0  0  0
   69.0022   38.2462   60.0613 C   0  0  0  0  0  0  0  0  0  0  0  0
   67.9296   39.1011   60.1656 C   0  0  0  0  0  0  0  0  0  0  0  0
   67.5843   39.8915   59.0858 C   0  0  0  0  0  0  0  0  0  0  0  0
   66.6040   40.6927   59.1392 O   0  0  0  0  0  0  0  0  0  0  0  0
   70.7801   37.3364   58.7847 C   0  0  0  0  0  0  0  0  0  0  0  0
   70.8526   36.1904   59.5300 C   0  0  0  0  0  0  0  0  0  0  0  0
   71.9242   35.3218   59.4340 C   0  0  0  0  0  0  0  0  0  0  0  0
   72.9299   35.6600   58.5476 C   0  0  0  0  0  0  0  0  0  0  0  0
   74.0122   34.8224   58.4243 F   0  0  0  0  0  0  0  0  0  0  0  0
   72.8939   36.8012   57.7816 C   0  0  0  0  0  0  0  0  0  0  0  0
   71.7975   37.6395   57.9149 C   0  0  0  0  0  0  0  0  0  0  0  0
   68.8749   44.5829   56.4975 O   0  0  0  0  0  0  0  0  0  0  0  0
   68.0439   44.1852   55.6122 C   0  0  0  0  0  0  0  0  0  0  0  0
   67.4802   42.8935   55.7486 N   0  0  0  0  0  0  0  0  0  0  0  0
   67.7556   45.0793   54.5608 N   0  0  0  0  0  0  0  0  0  0  0  0
   68.3520   46.3571   54.4812 C   0  0  0  0  0  0  0  0  0  0  0  0
   68.4062   47.2079   55.5598 C   0  0  0  0  0  0  0  0  0  0  0  0
   69.0080   48.4703   55.4384 C   0  0  0  0  0  0  0  0  0  0  0  0
   69.5448   48.8669   54.2515 C   0  0  0  0  0  0  0  0  0  0  0  0
   69.4984   48.0292   53.1669 C   0  0  0  0  0  0  0  0  0  0  0  0
   70.1968   48.5694   51.6581 Cl  0  0  0  0  0  0  0  0  0  0  0  0
   68.8969   46.7726   53.2946 C   0  0  0  0  0  0  0  0  0  0  0  0
 18 19  2  0
 19 20  1  0
 19 21  1  0
 20  1  1  0
  1  2  1  0
  2  3  2  0
  2  4  1  0
  4  5  2  0
  4  9  1  0
  5  6  1  0
  6 11  1  0
  6  7  1  0
 11 12  2  0
 11 17  1  0
 12 13  1  0
 13 14  2  0
 14 15  1  0
 14 16  1  0
 16 17  2  0
  7  8  2  0
  8  9  1  0
  9 10  2  0
 21 22  1  0
 22 23  2  0
 22 28  1  0
 23 24  1  0
 24 25  2  0
 25 26  1  0
 26 27  1  0
 26 28  2  0
M  END
>  <minimizedAffinity>  (418) 
-9.17246

$$$$
data/200k_reference_output/data/smiles/35251.pdb
     RDKit          3D

 23 25  0  0  0  0  0  0  0  0999 V2000
   69.8773   47.5727   57.5120 C   0  0  0  0  0  0  0  0  0  0  0  0
   69.3055   47.1009   56.1958 C   0  0  0  0  0  0  0  0  0  0  0  0
   68.8480   45.8005   56.0904 C   0  0  0  0  0  0  0  0  0  0  0  0
   68.3368   45.4359   54.8622 C   0  0  0  0  0  0  0  0  0  0  0  0
   68.2836   46.3130   53.7980 C   0  0  0  0  0  0  0  0  0  0  0  0
   68.7390   47.5704   53.9349 C   0  0  0  0  0  0  0  0  0  0  0  0
   69.2642   47.9878   55.1587 C   0  0  0  0  0  0  0  0  0  0  0  0
   67.6517   45.8382   52.5736 C   0  0  0  0  0  0  0  0  0  0  0  0
   66.9982   44.6348   52.4654 N   0  0  0  0  0  0  0  0  0  0  0  0
   66.5069   44.4902   51.2766 N   0  0  0  0  0  0  0  0  0  0  0  0
   66.8204   45.5637   50.6028 N   0  0  0  0  0  0  0  0  0  0  0  0
   67.5207   46.4049   51.3756 N   0  0  0  0  0  0  0  0  0  0  0  0
   68.7906   48.5197   52.8654 N   0  0  0  0  0  0  0  0  0  0  0  0
   69.9709   49.7160   52.6744 S   0  0  0  0  0  0  0  0  0  0  0  0
   69.8722   50.3416   51.3222 O   0  0  0  0  0  0  0  0  0  0  0  0
   71.3356   49.0604   52.7676 O   0  0  0  0  0  0  0  0  0  0  0  0
   69.8779   50.9854   53.8605 C   0  0  0  0  0  0  0  0  0  0  0  0
   70.9486   51.5798   54.4481 C   0  0  0  0  0  0  0  0  0  0  0  0
   70.8064   52.5798   55.3797 C   0  0  0  0  0  0  0  0  0  0  0  0
   69.5614   53.0209   55.7569 C   0  0  0  0  0  0  0  0  0  0  0  0
   69.3771   54.0079   56.6752 F   0  0  0  0  0  0  0  0  0  0  0  0
   68.4601   52.4181   55.1611 C   0  0  0  0  0  0  0  0  0  0  0  0
   68.6164   51.4119   54.2243 C   0  0  0  0  0  0  0  0  0  0  0  0
  1  2  1  0
  2  3  2  0
  2  7  1  0
  3  4  1  0
  4  5  2  0
  5  8  1  0
  5  6  1  0
  8  9  2  0
  8 12  1  0
  9 10  1  0
 10 11  2  0
 11 12  1  0
  6 13  1  0
  6  7  2  0
 13 14  1  0
 14 15  2  0
 14 16  2  0
 14 17  1  0
 17 18  2  0
 17 23  1  0
 18 19  1  0
 19 20  2  0
 20 21  1  0
 20 22  1  0
 22 23  2  0
M  END
>  <minimizedAffinity>  (419) 
-8.98193

$$$$
data/200k_reference_output/data/smiles/35398.pdb
     RDKit          3D

 26 28  0  0  0  0  0  0  0  0999 V2000
   69.0214   43.3934   57.0166 O   0  0  0  0  0  0  0  0  0  0  0  0
   68.0640   43.0014   56.2670 C   0  0  0  0  0  0  0  0  0  0  0  0
   67.6315   43.9167   55.2970 N   0  0  0  0  0  0  0  0  0  0  0  0
   68.2106   45.1964   55.1411 N   0  0  0  0  0  0  0  0  0  0  0  0
   68.1756   45.8644   53.9028 C   0  0  0  0  0  0  0  0  0  0  0  0
   67.5752   45.1885   52.9771 O   0  0  0  0  0  0  0  0  0  0  0  0
   68.7203   47.1672   53.5913 C   0  0  0  0  0  0  0  0  0  0  0  0
   68.7395   48.1971   54.5183 C   0  0  0  0  0  0  0  0  0  0  0  0
   69.2440   49.4493   54.2827 C   0  0  0  0  0  0  0  0  0  0  0  0
   69.7728   49.7246   53.0472 C   0  0  0  0  0  0  0  0  0  0  0  0
   69.7780   48.7372   52.0928 C   0  0  0  0  0  0  0  0  0  0  0  0
   69.2498   47.4608   52.3721 C   0  0  0  0  0  0  0  0  0  0  0  0
   69.3184   46.5954   51.3467 F   0  0  0  0  0  0  0  0  0  0  0  0
   67.5567   41.6543   56.5294 C   0  0  0  0  0  0  0  0  0  0  0  0
   67.9009   41.0893   57.7515 O   0  0  0  0  0  0  0  0  0  0  0  0
   68.5512   39.8725   57.8889 C   0  0  0  0  0  0  0  0  0  0  0  0
   68.0726   38.8217   57.3497 O   0  0  0  0  0  0  0  0  0  0  0  0
   69.8178   39.7812   58.6686 C   0  0  0  0  0  0  0  0  0  0  0  0
   69.9313   40.7471   59.7909 C   0  0  0  0  0  0  0  0  0  0  0  0
   70.8100   40.8985   58.5254 C   0  0  0  0  0  0  0  0  0  0  0  0
   70.4053   38.4250   58.7768 C   0  0  0  0  0  0  0  0  0  0  0  0
   69.9366   37.5721   59.7538 C   0  0  0  0  0  0  0  0  0  0  0  0
   70.4717   36.3039   59.8694 C   0  0  0  0  0  0  0  0  0  0  0  0
   71.4724   35.8726   59.0218 C   0  0  0  0  0  0  0  0  0  0  0  0
   71.9423   36.7055   58.0527 C   0  0  0  0  0  0  0  0  0  0  0  0
   71.3938   37.9824   57.9463 C   0  0  0  0  0  0  0  0  0  0  0  0
  1  2  2  0
  2 14  1  0
  2  3  1  0
 14 15  1  0
 15 16  1  0
 16 17  2  0
 16 18  1  0
 18 21  1  0
 18 19  1  0
 18 20  1  0
 21 22  2  0
 21 26  1  0
 22 23  1  0
 23 24  2  0
 24 25  1  0
 25 26  2  0
 19 20  1  0
  3  4  1  0
  4  5  1  0
  5  6  2  0
  5  7  1  0
  7  8  2  0
  7 12  1  0
  8  9  1  0
  9 10  2  0
 10 11  1  0
 11 12  2  0
 12 13  1  0
M  END
>  <minimizedAffinity>  (420) 
-9.01800

$$$$
data/200k_reference_output/data/smiles/35541.pdb
     RDKit          3D

 21 23  0  0  0  0  0  0  0  0999 V2000
   70.2072   49.0671   51.0247 O   0  0  0  0  0  0  0  0  0  0  0  0
   70.1010   49.2021   52.5377 S   0  0  0  0  0  0  0  0  0  0  0  0
   71.5274   49.1852   53.0262 O   0  0  0  0  0  0  0  0  0  0  0  0
   69.2398   47.8481   53.2142 C   0  0  0  0  0  0  0  0  0  0  0  0
   69.3030   47.6022   54.5687 C   0  0  0  0  0  0  0  0  0  0  0  0
   68.6186   46.5230   55.1412 C   0  0  0  0  0  0  0  0  0  0  0  0
   67.8734   45.6924   54.3660 C   0  0  0  0  0  0  0  0  0  0  0  0
   67.7947   45.9175   53.0136 C   0  0  0  0  0  0  0  0  0  0  0  0
   67.1721   45.3172   51.9822 N   0  0  0  0  0  0  0  0  0  0  0  0
   67.4351   45.9465   50.8961 O   0  0  0  0  0  0  0  0  0  0  0  0
   68.2153   46.9568   51.1356 N   0  0  0  0  0  0  0  0  0  0  0  0
   68.4785   46.9939   52.4505 C   0  0  0  0  0  0  0  0  0  0  0  0
   69.4051   50.7069   52.8889 N   0  0  0  0  0  0  0  0  0  0  0  0
   69.3520   51.3094   54.1673 C   0  0  0  0  0  0  0  0  0  0  0  0
   68.2411   51.1639   54.9702 C   0  0  0  0  0  0  0  0  0  0  0  0
   68.1345   51.7263   56.2159 C   0  0  0  0  0  0  0  0  0  0  0  0
   67.0222   51.5435   56.9437 F   0  0  0  0  0  0  0  0  0  0  0  0
   69.1546   52.4764   56.7299 C   0  0  0  0  0  0  0  0  0  0  0  0
   70.2889   52.6453   55.9504 C   0  0  0  0  0  0  0  0  0  0  0  0
   70.3769   52.0653   54.6879 C   0  0  0  0  0  0  0  0  0  0  0  0
   71.4886   52.2441   53.9525 F   0  0  0  0  0  0  0  0  0  0  0  0
  1  2  2  0
  2  3  2  0
  2 13  1  0
  2  4  1  0
 13 14  1  0
 14 15  2  0
 14 20  1  0
 15 16  1  0
 16 17  1  0
 16 18  2  0
 18 19  1  0
 19 20  2  0
 20 21  1  0
  4  5  2  0
  4 12  1  0
  5  6  1  0
  6  7  2  0
  7  8  1  0
  8  9  2  0
  8 12  1  0
  9 10  1  0
 10 11  1  0
 11 12  2  0
M  END
>  <minimizedAffinity>  (421) 
-9.15944

$$$$
data/200k_reference_output/data/smiles/35546.pdb
     RDKit          3D

 27 30  0  0  0  0  0  0  0  0999 V2000
   73.3195   35.6188   53.9971 C   0  0  0  0  0  0  0  0  0  0  0  0
   74.6302   35.3392   54.6285 C   0  0  0  0  0  0  0  0  0  0  0  0
   75.8281   35.2782   53.9935 C   0  0  0  0  0  0  0  0  0  0  0  0
   76.7224   34.9757   54.9969 N   0  0  0  0  0  0  0  0  0  0  0  0
   78.0760   34.8145   54.8100 O   0  0  0  0  0  0  0  0  0  0  0  0
   76.0730   34.8685   56.1607 C   0  0  0  0  0  0  0  0  0  0  0  0
   74.7729   35.0881   55.9679 N   0  0  0  0  0  0  0  0  0  0  0  0
   73.7201   35.0714   56.9470 C   0  0  0  0  0  0  0  0  0  0  0  0
   73.3188   33.8831   57.5297 C   0  0  0  0  0  0  0  0  0  0  0  0
   72.3117   33.8553   58.4679 C   0  0  0  0  0  0  0  0  0  0  0  0
   71.6627   35.0064   58.8649 C   0  0  0  0  0  0  0  0  0  0  0  0
   70.6960   34.9858   59.7641 O   0  0  0  0  0  0  0  0  0  0  0  0
   70.0678   36.0540   60.1566 C   0  0  0  0  0  0  0  0  0  0  0  0
   70.3980   37.2862   59.6313 C   0  0  0  0  0  0  0  0  0  0  0  0
   71.4034   37.3487   58.6890 C   0  0  0  0  0  0  0  0  0  0  0  0
   71.7010   38.4525   58.2163 O   0  0  0  0  0  0  0  0  0  0  0  0
   72.0596   36.2073   58.2835 C   0  0  0  0  0  0  0  0  0  0  0  0
   73.0690   36.2188   57.3461 C   0  0  0  0  0  0  0  0  0  0  0  0
   76.2442   35.4834   52.5991 C   0  0  0  0  0  0  0  0  0  0  0  0
   76.6479   36.6324   52.2417 O   0  0  0  0  0  0  0  0  0  0  0  0
   76.2434   34.5151   51.5834 N   0  0  0  0  0  0  0  0  0  0  0  0
   76.6283   34.6481   50.2514 C   0  0  0  0  0  0  0  0  0  0  0  0
   75.9051   33.9077   49.2969 C   0  0  0  0  0  0  0  0  0  0  0  0
   76.1869   33.9534   47.9507 C   0  0  0  0  0  0  0  0  0  0  0  0
   77.2095   34.7402   47.4704 C   0  0  0  0  0  0  0  0  0  0  0  0
   77.9297   35.4720   48.3804 C   0  0  0  0  0  0  0  0  0  0  0  0
   77.6296   35.4134   49.7429 C   0  0  0  0  0  0  0  0  0  0  0  0
  1  2  1  0
  2  3  2  0
  2  7  1  0
  3 19  1  0
  3  4  1  0
 19 20  2  0
 19 21  1  0
 21 22  1  0
 22 23  2  0
 22 27  1  0
 23 24  1  0
 24 25  2  0
 25 26  1  0
 26 27  2  0
  4  5  1  0
  4  6  2  0
  6  7  1  0
  7  8  1  0
  8  9  2  0
  8 18  1  0
  9 10  1  0
 10 11  2  0
 11 12  1  0
 11 17  1  0
 12 13  1  0
 13 14  2  0
 14 15  1  0
 15 16  2  0
 15 17  1  0
 17 18  2  0
M  CHG  2   4   1   5  -1
M  END
>  <minimizedAffinity>  (422) 
-8.56357

$$$$
data/200k_reference_output/data/smiles/35658.pdb
     RDKit          3D

 23 25  0  0  0  0  0  0  0  0999 V2000
   70.9860   47.1955   58.7033 S   0  0  0  0  0  0  0  0  0  0  0  0
   69.6958   47.2006   57.4350 C   0  0  0  0  0  0  0  0  0  0  0  0
   68.3759   47.3659   57.5575 N   0  0  0  0  0  0  0  0  0  0  0  0
   67.8155   47.2973   56.3635 N   0  0  0  0  0  0  0  0  0  0  0  0
   68.7493   47.0841   55.4264 C   0  0  0  0  0  0  0  0  0  0  0  0
   69.9091   47.0263   56.0981 N   0  0  0  0  0  0  0  0  0  0  0  0
   68.5959   46.9389   53.9876 C   0  0  0  0  0  0  0  0  0  0  0  0
   69.2672   47.7668   53.1017 C   0  0  0  0  0  0  0  0  0  0  0  0
   69.1102   47.6157   51.7386 C   0  0  0  0  0  0  0  0  0  0  0  0
   68.3056   46.6683   51.2232 N   0  0  0  0  0  0  0  0  0  0  0  0
   67.6346   45.8426   52.0570 C   0  0  0  0  0  0  0  0  0  0  0  0
   67.7827   45.9815   53.4243 C   0  0  0  0  0  0  0  0  0  0  0  0
   71.4653   45.4810   59.0411 C   0  0  0  0  0  0  0  0  0  0  0  0
   70.2814   43.9033   57.4406 N   0  0  0  0  0  0  0  0  0  0  0  0
   70.4078   44.5007   58.6967 C   0  0  0  0  0  0  0  0  0  0  0  0
   69.5883   44.2166   59.6204 O   0  0  0  0  0  0  0  0  0  0  0  0
   68.3638   39.3719   57.8881 C   0  0  0  0  0  0  0  0  0  0  0  0
   68.3124   40.7347   57.2949 C   0  0  0  0  0  0  0  0  0  0  0  0
   67.3084   41.0751   56.4093 C   0  0  0  0  0  0  0  0  0  0  0  0
   67.2979   42.3538   55.8744 C   0  0  0  0  0  0  0  0  0  0  0  0
   68.2660   43.2759   56.2118 C   0  0  0  0  0  0  0  0  0  0  0  0
   69.2693   42.9524   57.0909 C   0  0  0  0  0  0  0  0  0  0  0  0
   69.2693   41.6753   57.6168 C   0  0  0  0  0  0  0  0  0  0  0  0
 17 18  1  0
 18 19  2  0
 18 23  1  0
 19 20  1  0
 20 21  2  0
 21 22  1  0
 22 14  1  0
 22 23  2  0
 14 15  1  0
 15 16  2  0
 15 13  1  0
 13  1  1  0
  1  2  1  0
  2  3  2  0
  2  6  1  0
  3  4  1  0
  4  5  1  0
  5  7  1  0
  5  6  2  0
  7  8  2  0
  7 12  1  0
  8  9  1  0
  9 10  2  0
 10 11  1  0
 11 12  2  0
M  END
>  <minimizedAffinity>  (423) 
-8.58764

$$$$
data/200k_reference_output/data/smiles/35736.pdb
     RDKit          3D

 25 27  0  0  0  0  0  0  0  0999 V2000
   68.9458   46.5655   56.3930 C   0  0  0  0  0  0  0  0  0  0  0  0
   69.0553   46.7938   57.6270 O   0  0  0  0  0  0  0  0  0  0  0  0
   68.6075   47.6091   55.5550 N   0  0  0  0  0  0  0  0  0  0  0  0
   68.3171   48.9151   56.1606 C   0  0  0  0  0  0  0  0  0  0  0  0
   67.5598   48.7010   57.2862 C   0  0  0  0  0  0  0  0  0  0  0  0
   67.1708   49.7783   58.0269 C   0  0  0  0  0  0  0  0  0  0  0  0
   67.5510   51.0455   57.6173 C   0  0  0  0  0  0  0  0  0  0  0  0
   68.3103   51.2204   56.4798 C   0  0  0  0  0  0  0  0  0  0  0  0
   68.7296   50.1470   55.6946 C   0  0  0  0  0  0  0  0  0  0  0  0
   69.4860   50.5612   54.5675 N   0  0  0  0  0  0  0  0  0  0  0  0
   69.7678   51.9989   54.4844 C   0  0  0  0  0  0  0  0  0  0  0  0
   70.1158   49.5984   53.2701 S   0  0  0  0  0  0  0  0  0  0  0  0
   71.5988   49.4365   53.3770 O   0  0  0  0  0  0  0  0  0  0  0  0
   69.8431   50.3761   51.9885 O   0  0  0  0  0  0  0  0  0  0  0  0
   69.2589   48.0979   53.1587 C   0  0  0  0  0  0  0  0  0  0  0  0
   69.1960   47.6205   51.8519 C   0  0  0  0  0  0  0  0  0  0  0  0
   68.5369   46.4498   51.5669 C   0  0  0  0  0  0  0  0  0  0  0  0
   67.9166   45.7064   52.5497 C   0  0  0  0  0  0  0  0  0  0  0  0
   67.9830   46.1824   53.8322 C   0  0  0  0  0  0  0  0  0  0  0  0
   68.6463   47.3579   54.1246 C   0  0  0  0  0  0  0  0  0  0  0  0
   69.2317   45.1675   56.1328 C   0  0  0  0  0  0  0  0  0  0  0  0
   68.0936   44.2442   56.3202 N   0  0  0  0  0  0  0  0  0  0  0  0
   68.9499   42.2269   57.5477 C   0  0  0  0  0  0  0  0  0  0  0  0
   68.3920   42.8775   56.3423 C   0  0  0  0  0  0  0  0  0  0  0  0
   67.0443   42.1532   56.0716 C   0  0  0  0  0  0  0  0  0  0  0  0
 23 24  1  0
 24 25  1  0
 24 22  1  0
 22 21  1  0
 21  1  1  0
  1  2  2  0
  1  3  1  0
  3  4  1  0
  3 20  1  0
  4  5  2  0
  4  9  1  0
  5  6  1  0
  6  7  2  0
  7  8  1  0
  8  9  2  0
  9 10  1  0
 10 11  1  0
 10 12  1  0
 12 13  2  0
 12 14  2  0
 12 15  1  0
 15 16  2  0
 15 20  1  0
 16 17  1  0
 17 18  2  0
 18 19  1  0
 19 20  2  0
M  CHG  1  22   1
M  END
>  <minimizedAffinity>  (424) 
-9.30786

$$$$
data/200k_reference_output/data/smiles/35830.pdb
     RDKit          3D

 29 32  0  0  0  0  0  0  0  0999 V2000
   68.6101   43.0585   56.5216 C   0  0  0  0  0  0  0  0  0  0  0  0
   69.7133   43.1711   57.3435 C   0  0  0  0  0  0  0  0  0  0  0  0
   70.1894   42.1570   58.1455 C   0  0  0  0  0  0  0  0  0  0  0  0
   69.5098   40.9455   58.1183 C   0  0  0  0  0  0  0  0  0  0  0  0
   68.4014   40.7740   57.3153 C   0  0  0  0  0  0  0  0  0  0  0  0
   67.7394   39.5703   57.2975 F   0  0  0  0  0  0  0  0  0  0  0  0
   67.9647   41.8278   56.5283 C   0  0  0  0  0  0  0  0  0  0  0  0
   70.0107   39.9139   58.9505 N   0  0  0  0  0  0  0  0  0  0  0  0
   71.3267   39.9952   59.5398 C   0  0  0  0  0  0  0  0  0  0  0  0
   72.1725   38.7898   59.1830 C   0  0  0  0  0  0  0  0  0  0  0  0
   71.3750   37.5688   59.0865 N   0  0  0  0  0  0  0  0  0  0  0  0
   70.0944   37.5945   59.7304 C   0  0  0  0  0  0  0  0  0  0  0  0
   69.2258   38.7392   59.2419 C   0  0  0  0  0  0  0  0  0  0  0  0
   71.9126   36.4554   58.3776 C   0  0  0  0  0  0  0  0  0  0  0  0
   72.5104   36.5900   57.1384 C   0  0  0  0  0  0  0  0  0  0  0  0
   73.0337   35.5101   56.4389 C   0  0  0  0  0  0  0  0  0  0  0  0
   72.9683   34.2442   56.9776 C   0  0  0  0  0  0  0  0  0  0  0  0
   72.3811   34.0865   58.2044 C   0  0  0  0  0  0  0  0  0  0  0  0
   71.8613   35.1848   58.8884 C   0  0  0  0  0  0  0  0  0  0  0  0
   69.5126   45.5766   56.8495 O   0  0  0  0  0  0  0  0  0  0  0  0
   68.6606   45.4368   55.9305 C   0  0  0  0  0  0  0  0  0  0  0  0
   68.1511   44.1306   55.7140 N   0  0  0  0  0  0  0  0  0  0  0  0
   68.2265   46.6079   55.1232 C   0  0  0  0  0  0  0  0  0  0  0  0
   68.7261   46.5960   53.7971 N   0  0  0  0  0  0  0  0  0  0  0  0
   68.0190   45.7902   52.8656 C   0  0  0  0  0  0  0  0  0  0  0  0
   67.8321   46.4577   51.5349 C   0  0  0  0  0  0  0  0  0  0  0  0
   68.9345   47.0871   51.0415 O   0  0  0  0  0  0  0  0  0  0  0  0
   69.8532   47.5402   51.9512 C   0  0  0  0  0  0  0  0  0  0  0  0
   69.0737   47.8618   53.2343 C   0  0  0  0  0  0  0  0  0  0  0  0
 20 21  2  0
 21 23  1  0
 21 22  1  0
 23 24  1  0
 24 25  1  0
 24 29  1  0
 25 26  1  0
 26 27  1  0
 27 28  1  0
 28 29  1  0
 22  1  1  0
  1  2  2  0
  1  7  1  0
  2  3  1  0
  3  4  2  0
  4  8  1  0
  4  5  1  0
  8  9  1  0
  8 13  1  0
  9 10  1  0
 10 11  1  0
 11 14  1  0
 11 12  1  0
 14 15  2  0
 14 19  1  0
 15 16  1  0
 16 17  2  0
 17 18  1  0
 18 19  2  0
 12 13  1  0
  5  6  1  0
  5  7  2  0
M  CHG  1  24   1
M  END
>  <minimizedAffinity>  (425) 
-8.78486

$$$$
data/200k_reference_output/data/smiles/35843.pdb
     RDKit          3D

 28 31  0  0  0  0  0  0  0  0999 V2000
   70.9235   44.6408   58.3998 C   0  0  2  0  0  0  0  0  0  0  0  0
   70.6706   44.4583   59.7599 O   0  0  0  0  0  0  0  0  0  0  0  0
   70.3774   43.4023   57.7064 C   0  0  0  0  0  0  0  0  0  0  0  0
   71.3417   42.3287   58.2141 C   0  0  0  0  0  0  0  0  0  0  0  0
   72.5934   43.0711   58.4065 N   0  0  0  0  0  0  0  0  0  0  0  0
   72.3656   44.4618   58.1870 C   0  0  0  0  0  0  0  0  0  0  0  0
   73.2920   45.2467   57.8837 O   0  0  0  0  0  0  0  0  0  0  0  0
   73.8406   42.4484   58.7640 C   0  0  0  0  0  0  0  0  0  0  0  0
   73.9245   41.5362   59.8029 C   0  0  0  0  0  0  0  0  0  0  0  0
   75.0890   40.9164   60.1818 C   0  0  0  0  0  0  0  0  0  0  0  0
   76.2547   41.2059   59.4983 C   0  0  0  0  0  0  0  0  0  0  0  0
   77.5288   40.7771   59.6214 N   0  0  0  0  0  0  0  0  0  0  0  0
   78.2456   41.3881   58.6947 N   0  0  0  0  0  0  0  0  0  0  0  0
   77.4931   42.2140   57.9548 C   0  0  0  0  0  0  0  0  0  0  0  0
   76.2039   42.1122   58.4551 C   0  0  0  0  0  0  0  0  0  0  0  0
   75.0105   42.7302   58.0883 C   0  0  0  0  0  0  0  0  0  0  0  0
   70.7284   46.9567   58.4528 O   0  0  0  0  0  0  0  0  0  0  0  0
   70.3460   45.8759   57.9456 C   0  0  0  0  0  0  0  0  0  0  0  0
   69.3638   45.9276   56.9505 N   0  0  0  0  0  0  0  0  0  0  0  0
   68.7177   47.0799   56.4130 C   0  0  0  0  0  0  0  0  0  0  0  0
   68.6697   46.9733   54.9396 C   0  0  0  0  0  0  0  0  0  0  0  0
   67.9504   45.9469   54.3313 C   0  0  0  0  0  0  0  0  0  0  0  0
   67.8698   45.8124   52.9771 C   0  0  0  0  0  0  0  0  0  0  0  0
   67.1685   44.8103   52.4126 F   0  0  0  0  0  0  0  0  0  0  0  0
   68.5142   46.7117   52.1606 C   0  0  0  0  0  0  0  0  0  0  0  0
   69.2332   47.7354   52.7372 C   0  0  0  0  0  0  0  0  0  0  0  0
   70.0601   48.8906   51.6900 Cl  0  0  0  0  0  0  0  0  0  0  0  0
   69.3073   47.8623   54.1125 C   0  0  0  0  0  0  0  0  0  0  0  0
 17 18  2  0
 18 19  1  0
 19 20  1  0
 20 21  1  0
 21 22  2  0
 21 28  1  0
 22 23  1  0
 23 24  1  0
 23 25  2  0
 25 26  1  0
 26 27  1  0
 26 28  2  0
  1 18  1  0
  1  2  1  1
  1  3  1  0
  1  6  1  0
  3  4  1  0
  4  5  1  0
  5  8  1  0
  5  6  1  0
  8  9  2  0
  8 16  1  0
  9 10  1  0
 10 11  2  0
 11 12  1  0
 11 15  1  0
 12 13  1  0
 13 14  2  0
 14 15  1  0
 15 16  2  0
  6  7  2  0
M  END
>  <minimizedAffinity>  (426) 
-8.98481

$$$$
data/200k_reference_output/data/smiles/35962.pdb
     RDKit          3D

 29 31  0  0  0  0  0  0  0  0999 V2000
   70.7290   50.5278   55.7466 N   0  0  0  0  0  0  0  0  0  0  0  0
   69.5058   51.1914   55.9495 C   0  0  0  0  0  0  0  0  0  0  0  0
   68.8913   51.3193   57.2582 C   0  0  0  0  0  0  0  0  0  0  0  0
   69.6836   51.1172   58.4856 C   0  0  0  0  0  0  0  0  0  0  0  0
   71.0312   50.7275   58.2643 N   0  0  0  0  0  0  0  0  0  0  0  0
   71.6308   49.5429   58.6243 C   0  0  0  0  0  0  0  0  0  0  0  0
   72.9206   49.4929   58.3857 O   0  0  0  0  0  0  0  0  0  0  0  0
   71.9698   51.6550   57.5532 C   0  0  0  0  0  0  0  0  0  0  0  0
   71.9311   51.1722   56.1347 C   0  0  0  0  0  0  0  0  0  0  0  0
   70.8611   50.2266   54.0434 S   0  0  0  0  0  0  0  0  0  0  0  0
   72.2759   49.9501   53.6368 O   0  0  0  0  0  0  0  0  0  0  0  0
   70.3218   51.3798   53.2454 O   0  0  0  0  0  0  0  0  0  0  0  0
   67.5807   45.3945   52.5253 C   0  0  0  0  0  0  0  0  0  0  0  0
   68.3937   46.5921   52.9037 C   0  0  0  0  0  0  0  0  0  0  0  0
   69.1010   47.2766   51.9366 C   0  0  0  0  0  0  0  0  0  0  0  0
   69.8402   48.3693   52.2974 C   0  0  0  0  0  0  0  0  0  0  0  0
   69.9032   48.8210   53.6190 C   0  0  0  0  0  0  0  0  0  0  0  0
   69.1795   48.1069   54.5529 C   0  0  0  0  0  0  0  0  0  0  0  0
   68.4197   46.9918   54.2167 C   0  0  0  0  0  0  0  0  0  0  0  0
   71.1168   48.3390   59.2218 C   0  0  0  0  0  0  0  0  0  0  0  0
   71.6810   47.0694   58.9208 N   0  0  0  0  0  0  0  0  0  0  0  0
   70.8875   46.0199   58.4216 C   0  0  0  0  0  0  0  0  0  0  0  0
   69.6496   46.1974   58.2285 O   0  0  0  0  0  0  0  0  0  0  0  0
   71.4536   44.7103   58.1150 C   0  0  0  0  0  0  0  0  0  0  0  0
   70.7043   43.5790   57.9270 C   0  0  0  0  0  0  0  0  0  0  0  0
   71.3283   42.3618   57.6363 C   0  0  0  0  0  0  0  0  0  0  0  0
   72.7003   42.2745   57.5346 C   0  0  0  0  0  0  0  0  0  0  0  0
   73.4638   43.4042   57.7218 C   0  0  0  0  0  0  0  0  0  0  0  0
   72.8382   44.5926   58.0067 C   0  0  0  0  0  0  0  0  0  0  0  0
 13 14  1  0
 14 15  2  0
 14 19  1  0
 15 16  1  0
 16 17  2  0
 17 10  1  0
 17 18  1  0
 10 11  2  0
 10 12  2  0
 10  1  1  0
  1  2  1  0
  1  9  1  0
  2  3  1  0
  3  4  1  0
  4  5  1  0
  5  6  1  0
  5  8  1  0
  6  7  2  0
  6 20  1  0
 20 21  1  0
 21 22  1  0
 22 23  2  0
 22 24  1  0
 24 25  2  0
 24 29  1  0
 25 26  1  0
 26 27  2  0
 27 28  1  0
 28 29  2  0
  8  9  1  0
 18 19  2  0
M  END
>  <minimizedAffinity>  (427) 
-8.65380

$$$$
data/200k_reference_output/data/smiles/35967.pdb
     RDKit          3D

 27 29  0  0  0  0  0  0  0  0999 V2000
   69.7988   43.9580   57.3287 C   0  0  0  0  0  0  0  0  0  0  0  0
   70.9231   44.0895   57.8884 O   0  0  0  0  0  0  0  0  0  0  0  0
   69.1863   45.1554   56.8695 N   0  0  0  0  0  0  0  0  0  0  0  0
   69.0053   40.2894   57.7430 C   0  0  0  0  0  0  0  0  0  0  0  0
   67.9743   40.1835   56.8363 C   0  0  0  0  0  0  0  0  0  0  0  0
   67.5536   41.2819   56.1143 C   0  0  0  0  0  0  0  0  0  0  0  0
   66.5425   41.1743   55.2252 F   0  0  0  0  0  0  0  0  0  0  0  0
   68.1400   42.5211   56.2642 C   0  0  0  0  0  0  0  0  0  0  0  0
   69.1764   42.6394   57.1704 C   0  0  0  0  0  0  0  0  0  0  0  0
   69.5987   41.5449   57.8936 C   0  0  0  0  0  0  0  0  0  0  0  0
   71.8458   36.4671   59.3346 C   0  0  0  0  0  0  0  0  0  0  0  0
   70.7241   37.4629   59.2122 C   0  0  0  0  0  0  0  0  0  0  0  0
   69.5882   37.5612   59.9895 C   0  0  0  0  0  0  0  0  0  0  0  0
   68.8637   38.5961   59.5244 N   0  0  0  0  0  0  0  0  0  0  0  0
   69.4566   39.1719   58.4997 N   0  0  0  0  0  0  0  0  0  0  0  0
   70.6164   38.4832   58.2883 C   0  0  0  0  0  0  0  0  0  0  0  0
   69.8276   46.3932   57.0476 N   0  0  0  0  0  0  0  0  0  0  0  0
   68.8347   47.6599   56.3685 S   0  0  0  0  0  0  0  0  0  0  0  0
   69.3913   48.9500   56.8571 O   0  0  0  0  0  0  0  0  0  0  0  0
   67.4101   47.4568   56.7519 O   0  0  0  0  0  0  0  0  0  0  0  0
   68.9555   47.5000   54.6244 C   0  0  0  0  0  0  0  0  0  0  0  0
   69.6137   48.4139   53.8394 C   0  0  0  0  0  0  0  0  0  0  0  0
   69.7048   48.2820   52.4645 C   0  0  0  0  0  0  0  0  0  0  0  0
   69.1150   47.1913   51.8286 C   0  0  0  0  0  0  0  0  0  0  0  0
   68.4553   46.2785   52.6252 C   0  0  0  0  0  0  0  0  0  0  0  0
   68.3676   46.4114   53.9799 C   0  0  0  0  0  0  0  0  0  0  0  0
   67.7153   45.5035   54.7370 F   0  0  0  0  0  0  0  0  0  0  0  0
 11 12  1  0
 12 13  1  0
 12 16  2  0
 13 14  2  0
 14 15  1  0
 15  4  1  0
 15 16  1  0
  4  5  2  0
  4 10  1  0
  5  6  1  0
  6  7  1  0
  6  8  2  0
  8  9  1  0
  9  1  1  0
  9 10  2  0
  1  2  2  0
  1  3  1  0
  3 17  1  0
 17 18  1  0
 18 19  2  0
 18 20  2  0
 18 21  1  0
 21 22  2  0
 21 26  1  0
 22 23  1  0
 23 24  2  0
 24 25  1  0
 25 26  2  0
 26 27  1  0
M  END
>  <minimizedAffinity>  (428) 
-9.07265

$$$$
data/200k_reference_output/data/smiles/36105.pdb
     RDKit          3D

 24 26  0  0  0  0  0  0  0  0999 V2000
   70.7187   45.3212   57.8663 C   0  0  0  0  0  0  0  0  0  0  0  0
   71.9792   45.3303   58.4167 C   0  0  0  0  0  0  0  0  0  0  0  0
   72.6456   46.5020   58.7372 C   0  0  0  0  0  0  0  0  0  0  0  0
   72.0547   47.7260   58.5097 C   0  0  0  0  0  0  0  0  0  0  0  0
   70.7969   47.7432   57.9609 C   0  0  0  0  0  0  0  0  0  0  0  0
   70.1368   46.5502   57.6427 C   0  0  0  0  0  0  0  0  0  0  0  0
   68.6679   41.7729   56.9117 C   0  0  0  0  0  0  0  0  0  0  0  0
   69.7992   41.7722   57.6916 C   0  0  0  0  0  0  0  0  0  0  0  0
   70.4063   42.9257   57.9614 N   0  0  0  0  0  0  0  0  0  0  0  0
   69.9785   44.1136   57.5125 C   0  0  0  0  0  0  0  0  0  0  0  0
   68.8798   44.1205   56.7545 N   0  0  0  0  0  0  0  0  0  0  0  0
   68.2187   42.9919   56.4446 C   0  0  0  0  0  0  0  0  0  0  0  0
   67.1735   42.9856   55.7242 O   0  0  0  0  0  0  0  0  0  0  0  0
   67.6665   40.2725   55.4358 O   0  0  0  0  0  0  0  0  0  0  0  0
   67.9966   40.5222   56.6103 C   0  0  0  0  0  0  0  0  0  0  0  0
   67.7195   39.6112   57.6012 O   0  0  0  0  0  0  0  0  0  0  0  0
   68.8628   46.5859   57.0872 O   0  0  0  0  0  0  0  0  0  0  0  0
   68.4439   47.6652   56.2593 C   0  0  0  0  0  0  0  0  0  0  0  0
   68.5356   47.3078   54.8260 C   0  0  0  0  0  0  0  0  0  0  0  0
   69.2623   48.0828   53.9303 C   0  0  0  0  0  0  0  0  0  0  0  0
   69.3600   47.7653   52.5882 C   0  0  0  0  0  0  0  0  0  0  0  0
   68.7215   46.6493   52.1177 C   0  0  0  0  0  0  0  0  0  0  0  0
   67.9981   45.8630   52.9648 C   0  0  0  0  0  0  0  0  0  0  0  0
   67.9061   46.1925   54.3150 C   0  0  0  0  0  0  0  0  0  0  0  0
 14 15  2  0
 15 16  1  0
 15  7  1  0
  7  8  2  0
  7 12  1  0
  8  9  1  0
  9 10  2  0
 10  1  1  0
 10 11  1  0
  1  2  2  0
  1  6  1  0
  2  3  1  0
  3  4  2  0
  4  5  1  0
  5  6  2  0
  6 17  1  0
 17 18  1  0
 18 19  1  0
 19 20  2  0
 19 24  1  0
 20 21  1  0
 21 22  2  0
 22 23  1  0
 23 24  2  0
 11 12  1  0
 12 13  2  0
M  END
>  <minimizedAffinity>  (429) 
-8.92636

$$$$
data/200k_reference_output/data/smiles/36146.pdb
     RDKit          3D

 22 24  0  0  0  0  0  0  0  0999 V2000
   68.9354   47.2156   56.2091 S   0  0  0  0  0  0  0  0  0  0  0  0
   67.4760   47.2192   56.4943 O   0  0  0  0  0  0  0  0  0  0  0  0
   69.5297   45.8350   56.3708 O   0  0  0  0  0  0  0  0  0  0  0  0
   69.3274   47.8520   54.6396 C   0  0  0  0  0  0  0  0  0  0  0  0
   70.1449   48.9462   54.4868 C   0  0  0  0  0  0  0  0  0  0  0  0
   70.4102   49.3871   53.2134 C   0  0  0  0  0  0  0  0  0  0  0  0
   69.8962   48.7844   52.0885 C   0  0  0  0  0  0  0  0  0  0  0  0
   70.1732   49.2418   50.7941 O   0  0  0  0  0  0  0  0  0  0  0  0
   69.0779   47.6893   52.2394 C   0  0  0  0  0  0  0  0  0  0  0  0
   68.5432   47.0587   51.1642 N   0  0  0  0  0  0  0  0  0  0  0  0
   67.7498   45.9941   51.3742 C   0  0  0  0  0  0  0  0  0  0  0  0
   67.4469   45.5079   52.6118 C   0  0  0  0  0  0  0  0  0  0  0  0
   67.9749   46.1262   53.7172 C   0  0  0  0  0  0  0  0  0  0  0  0
   68.7875   47.2145   53.5203 C   0  0  0  0  0  0  0  0  0  0  0  0
   70.5805   47.8087   58.3949 C   0  0  0  0  0  0  0  0  0  0  0  0
   69.6501   48.2508   57.3789 N   0  0  0  0  0  0  0  0  0  0  0  0
   69.3179   49.6247   57.3591 C   0  0  0  0  0  0  0  0  0  0  0  0
   70.2843   50.6230   57.3750 C   0  0  0  0  0  0  0  0  0  0  0  0
   69.9066   51.9331   57.3552 C   0  0  0  0  0  0  0  0  0  0  0  0
   68.5848   52.3127   57.3196 C   0  0  0  0  0  0  0  0  0  0  0  0
   67.6283   51.3314   57.3035 C   0  0  0  0  0  0  0  0  0  0  0  0
   67.9830   49.9940   57.3231 C   0  0  0  0  0  0  0  0  0  0  0  0
 15 16  1  0
 16 17  1  0
 16  1  1  0
 17 18  2  0
 17 22  1  0
 18 19  1  0
 19 20  2  0
 20 21  1  0
 21 22  2  0
  1  2  2  0
  1  3  2  0
  1  4  1  0
  4  5  2  0
  4 14  1  0
  5  6  1  0
  6  7  2  0
  7  8  1  0
  7  9  1  0
  9 10  1  0
  9 14  2  0
 10 11  2  0
 11 12  1  0
 12 13  2  0
 13 14  1  0
M  END
>  <minimizedAffinity>  (430) 
-8.57053

$$$$
data/200k_reference_output/data/smiles/36159.pdb
     RDKit          3D

 26 28  0  0  0  0  0  0  0  0999 V2000
   68.8525   47.5037   53.0476 C   0  0  0  0  0  0  0  0  0  0  0  0
   69.7942   48.5064   52.8526 C   0  0  0  0  0  0  0  0  0  0  0  0
   70.2877   49.2699   53.8880 C   0  0  0  0  0  0  0  0  0  0  0  0
   69.8469   49.0458   55.1514 C   0  0  0  0  0  0  0  0  0  0  0  0
   68.9116   48.0539   55.3657 C   0  0  0  0  0  0  0  0  0  0  0  0
   68.4116   47.2837   54.3340 C   0  0  0  0  0  0  0  0  0  0  0  0
   68.4734   47.8637   56.7747 C   0  0  0  0  0  0  0  0  0  0  0  0
   69.7326   47.7003   57.6106 C   0  0  2  0  0  0  0  0  0  0  0  0
   70.7156   48.7991   57.3854 C   0  0  0  0  0  0  0  0  0  0  0  0
   70.3013   49.8012   56.3537 C   0  0  0  0  0  0  0  0  0  0  0  0
   69.0396   46.7540   50.8269 O   0  0  0  0  0  0  0  0  0  0  0  0
   68.3781   46.7403   51.9074 C   0  0  0  0  0  0  0  0  0  0  0  0
   67.2098   45.9693   51.9256 N   0  0  0  0  0  0  0  0  0  0  0  0
   66.7815   45.2544   50.8321 O   0  0  0  0  0  0  0  0  0  0  0  0
   70.2697   46.3964   57.3005 N   0  0  0  0  0  0  0  0  0  0  0  0
   70.8426   45.5620   58.6891 S   0  0  0  0  0  0  0  0  0  0  0  0
   71.1596   46.6046   59.7362 O   0  0  0  0  0  0  0  0  0  0  0  0
   69.7247   44.6907   59.1852 O   0  0  0  0  0  0  0  0  0  0  0  0
   72.2082   44.5438   58.3474 C   0  0  0  0  0  0  0  0  0  0  0  0
   73.4932   44.9069   58.7056 C   0  0  0  0  0  0  0  0  0  0  0  0
   74.5741   44.0947   58.4322 C   0  0  0  0  0  0  0  0  0  0  0  0
   74.3288   42.8952   57.7808 C   0  0  0  0  0  0  0  0  0  0  0  0
   75.3709   42.0896   57.5050 F   0  0  0  0  0  0  0  0  0  0  0  0
   73.0577   42.5249   57.4205 C   0  0  0  0  0  0  0  0  0  0  0  0
   71.9748   43.3337   57.6922 C   0  0  0  0  0  0  0  0  0  0  0  0
   70.7041   43.0015   57.3511 F   0  0  0  0  0  0  0  0  0  0  0  0
 11 12  2  0
 12 13  1  0
 12  1  1  0
 13 14  1  0
  1  2  2  0
  1  6  1  0
  2  3  1  0
  3  4  2  0
  4  5  1  0
  4 10  1  0
  5  6  2  0
  5  7  1  0
  7  8  1  0
  8 15  1  6
  8  9  1  0
 15 16  1  0
 16 17  2  0
 16 18  2  0
 16 19  1  0
 19 20  2  0
 19 25  1  0
 20 21  1  0
 21 22  2  0
 22 23  1  0
 22 24  1  0
 24 25  2  0
 25 26  1  0
  9 10  1  0
M  END
>  <minimizedAffinity>  (431) 
-8.87478

$$$$
data/200k_reference_output/data/smiles/36288.pdb
     RDKit          3D

 26 28  0  0  0  0  0  0  0  0999 V2000
   69.9317   42.9874   59.1382 C   0  0  0  0  0  0  0  0  0  0  0  0
   70.6117   42.7040   56.8362 O   0  0  0  0  0  0  0  0  0  0  0  0
   69.8962   43.3018   57.7110 C   0  0  0  0  0  0  0  0  0  0  0  0
   69.0503   44.3161   57.1415 N   0  0  0  0  0  0  0  0  0  0  0  0
   69.0290   44.6037   55.7744 N   0  0  0  0  0  0  0  0  0  0  0  0
   68.4721   45.8271   55.3176 C   0  0  0  0  0  0  0  0  0  0  0  0
   68.0157   46.6033   56.2032 O   0  0  0  0  0  0  0  0  0  0  0  0
   68.4095   46.2058   53.9155 C   0  0  0  0  0  0  0  0  0  0  0  0
   69.1430   47.2611   53.4260 C   0  0  0  0  0  0  0  0  0  0  0  0
   69.0964   47.6359   52.0907 C   0  0  0  0  0  0  0  0  0  0  0  0
   68.3153   46.9478   51.2706 N   0  0  0  0  0  0  0  0  0  0  0  0
   67.5846   45.9097   51.7153 C   0  0  0  0  0  0  0  0  0  0  0  0
   67.6128   45.5118   53.0492 C   0  0  0  0  0  0  0  0  0  0  0  0
   71.0992   42.2689   59.4384 O   0  0  0  0  0  0  0  0  0  0  0  0
   71.3320   40.9372   59.1698 C   0  0  0  0  0  0  0  0  0  0  0  0
   72.6011   40.4079   59.1103 C   0  0  0  0  0  0  0  0  0  0  0  0
   72.7707   39.0546   58.8325 C   0  0  0  0  0  0  0  0  0  0  0  0
   71.6995   38.2166   58.6149 C   0  0  0  0  0  0  0  0  0  0  0  0
   70.4262   38.7262   58.6720 C   0  0  0  0  0  0  0  0  0  0  0  0
   70.2683   40.0576   58.9444 C   0  0  0  0  0  0  0  0  0  0  0  0
   71.9699   36.8089   58.3300 C   0  0  0  0  0  0  0  0  0  0  0  0
   72.7035   36.4344   57.2279 C   0  0  0  0  0  0  0  0  0  0  0  0
   72.9656   35.0978   56.9482 C   0  0  0  0  0  0  0  0  0  0  0  0
   72.4809   34.1370   57.7934 C   0  0  0  0  0  0  0  0  0  0  0  0
   71.7465   34.5242   58.8958 C   0  0  0  0  0  0  0  0  0  0  0  0
   71.4798   35.8454   59.1832 C   0  0  0  0  0  0  0  0  0  0  0  0
  2  3  2  0
  3  1  1  0
  3  4  1  0
  1 14  1  0
 14 15  1  0
 15 16  2  0
 15 20  1  0
 16 17  1  0
 17 18  2  0
 18 21  1  0
 18 19  1  0
 21 22  2  0
 21 26  1  0
 22 23  1  0
 23 24  2  0
 24 25  1  0
 25 26  2  0
 19 20  2  0
  4  5  1  0
  5  6  1  0
  6  7  2  0
  6  8  1  0
  8  9  2  0
  8 13  1  0
  9 10  1  0
 10 11  2  0
 11 12  1  0
 12 13  2  0
M  END
>  <minimizedAffinity>  (432) 
-8.69775

$$$$
data/200k_reference_output/data/smiles/36346.pdb
     RDKit          3D

 26 28  0  0  0  0  0  0  0  0999 V2000
   68.6602   49.2468   56.5517 C   0  0  0  0  0  0  0  0  0  0  0  0
   67.7334   48.8973   57.5116 C   0  0  0  0  0  0  0  0  0  0  0  0
   66.8376   49.8545   58.0035 C   0  0  0  0  0  0  0  0  0  0  0  0
   66.9167   51.1342   57.5027 C   0  0  0  0  0  0  0  0  0  0  0  0
   67.8673   51.4629   56.5287 C   0  0  0  0  0  0  0  0  0  0  0  0
   68.7495   50.5236   56.0425 C   0  0  0  0  0  0  0  0  0  0  0  0
   69.5938   48.2210   56.0473 C   0  0  0  0  0  0  0  0  0  0  0  0
   67.3106   45.2107   51.6677 C   0  0  0  0  0  0  0  0  0  0  0  0
   67.8865   45.9623   52.8013 C   0  0  0  0  0  0  0  0  0  0  0  0
   68.5106   47.1776   52.5823 C   0  0  0  0  0  0  0  0  0  0  0  0
   69.0452   47.8710   53.6504 C   0  0  0  0  0  0  0  0  0  0  0  0
   68.9932   47.4149   54.9499 C   0  0  0  0  0  0  0  0  0  0  0  0
   68.3746   46.2066   55.1733 C   0  0  0  0  0  0  0  0  0  0  0  0
   67.8430   45.5198   54.1059 C   0  0  0  0  0  0  0  0  0  0  0  0
   69.6840   50.8324   55.0893 O   0  0  0  0  0  0  0  0  0  0  0  0
   71.0091   51.1934   55.2514 C   0  0  2  0  0  0  0  0  0  0  0  0
   71.1889   52.7167   55.3547 C   0  0  0  0  0  0  0  0  0  0  0  0
   72.6238   52.9864   55.7125 C   0  0  1  0  0  0  0  0  0  0  0  0
   73.6080   52.3507   54.7879 C   0  0  1  0  0  0  0  0  0  0  0  0
   74.8611   52.3732   55.4429 O   0  0  0  0  0  0  0  0  0  0  0  0
   73.3077   50.9029   54.4965 C   0  0  2  0  0  0  0  0  0  0  0  0
   74.1943   50.4309   53.5510 O   0  0  0  0  0  0  0  0  0  0  0  0
   71.8815   50.7992   54.0609 C   0  0  1  0  0  0  0  0  0  0  0  0
   71.5588   49.5385   53.5852 O   0  0  0  0  0  0  0  0  0  0  0  0
   72.8842   54.4781   55.7222 C   0  0  0  0  0  0  0  0  0  0  0  0
   73.3994   54.9376   54.5253 O   0  0  0  0  0  0  0  0  0  0  0  0
  8  9  1  0
  9 10  2  0
  9 14  1  0
 10 11  1  0
 11 12  2  0
 12  7  1  0
 12 13  1  0
  7  1  1  0
  1  2  2  0
  1  6  1  0
  2  3  1  0
  3  4  2  0
  4  5  1  0
  5  6  2  0
  6 15  1  0
 16 15  1  6
 16 17  1  0
 16 23  1  0
 17 18  1  0
 18 25  1  6
 18 19  1  0
 25 26  1  0
 19 20  1  1
 19 21  1  0
 21 22  1  6
 21 23  1  0
 23 24  1  1
 13 14  2  0
M  END
>  <minimizedAffinity>  (433) 
-8.65914

$$$$
data/200k_reference_output/data/smiles/36384.pdb
     RDKit          3D

 27 29  0  0  0  0  0  0  0  0999 V2000
   70.6342   51.3598   56.8600 C   0  0  0  0  0  0  0  0  0  0  0  0
   69.9927   52.5549   56.8944 C   0  0  0  0  0  0  0  0  0  0  0  0
   69.2561   52.9432   55.7746 C   0  0  0  0  0  0  0  0  0  0  0  0
   69.1548   52.1637   54.6414 C   0  0  0  0  0  0  0  0  0  0  0  0
   69.8021   50.9448   54.5917 C   0  0  0  0  0  0  0  0  0  0  0  0
   70.5212   50.5805   55.7011 C   0  0  0  0  0  0  0  0  0  0  0  0
   69.6899   50.1206   53.3970 C   0  0  0  0  0  0  0  0  0  0  0  0
   69.9229   50.4710   52.1091 N   0  0  0  0  0  0  0  0  0  0  0  0
   69.7184   49.4440   51.3022 N   0  0  0  0  0  0  0  0  0  0  0  0
   69.3402   48.3634   52.0062 C   0  0  0  0  0  0  0  0  0  0  0  0
   69.0118   47.0697   51.6732 C   0  0  0  0  0  0  0  0  0  0  0  0
   68.6573   46.1642   52.6536 C   0  0  0  0  0  0  0  0  0  0  0  0
   68.6270   46.5459   53.9783 C   0  0  0  0  0  0  0  0  0  0  0  0
   68.9580   47.8429   54.2948 C   0  0  0  0  0  0  0  0  0  0  0  0
   69.3226   48.7937   53.3388 C   0  0  0  0  0  0  0  0  0  0  0  0
   68.2525   45.5892   55.0073 C   0  0  0  0  0  0  0  0  0  0  0  0
   68.5857   45.8078   56.3706 N   0  0  0  0  0  0  0  0  0  0  0  0
   67.6214   44.5293   54.7512 O   0  0  0  0  0  0  0  0  0  0  0  0
   72.7725   51.0634   58.1515 C   0  0  0  0  0  0  0  0  0  0  0  0
   73.4139   51.8037   57.3830 O   0  0  0  0  0  0  0  0  0  0  0  0
   71.4168   50.8335   57.9159 N   0  0  0  0  0  0  0  0  0  0  0  0
   73.4304   50.4072   59.3384 C   0  0  2  0  0  0  0  0  0  0  0  0
   74.7821   50.9951   59.6042 C   0  0  0  0  0  0  0  0  0  0  0  0
   73.4389   49.0129   59.2061 O   0  0  0  0  0  0  0  0  0  0  0  0
   71.6496   47.2666   58.8156 C   0  0  0  0  0  0  0  0  0  0  0  0
   72.4654   48.1689   59.6687 C   0  0  0  0  0  0  0  0  0  0  0  0
   72.2339   48.1457   60.9036 O   0  0  0  0  0  0  0  0  0  0  0  0
 25 26  1  0
 26 27  2  0
 26 24  1  0
 24 22  1  0
 22 23  1  6
 22 19  1  0
 19 20  2  0
 19 21  1  0
 21  1  1  0
  1  2  2  0
  1  6  1  0
  2  3  1  0
  3  4  2  0
  4  5  1  0
  5  7  1  0
  5  6  2  0
  7  8  2  0
  7 15  1  0
  8  9  1  0
  9 10  1  0
 10 11  1  0
 10 15  2  0
 11 12  2  0
 12 13  1  0
 13 16  1  0
 13 14  2  0
 16 17  1  0
 16 18  2  0
 14 15  1  0
M  END
>  <minimizedAffinity>  (434) 
-8.52957

$$$$
data/200k_reference_output/data/smiles/36436.pdb
     RDKit          3D

 24 26  0  0  0  0  0  0  0  0999 V2000
   69.0114   42.4001   57.1004 C   0  0  0  0  0  0  0  0  0  0  0  0
   69.6541   43.6006   57.3325 C   0  0  0  0  0  0  0  0  0  0  0  0
   69.0168   44.6105   56.5969 C   0  0  0  0  0  0  0  0  0  0  0  0
   68.0318   43.9832   55.9630 N   0  0  0  0  0  0  0  0  0  0  0  0
   68.0200   42.6907   56.2493 N   0  0  0  0  0  0  0  0  0  0  0  0
   70.5242   37.3233   59.4636 C   0  0  0  0  0  0  0  0  0  0  0  0
   70.1650   38.6538   58.8705 C   0  0  0  0  0  0  0  0  0  0  0  0
   68.8845   38.8762   58.3955 C   0  0  0  0  0  0  0  0  0  0  0  0
   68.5142   40.0777   57.8280 C   0  0  0  0  0  0  0  0  0  0  0  0
   69.4176   41.1351   57.7037 C   0  0  0  0  0  0  0  0  0  0  0  0
   70.6888   40.9018   58.1815 C   0  0  0  0  0  0  0  0  0  0  0  0
   71.0612   39.6897   58.7545 C   0  0  0  0  0  0  0  0  0  0  0  0
   69.4947   46.0023   56.6498 C   0  0  0  0  0  0  0  0  0  0  0  0
   68.6384   46.9294   55.8845 C   0  0  0  0  0  0  0  0  0  0  0  0
   67.4827   47.1663   56.2953 O   0  0  0  0  0  0  0  0  0  0  0  0
   69.0633   47.5974   54.6562 C   0  0  0  0  0  0  0  0  0  0  0  0
   68.7426   46.9498   53.4464 C   0  0  0  0  0  0  0  0  0  0  0  0
   68.0379   45.7405   53.5122 O   0  0  0  0  0  0  0  0  0  0  0  0
   69.1060   47.4796   52.2344 C   0  0  0  0  0  0  0  0  0  0  0  0
   69.8085   48.6826   52.1583 C   0  0  0  0  0  0  0  0  0  0  0  0
   70.1919   49.2448   50.9409 O   0  0  0  0  0  0  0  0  0  0  0  0
   70.1120   49.3006   53.3515 C   0  0  0  0  0  0  0  0  0  0  0  0
   69.7451   48.7678   54.5936 C   0  0  0  0  0  0  0  0  0  0  0  0
   70.0776   49.4339   55.7667 O   0  0  0  0  0  0  0  0  0  0  0  0
  6  7  1  0
  7  8  2  0
  7 12  1  0
  8  9  1  0
  9 10  2  0
 10  1  1  0
 10 11  1  0
  1  2  2  0
  1  5  1  0
  2  3  1  0
  3 13  1  0
  3  4  2  0
 13 14  1  0
 14 15  2  0
 14 16  1  0
 16 17  2  0
 16 23  1  0
 17 18  1  0
 17 19  1  0
 19 20  2  0
 20 21  1  0
 20 22  1  0
 22 23  2  0
 23 24  1  0
  4  5  1  0
 11 12  2  0
M  END
>  <minimizedAffinity>  (435) 
-8.52408

$$$$
data/200k_reference_output/data/smiles/36477.pdb
     RDKit          3D

 23 25  0  0  0  0  0  0  0  0999 V2000
   69.7083   45.0893   59.1574 O   0  0  0  0  0  0  0  0  0  0  0  0
   70.5484   45.3394   58.2798 C   0  0  0  0  0  0  0  0  0  0  0  0
   70.2271   46.4018   57.3717 N   0  0  0  0  0  0  0  0  0  0  0  0
   71.7866   44.5863   58.1872 C   0  0  0  0  0  0  0  0  0  0  0  0
   71.7303   43.2698   57.7103 C   0  0  0  0  0  0  0  0  0  0  0  0
   72.8518   42.4829   57.5894 C   0  0  0  0  0  0  0  0  0  0  0  0
   74.0857   42.9822   57.9441 C   0  0  0  0  0  0  0  0  0  0  0  0
   75.2118   42.2159   57.8309 N   0  0  0  0  0  0  0  0  0  0  0  0
   76.4123   42.7097   58.1787 C   0  0  0  0  0  0  0  0  0  0  0  0
   76.5542   43.9972   58.6574 C   0  0  0  0  0  0  0  0  0  0  0  0
   75.4163   44.7617   58.7672 C   0  0  0  0  0  0  0  0  0  0  0  0
   74.1663   44.2736   58.4154 C   0  0  0  0  0  0  0  0  0  0  0  0
   73.0294   45.0404   58.5265 C   0  0  0  0  0  0  0  0  0  0  0  0
   69.0791   47.1229   57.4313 N   0  0  0  0  0  0  0  0  0  0  0  0
   68.4081   47.5482   56.4694 C   0  0  0  0  0  0  0  0  0  0  0  0
   68.6859   47.3792   55.0694 C   0  0  0  0  0  0  0  0  0  0  0  0
   68.2737   46.3330   54.3063 C   0  0  0  0  0  0  0  0  0  0  0  0
   68.5915   46.2464   52.9365 C   0  0  0  0  0  0  0  0  0  0  0  0
   69.3296   47.2160   52.3203 C   0  0  0  0  0  0  0  0  0  0  0  0
   69.6221   47.0944   50.9670 O   0  0  0  0  0  0  0  0  0  0  0  0
   69.7542   48.2786   53.0707 C   0  0  0  0  0  0  0  0  0  0  0  0
   70.5004   49.2485   52.4272 O   0  0  0  0  0  0  0  0  0  0  0  0
   69.4382   48.3456   54.3916 C   0  0  0  0  0  0  0  0  0  0  0  0
  1  2  2  0
  2  3  1  0
  2  4  1  0
  3 14  1  0
 14 15  2  0
 15 16  1  0
 16 17  2  0
 16 23  1  0
 17 18  1  0
 18 19  2  0
 19 20  1  0
 19 21  1  0
 21 22  1  0
 21 23  2  0
  4  5  2  0
  4 13  1  0
  5  6  1  0
  6  7  2  0
  7  8  1  0
  7 12  1  0
  8  9  2  0
  9 10  1  0
 10 11  2  0
 11 12  1  0
 12 13  2  0
M  END
>  <minimizedAffinity>  (436) 
-8.84396

$$$$
data/200k_reference_output/data/smiles/36613.pdb
     RDKit          3D

 27 29  0  0  0  0  0  0  0  0999 V2000
   70.5863   42.8143   57.8129 C   0  0  0  0  0  0  0  0  0  0  0  0
   69.9899   43.8864   57.1322 C   0  0  0  0  0  0  0  0  0  0  0  0
   68.8061   43.7477   56.5391 N   0  0  0  0  0  0  0  0  0  0  0  0
   68.1954   42.5603   56.6072 C   0  0  0  0  0  0  0  0  0  0  0  0
   67.0791   42.4331   56.0474 O   0  0  0  0  0  0  0  0  0  0  0  0
   68.7080   41.4692   57.2495 C   0  0  0  0  0  0  0  0  0  0  0  0
   68.0449   40.2566   57.2969 C   0  0  0  0  0  0  0  0  0  0  0  0
   68.5644   39.1592   57.9437 C   0  0  0  0  0  0  0  0  0  0  0  0
   69.7865   39.2730   58.5655 C   0  0  0  0  0  0  0  0  0  0  0  0
   70.4656   40.5098   58.5193 C   0  0  0  0  0  0  0  0  0  0  0  0
   69.9497   41.6022   57.8748 C   0  0  0  0  0  0  0  0  0  0  0  0
   68.1813   44.8104   55.8461 N   0  0  0  0  0  0  0  0  0  0  0  0
   68.7508   46.1031   55.9978 C   0  0  0  0  0  0  0  0  0  0  0  0
   69.7648   46.2835   56.7184 O   0  0  0  0  0  0  0  0  0  0  0  0
   68.1785   47.3037   55.3153 C   0  0  0  0  0  0  0  0  0  0  0  0
   68.7985   47.5176   53.9915 C   0  0  0  0  0  0  0  0  0  0  0  0
   68.4261   46.7543   52.8802 C   0  0  0  0  0  0  0  0  0  0  0  0
   67.4668   45.7855   53.0257 F   0  0  0  0  0  0  0  0  0  0  0  0
   68.9920   46.9412   51.6386 C   0  0  0  0  0  0  0  0  0  0  0  0
   69.9557   47.9231   51.5227 C   0  0  0  0  0  0  0  0  0  0  0  0
   70.3235   48.6781   52.6195 C   0  0  0  0  0  0  0  0  0  0  0  0
   69.7620   48.4961   53.8639 C   0  0  0  0  0  0  0  0  0  0  0  0
   70.2514   49.4749   55.2474 Cl  0  0  0  0  0  0  0  0  0  0  0  0
   71.8732   43.0032   58.4431 C   0  0  0  0  0  0  0  0  0  0  0  0
   72.1540   43.2277   59.6162 O   0  0  0  0  0  0  0  0  0  0  0  0
   74.2275   42.4641   58.1022 C   0  0  0  0  0  0  0  0  0  0  0  0
   73.0074   42.9220   57.5904 O   0  0  0  0  0  0  0  0  0  0  0  0
 26 27  1  0
 27 24  1  0
 24 25  2  0
 24  1  1  0
  1  2  2  0
  1 11  1  0
  2  3  1  0
  3 12  1  0
  3  4  1  0
 12 13  1  0
 13 14  2  0
 13 15  1  0
 15 16  1  0
 16 17  2  0
 16 22  1  0
 17 18  1  0
 17 19  1  0
 19 20  2  0
 20 21  1  0
 21 22  2  0
 22 23  1  0
  4  5  2  0
  4  6  1  0
  6  7  1  0
  6 11  2  0
  7  8  2  0
  8  9  1  0
  9 10  2  0
 10 11  1  0
M  END
>  <minimizedAffinity>  (437) 
-8.75981

$$$$
data/200k_reference_output/data/smiles/36926.pdb
     RDKit          3D

 23 24  0  0  0  0  0  0  0  0999 V2000
   67.9655   43.9710   55.4639 N   0  0  0  0  0  0  0  0  0  0  0  0
   68.2624   45.3414   55.2515 C   0  0  0  0  0  0  0  0  0  0  0  0
   68.4595   46.0411   56.2709 O   0  0  0  0  0  0  0  0  0  0  0  0
   68.3481   45.9629   53.9367 C   0  0  0  0  0  0  0  0  0  0  0  0
   67.5443   45.5217   52.8973 C   0  0  0  0  0  0  0  0  0  0  0  0
   67.5607   46.0488   51.6445 C   0  0  0  0  0  0  0  0  0  0  0  0
   66.7396   45.5931   50.5878 N   0  0  0  0  0  0  0  0  0  0  0  0
   68.4313   47.0977   51.3640 C   0  0  0  0  0  0  0  0  0  0  0  0
   69.2671   47.5833   52.3778 C   0  0  0  0  0  0  0  0  0  0  0  0
   69.1950   47.0014   53.6231 C   0  0  0  0  0  0  0  0  0  0  0  0
   70.1509   48.6513   52.0755 N   0  0  0  0  0  0  0  0  0  0  0  0
   71.1412   48.8846   52.7870 O   0  0  0  0  0  0  0  0  0  0  0  0
   69.9316   49.4467   50.9862 O   0  0  0  0  0  0  0  0  0  0  0  0
   67.8109   41.9947   56.9753 C   0  0  0  0  0  0  0  0  0  0  0  0
   67.8168   41.2744   55.9408 O   0  0  0  0  0  0  0  0  0  0  0  0
   67.8888   43.4026   56.7426 N   0  0  0  0  0  0  0  0  0  0  0  0
   70.2180   41.1163   58.2838 C   0  0  0  0  0  0  0  0  0  0  0  0
   68.8861   40.9839   58.9266 C   0  0  0  0  0  0  0  0  0  0  0  0
   68.8392   40.4113   60.2027 C   0  0  0  0  0  0  0  0  0  0  0  0
   67.6295   40.2619   60.8545 C   0  0  0  0  0  0  0  0  0  0  0  0
   66.4680   40.6826   60.2369 C   0  0  0  0  0  0  0  0  0  0  0  0
   66.5538   41.2350   58.9931 C   0  0  0  0  0  0  0  0  0  0  0  0
   67.7323   41.4062   58.3020 C   0  0  0  0  0  0  0  0  0  0  0  0
 17 18  1  0
 18 19  2  0
 18 23  1  0
 19 20  1  0
 20 21  2  0
 21 22  1  0
 22 23  2  0
 23 14  1  0
 14 15  2  0
 14 16  1  0
 16  1  1  0
  1  2  1  0
  2  3  2  0
  2  4  1  0
  4  5  2  0
  4 10  1  0
  5  6  1  0
  6  7  1  0
  6  8  2  0
  8  9  1  0
  9 11  1  0
  9 10  2  0
 11 12  2  0
 11 13  1  0
M  CHG  2  11   1  13  -1
M  END
>  <minimizedAffinity>  (438) 
-8.83627

$$$$
data/200k_reference_output/data/smiles/37059.pdb
     RDKit          3D

 27 29  0  0  0  0  0  0  0  0999 V2000
   70.3704   46.2088   57.8742 C   0  0  0  0  0  0  0  0  0  0  0  0
   71.1506   47.4294   57.9230 N   0  0  0  0  0  0  0  0  0  0  0  0
   70.6789   48.5543   57.2079 C   0  0  0  0  0  0  0  0  0  0  0  0
   71.3567   49.6329   57.2400 O   0  0  0  0  0  0  0  0  0  0  0  0
   72.3785   47.4935   58.6853 C   0  0  0  0  0  0  0  0  0  0  0  0
   72.2780   46.7529   59.9675 C   0  0  0  0  0  0  0  0  0  0  0  0
   71.6322   47.1622   60.9724 O   0  0  0  0  0  0  0  0  0  0  0  0
   72.9438   45.5030   60.0956 N   0  0  0  0  0  0  0  0  0  0  0  0
   72.8550   44.7835   61.3209 C   0  0  0  0  0  0  0  0  0  0  0  0
   71.8602   43.8543   61.5801 C   0  0  0  0  0  0  0  0  0  0  0  0
   71.7991   43.1697   62.7749 C   0  0  0  0  0  0  0  0  0  0  0  0
   72.7272   43.3784   63.7701 C   0  0  0  0  0  0  0  0  0  0  0  0
   73.7239   44.2987   63.5279 C   0  0  0  0  0  0  0  0  0  0  0  0
   74.6348   44.4995   64.5118 F   0  0  0  0  0  0  0  0  0  0  0  0
   73.7781   44.9813   62.3266 C   0  0  0  0  0  0  0  0  0  0  0  0
   69.4354   48.5500   56.4213 C   0  0  0  0  0  0  0  0  0  0  0  0
   69.6899   48.6478   54.9675 C   0  0  0  0  0  0  0  0  0  0  0  0
   70.4678   49.6019   54.4325 N   0  0  0  0  0  0  0  0  0  0  0  0
   70.6979   49.6904   53.1282 N   0  0  0  0  0  0  0  0  0  0  0  0
   70.1367   48.7963   52.3047 C   0  0  0  0  0  0  0  0  0  0  0  0
   70.3517   48.8745   51.0595 O   0  0  0  0  0  0  0  0  0  0  0  0
   69.3241   47.7865   52.7803 C   0  0  0  0  0  0  0  0  0  0  0  0
   68.7417   46.8626   51.9398 C   0  0  0  0  0  0  0  0  0  0  0  0
   67.9228   45.8486   52.4410 C   0  0  0  0  0  0  0  0  0  0  0  0
   67.7201   45.8078   53.8009 C   0  0  0  0  0  0  0  0  0  0  0  0
   68.2915   46.7177   54.6591 C   0  0  0  0  0  0  0  0  0  0  0  0
   69.0978   47.7144   54.1525 C   0  0  0  0  0  0  0  0  0  0  0  0
  1  2  1  0
  2  5  1  0
  2  3  1  0
  5  6  1  0
  6  7  2  0
  6  8  1  0
  8  9  1  0
  9 10  2  0
  9 15  1  0
 10 11  1  0
 11 12  2  0
 12 13  1  0
 13 14  1  0
 13 15  2  0
  3  4  2  0
  3 16  1  0
 16 17  1  0
 17 18  2  0
 17 27  1  0
 18 19  1  0
 19 20  1  0
 20 21  2  0
 20 22  1  0
 22 23  1  0
 22 27  2  0
 23 24  2  0
 24 25  1  0
 25 26  2  0
 26 27  1  0
M  END
>  <minimizedAffinity>  (439) 
-8.55743

$$$$
data/200k_reference_output/data/smiles/37082.pdb
     RDKit          3D

 20 22  0  0  0  0  0  0  0  0999 V2000
   70.3371   50.0107   53.5479 C   0  0  0  0  0  0  0  0  0  0  0  0
   71.6661   49.6611   53.5305 N   0  0  0  0  0  0  0  0  0  0  0  0
   72.5835   50.3525   54.1807 N   0  0  0  0  0  0  0  0  0  0  0  0
   72.2813   51.4495   54.9050 C   0  0  0  0  0  0  0  0  0  0  0  0
   73.1661   52.1148   55.5290 O   0  0  0  0  0  0  0  0  0  0  0  0
   70.9844   51.8558   54.9679 C   0  0  0  0  0  0  0  0  0  0  0  0
   70.0256   51.1132   54.2774 C   0  0  0  0  0  0  0  0  0  0  0  0
   68.6370   51.5580   54.3999 C   0  0  0  0  0  0  0  0  0  0  0  0
   68.3417   51.8274   55.8640 C   0  0  0  0  0  0  0  0  0  0  0  0
   69.3643   52.6300   56.5726 C   0  0  0  0  0  0  0  0  0  0  0  0
   70.5244   53.0501   55.7166 C   0  0  0  0  0  0  0  0  0  0  0  0
   69.3819   49.2057   52.7545 C   0  0  0  0  0  0  0  0  0  0  0  0
   68.6031   46.4721   56.7904 N   0  0  0  0  0  0  0  0  0  0  0  0
   68.5626   46.6077   55.3638 C   0  0  0  0  0  0  0  0  0  0  0  0
   68.9853   47.7996   54.7735 C   0  0  0  0  0  0  0  0  0  0  0  0
   68.9559   47.9515   53.4229 C   0  0  0  0  0  0  0  0  0  0  0  0
   68.5078   46.9337   52.5939 C   0  0  0  0  0  0  0  0  0  0  0  0
   68.0905   45.7596   53.1695 C   0  0  0  0  0  0  0  0  0  0  0  0
   68.1162   45.5946   54.5438 C   0  0  0  0  0  0  0  0  0  0  0  0
   67.6854   44.3880   55.1232 O   0  0  0  0  0  0  0  0  0  0  0  0
 13 14  1  0
 14 15  2  0
 14 19  1  0
 15 16  1  0
 16 12  1  0
 16 17  2  0
 12  1  1  0
  1  2  2  0
  1  7  1  0
  2  3  1  0
  3  4  1  0
  4  5  2  0
  4  6  1  0
  6  7  2  0
  6 11  1  0
  7  8  1  0
  8  9  1  0
  9 10  1  0
 10 11  1  0
 17 18  1  0
 18 19  2  0
 19 20  1  0
M  END
>  <minimizedAffinity>  (440) 
-8.63521

$$$$
data/200k_reference_output/data/smiles/37241.pdb
     RDKit          3D

 23 25  0  0  0  0  0  0  0  0999 V2000
   70.0063   46.4208   57.2293 O   0  0  0  0  0  0  0  0  0  0  0  0
   69.0088   46.2027   56.4909 C   0  0  0  0  0  0  0  0  0  0  0  0
   68.6262   44.8480   56.3068 N   0  0  0  0  0  0  0  0  0  0  0  0
   69.3660   43.8423   56.9446 N   0  0  0  0  0  0  0  0  0  0  0  0
   68.9290   42.6267   57.0510 C   0  0  0  0  0  0  0  0  0  0  0  0
   67.6545   42.1284   56.5485 C   0  0  0  0  0  0  0  0  0  0  0  0
   66.8103   42.8330   55.9396 O   0  0  0  0  0  0  0  0  0  0  0  0
   67.5936   40.7473   56.8867 N   0  0  0  0  0  0  0  0  0  0  0  0
   68.7737   40.3563   57.5788 C   0  0  0  0  0  0  0  0  0  0  0  0
   69.1610   39.1358   58.0985 C   0  0  0  0  0  0  0  0  0  0  0  0
   70.3775   39.0082   58.7384 C   0  0  0  0  0  0  0  0  0  0  0  0
   71.1732   40.1277   58.8363 C   0  0  0  0  0  0  0  0  0  0  0  0
   70.7862   41.3645   58.3133 C   0  0  0  0  0  0  0  0  0  0  0  0
   69.5742   41.4759   57.6792 C   0  0  0  0  0  0  0  0  0  0  0  0
   68.2892   47.3388   55.8578 C   0  0  0  0  0  0  0  0  0  0  0  0
   68.8963   47.7475   54.5815 C   0  0  0  0  0  0  0  0  0  0  0  0
   69.7674   48.8117   54.4684 C   0  0  0  0  0  0  0  0  0  0  0  0
   70.3359   49.1906   53.2656 C   0  0  0  0  0  0  0  0  0  0  0  0
   70.0362   48.4941   52.1157 C   0  0  0  0  0  0  0  0  0  0  0  0
   70.5634   48.8104   50.8730 O   0  0  0  0  0  0  0  0  0  0  0  0
   69.1613   47.4160   52.2023 C   0  0  0  0  0  0  0  0  0  0  0  0
   68.8377   46.7007   51.0944 F   0  0  0  0  0  0  0  0  0  0  0  0
   68.6061   47.0540   53.4059 C   0  0  0  0  0  0  0  0  0  0  0  0
  1  2  2  0
  2 15  1  0
  2  3  1  0
 15 16  1  0
 16 17  2  0
 16 23  1  0
 17 18  1  0
 18 19  2  0
 19 20  1  0
 19 21  1  0
 21 22  1  0
 21 23  2  0
  3  4  1  0
  4  5  2  0
  5  6  1  0
  5 14  1  0
  6  7  2  0
  6  8  1  0
  8  9  1  0
  9 10  1  0
  9 14  2  0
 10 11  2  0
 11 12  1  0
 12 13  2  0
 13 14  1  0
M  END
>  <minimizedAffinity>  (441) 
-8.81607

$$$$
data/200k_reference_output/data/smiles/37312.pdb
     RDKit          3D

 26 29  0  0  0  0  0  0  0  0999 V2000
   69.8708   45.7164   58.7802 O   0  0  0  0  0  0  0  0  0  0  0  0
   69.8603   44.7939   57.9071 C   0  0  0  0  0  0  0  0  0  0  0  0
   69.1594   45.1407   56.7015 N   0  0  0  0  0  0  0  0  0  0  0  0
   70.4853   43.5011   58.0628 C   0  0  0  0  0  0  0  0  0  0  0  0
   69.7047   42.3717   58.1348 C   0  0  0  0  0  0  0  0  0  0  0  0
   68.3301   42.4892   58.1019 O   0  0  0  0  0  0  0  0  0  0  0  0
   70.2929   41.1324   58.2422 C   0  0  0  0  0  0  0  0  0  0  0  0
   69.4994   39.9950   58.3134 O   0  0  0  0  0  0  0  0  0  0  0  0
   71.6451   40.9800   58.2818 C   0  0  0  0  0  0  0  0  0  0  0  0
   72.4396   42.1032   58.2112 C   0  0  0  0  0  0  0  0  0  0  0  0
   73.8264   41.9850   58.2403 C   0  0  0  0  0  0  0  0  0  0  0  0
   74.6354   43.0959   58.1604 C   0  0  0  0  0  0  0  0  0  0  0  0
   74.1017   44.3564   58.0499 C   0  0  0  0  0  0  0  0  0  0  0  0
   72.7046   44.4778   58.0201 C   0  0  0  0  0  0  0  0  0  0  0  0
   71.8812   43.3859   58.0998 C   0  0  0  0  0  0  0  0  0  0  0  0
   68.5415   46.4090   56.5571 N   0  0  0  0  0  0  0  0  0  0  0  0
   69.0193   47.2975   55.5603 C   0  0  0  0  0  0  0  0  0  0  0  0
   69.7427   48.4189   55.8470 N   0  0  0  0  0  0  0  0  0  0  0  0
   70.1791   49.2379   54.8985 C   0  0  0  0  0  0  0  0  0  0  0  0
   69.9077   48.9655   53.6153 N   0  0  0  0  0  0  0  0  0  0  0  0
   69.1991   47.8770   53.2629 C   0  0  0  0  0  0  0  0  0  0  0  0
   68.9504   47.6497   51.9263 C   0  0  0  0  0  0  0  0  0  0  0  0
   68.2198   46.5296   51.5439 C   0  0  0  0  0  0  0  0  0  0  0  0
   67.7517   45.6625   52.4830 C   0  0  0  0  0  0  0  0  0  0  0  0
   68.0100   45.9045   53.8361 C   0  0  0  0  0  0  0  0  0  0  0  0
   68.7403   47.0206   54.2382 C   0  0  0  0  0  0  0  0  0  0  0  0
  1  2  2  0
  2  3  1  0
  2  4  1  0
  3 16  1  0
 16 17  1  0
 17 18  2  0
 17 26  1  0
 18 19  1  0
 19 20  2  0
 20 21  1  0
 21 22  1  0
 21 26  2  0
 22 23  2  0
 23 24  1  0
 24 25  2  0
 25 26  1  0
  4  5  2  0
  4 15  1  0
  5  6  1  0
  5  7  1  0
  7  8  1  0
  7  9  2  0
  9 10  1  0
 10 11  1  0
 10 15  2  0
 11 12  2  0
 12 13  1  0
 13 14  2  0
 14 15  1  0
M  END
>  <minimizedAffinity>  (442) 
-9.07241

$$$$
data/200k_reference_output/data/smiles/37460.pdb
     RDKit          3D

 22 24  0  0  0  0  0  0  0  0999 V2000
   69.5170   46.2144   56.5831 N   0  0  0  0  0  0  0  0  0  0  0  0
   68.4077   42.1350   56.6384 C   0  0  0  0  0  0  0  0  0  0  0  0
   67.7371   43.0682   55.8730 C   0  0  0  0  0  0  0  0  0  0  0  0
   68.1293   44.3535   55.8827 N   0  0  0  0  0  0  0  0  0  0  0  0
   69.1614   44.8214   56.6061 C   0  0  0  0  0  0  0  0  0  0  0  0
   69.8204   43.9199   57.3542 N   0  0  0  0  0  0  0  0  0  0  0  0
   69.4665   42.6108   57.3811 C   0  0  0  0  0  0  0  0  0  0  0  0
   67.6494   40.1804   55.5631 O   0  0  0  0  0  0  0  0  0  0  0  0
   67.9943   40.7370   56.6375 C   0  0  0  0  0  0  0  0  0  0  0  0
   67.9538   39.9368   57.8096 N   0  0  0  0  0  0  0  0  0  0  0  0
   67.5578   38.6266   57.7636 O   0  0  0  0  0  0  0  0  0  0  0  0
   68.7733   47.1911   55.8036 C   0  0  0  0  0  0  0  0  0  0  0  0
   67.7807   47.9964   56.5588 C   0  0  0  0  0  0  0  0  0  0  0  0
   69.0857   48.6402   56.3172 C   0  0  0  0  0  0  0  0  0  0  0  0
   68.7886   47.1293   54.3279 C   0  0  0  0  0  0  0  0  0  0  0  0
   69.5972   47.9201   53.5942 C   0  0  0  0  0  0  0  0  0  0  0  0
   69.6006   47.8692   52.2067 C   0  0  0  0  0  0  0  0  0  0  0  0
   70.4220   48.6738   51.4806 F   0  0  0  0  0  0  0  0  0  0  0  0
   68.7552   46.9877   51.5461 C   0  0  0  0  0  0  0  0  0  0  0  0
   67.9326   46.1825   52.3033 C   0  0  0  0  0  0  0  0  0  0  0  0
   67.1144   45.3276   51.6500 F   0  0  0  0  0  0  0  0  0  0  0  0
   67.9453   46.2496   53.6988 C   0  0  0  0  0  0  0  0  0  0  0  0
  8  9  2  0
  9 10  1  0
  9  2  1  0
 10 11  1  0
  2  3  2  0
  2  7  1  0
  3  4  1  0
  4  5  2  0
  5  1  1  0
  5  6  1  0
  1 12  1  0
 12 15  1  0
 12 13  1  0
 12 14  1  0
 15 16  2  0
 15 22  1  0
 16 17  1  0
 17 18  1  0
 17 19  2  0
 19 20  1  0
 20 21  1  0
 20 22  2  0
 13 14  1  0
  6  7  2  0
M  END
>  <minimizedAffinity>  (443) 
-9.10413

$$$$
data/200k_reference_output/data/smiles/37478.pdb
     RDKit          3D

 28 30  0  0  0  0  0  0  0  0999 V2000
   69.0766   44.3426   56.9077 N   0  0  0  0  0  0  0  0  0  0  0  0
   68.4373   43.1101   56.6364 C   0  0  0  0  0  0  0  0  0  0  0  0
   67.7848   43.0759   55.5398 O   0  0  0  0  0  0  0  0  0  0  0  0
   68.4697   41.9648   57.4574 N   0  0  0  0  0  0  0  0  0  0  0  0
   67.7795   40.7796   57.0631 C   0  0  0  0  0  0  0  0  0  0  0  0
   68.2310   39.5488   57.8060 C   0  0  0  0  0  0  0  0  0  0  0  0
   69.5627   39.6219   58.3345 N   0  0  0  0  0  0  0  0  0  0  0  0
   70.2705   40.8672   58.5449 C   0  0  0  0  0  0  0  0  0  0  0  0
   69.1895   41.9487   58.7048 C   0  0  0  0  0  0  0  0  0  0  0  0
   68.8254   47.6577   54.2649 C   0  0  0  0  0  0  0  0  0  0  0  0
   68.3149   46.4201   53.9343 C   0  0  0  0  0  0  0  0  0  0  0  0
   68.3874   45.3332   54.7796 C   0  0  0  0  0  0  0  0  0  0  0  0
   68.9905   45.4491   56.0211 C   0  0  0  0  0  0  0  0  0  0  0  0
   69.4998   46.6918   56.3458 C   0  0  0  0  0  0  0  0  0  0  0  0
   70.0976   46.8103   57.5752 F   0  0  0  0  0  0  0  0  0  0  0  0
   69.4267   47.7788   55.4999 C   0  0  0  0  0  0  0  0  0  0  0  0
   68.7318   48.7350   53.3800 O   0  0  0  0  0  0  0  0  0  0  0  0
   70.0544   47.5815   51.1849 N   0  0  0  0  0  0  0  0  0  0  0  0
   69.9479   48.9675   52.2089 S   0  0  0  0  0  0  0  0  0  0  0  0
   71.2552   49.0910   52.9623 O   0  0  0  0  0  0  0  0  0  0  0  0
   69.6613   50.2028   51.4129 O   0  0  0  0  0  0  0  0  0  0  0  0
   70.2172   38.4053   58.6747 C   0  0  0  0  0  0  0  0  0  0  0  0
   69.7894   37.5741   59.6911 C   0  0  0  0  0  0  0  0  0  0  0  0
   70.4331   36.3872   60.0084 C   0  0  0  0  0  0  0  0  0  0  0  0
   71.5477   35.9841   59.3058 C   0  0  0  0  0  0  0  0  0  0  0  0
   72.3842   34.4805   59.6881 Cl  0  0  0  0  0  0  0  0  0  0  0  0
   71.9826   36.8068   58.2892 C   0  0  0  0  0  0  0  0  0  0  0  0
   71.3408   37.9855   57.9764 C   0  0  0  0  0  0  0  0  0  0  0  0
 18 19  1  0
 19 20  2  0
 19 21  2  0
 19 17  1  0
 17 10  1  0
 10 11  2  0
 10 16  1  0
 11 12  1  0
 12 13  2  0
 13  1  1  0
 13 14  1  0
  1  2  1  0
  2  3  2  0
  2  4  1  0
  4  5  1  0
  4  9  1  0
  5  6  1  0
  6  7  1  0
  7 22  1  0
  7  8  1  0
 22 23  2  0
 22 28  1  0
 23 24  1  0
 24 25  2  0
 25 26  1  0
 25 27  1  0
 27 28  2  0
  8  9  1  0
 14 15  1  0
 14 16  2  0
M  END
>  <minimizedAffinity>  (444) 
-9.53020

$$$$
data/200k_reference_output/data/smiles/37560.pdb
     RDKit          3D

 30 34  0  0  0  0  0  0  0  0999 V2000
   70.6829   50.1942   56.5818 C   0  0  0  0  0  0  0  0  0  0  0  0
   69.7785   49.2909   57.0444 C   0  0  0  0  0  0  0  0  0  0  0  0
   69.1522   48.4074   56.1577 C   0  0  0  0  0  0  0  0  0  0  0  0
   69.4669   48.4696   54.8107 C   0  0  0  0  0  0  0  0  0  0  0  0
   70.3946   49.4022   54.3646 C   0  0  0  0  0  0  0  0  0  0  0  0
   71.0144   50.2731   55.2316 C   0  0  0  0  0  0  0  0  0  0  0  0
   70.7271   49.4884   53.0577 N   0  0  0  0  0  0  0  0  0  0  0  0
   70.1364   48.6494   52.2097 C   0  0  0  0  0  0  0  0  0  0  0  0
   70.4516   48.7348   50.9848 O   0  0  0  0  0  0  0  0  0  0  0  0
   69.2229   47.7172   52.5812 C   0  0  0  0  0  0  0  0  0  0  0  0
   68.6825   46.9038   51.6324 C   0  0  0  0  0  0  0  0  0  0  0  0
   67.7553   45.9534   52.0259 C   0  0  0  0  0  0  0  0  0  0  0  0
   67.2227   45.1426   51.0562 F   0  0  0  0  0  0  0  0  0  0  0  0
   67.3993   45.8462   53.3522 C   0  0  0  0  0  0  0  0  0  0  0  0
   67.9507   46.6744   54.3198 C   0  0  0  0  0  0  0  0  0  0  0  0
   68.8670   47.6136   53.9239 C   0  0  0  0  0  0  0  0  0  0  0  0
   71.3505   51.1327   57.4849 C   0  0  0  0  0  0  0  0  0  0  0  0
   72.0778   50.4547   58.6157 C   0  0  1  0  0  0  0  0  0  0  0  0
   72.4209   49.1056   58.1975 N   0  0  0  0  0  0  0  0  0  0  0  0
   72.2431   47.9693   59.0654 C   0  0  0  0  0  0  0  0  0  0  0  0
   71.7697   48.1904   60.2047 O   0  0  0  0  0  0  0  0  0  0  0  0
   72.6311   46.6626   58.5397 C   0  0  1  0  0  0  0  0  0  0  0  0
   73.9591   46.5957   58.0161 N   0  0  0  0  0  0  0  0  0  0  0  0
   74.6541   45.5269   58.6982 C   0  0  2  0  0  0  0  0  0  0  0  0
   74.0152   44.2000   58.3543 C   0  0  0  0  0  0  0  0  0  0  0  0
   72.6280   44.2921   58.9612 C   0  0  0  0  0  0  0  0  0  0  0  0
   72.6099   45.6463   59.6354 C   0  0  1  0  0  0  0  0  0  0  0  0
   74.0698   45.7271   60.1123 C   0  0  0  0  0  0  0  0  0  0  0  0
   74.3904   51.7384   58.7887 N   0  0  0  0  0  0  0  0  0  0  0  0
   73.3910   51.1715   58.7095 C   0  0  0  0  0  0  0  0  0  0  0  0
 29 30  3  0
 18 30  1  6
 18 17  1  0
 18 19  1  0
 17  1  1  0
  1  2  2  0
  1  6  1  0
  2  3  1  0
  3  4  2  0
  4  5  1  0
  4 16  1  0
  5  6  2  0
  5  7  1  0
  7  8  1  0
  8  9  2  0
  8 10  1  0
 10 11  1  0
 10 16  2  0
 11 12  2  0
 12 13  1  0
 12 14  1  0
 14 15  2  0
 15 16  1  0
 19 20  1  0
 20 21  2  0
 22 20  1  1
 22 23  1  0
 22 27  1  0
 23 24  1  0
 24 25  1  6
 24 28  1  0
 25 26  1  0
 27 26  1  6
 27 28  1  0
M  CHG  1  23   1
M  END
>  <minimizedAffinity>  (445) 
-8.98604

$$$$
data/200k_reference_output/data/smiles/37792.pdb
     RDKit          3D

 22 23  0  0  0  0  0  0  0  0999 V2000
   68.0917   48.7238   57.1083 N   0  0  0  0  0  0  0  0  0  0  0  0
   68.6526   47.5231   56.6192 C   0  0  0  0  0  0  0  0  0  0  0  0
   69.1100   46.7041   57.5026 N   0  0  0  0  0  0  0  0  0  0  0  0
   68.6953   47.2618   55.1737 C   0  0  0  0  0  0  0  0  0  0  0  0
   68.1543   46.1352   54.6006 C   0  0  0  0  0  0  0  0  0  0  0  0
   68.2327   45.9599   53.2210 C   0  0  0  0  0  0  0  0  0  0  0  0
   68.8392   46.8892   52.4069 C   0  0  0  0  0  0  0  0  0  0  0  0
   69.3837   48.0225   52.9799 C   0  0  0  0  0  0  0  0  0  0  0  0
   69.2987   48.1795   54.3402 C   0  0  0  0  0  0  0  0  0  0  0  0
   70.0168   48.9975   52.1563 N   0  0  0  0  0  0  0  0  0  0  0  0
   70.4590   48.6353   51.0387 O   0  0  0  0  0  0  0  0  0  0  0  0
   70.1587   50.2960   52.5312 O   0  0  0  0  0  0  0  0  0  0  0  0
   69.6897   45.4926   57.2295 O   0  0  0  0  0  0  0  0  0  0  0  0
   70.2738   44.7510   58.2434 C   0  0  0  0  0  0  0  0  0  0  0  0
   69.6840   44.6455   59.3458 O   0  0  0  0  0  0  0  0  0  0  0  0
   71.5574   44.1012   58.0327 C   0  0  0  0  0  0  0  0  0  0  0  0
   72.7301   44.8144   58.2282 C   0  0  0  0  0  0  0  0  0  0  0  0
   73.9809   44.2608   58.0457 C   0  0  0  0  0  0  0  0  0  0  0  0
   74.0872   42.9527   57.6557 C   0  0  0  0  0  0  0  0  0  0  0  0
   72.9313   42.2293   57.4570 C   0  0  0  0  0  0  0  0  0  0  0  0
   71.6772   42.7885   57.6411 C   0  0  0  0  0  0  0  0  0  0  0  0
   70.5568   42.0351   57.4337 F   0  0  0  0  0  0  0  0  0  0  0  0
  1  2  1  0
  2  3  2  0
  2  4  1  0
  3 13  1  0
 13 14  1  0
 14 15  2  0
 14 16  1  0
 16 17  2  0
 16 21  1  0
 17 18  1  0
 18 19  2  0
 19 20  1  0
 20 21  2  0
 21 22  1  0
  4  5  2  0
  4  9  1  0
  5  6  1  0
  6  7  2  0
  7  8  1  0
  8 10  1  0
  8  9  2  0
 10 11  2  0
 10 12  1  0
M  CHG  3   3   1  10   1  12  -1
M  END
>  <minimizedAffinity>  (446) 
-8.70514

$$$$
data/200k_reference_output/data/smiles/37795.pdb
     RDKit          3D

 24 26  0  0  0  0  0  0  0  0999 V2000
   72.2338   51.0820   54.7596 C   0  0  2  0  0  0  0  0  0  0  0  0
   70.1763   50.8259   52.8771 O   0  0  0  0  0  0  0  0  0  0  0  0
   70.4689   49.7687   53.5277 C   0  0  0  0  0  0  0  0  0  0  0  0
   71.4981   49.8733   54.4771 N   0  0  0  0  0  0  0  0  0  0  0  0
   69.7156   48.5550   53.2304 C   0  0  0  0  0  0  0  0  0  0  0  0
   69.7627   47.9533   51.9922 C   0  0  0  0  0  0  0  0  0  0  0  0
   69.0269   46.7882   51.7408 C   0  0  0  0  0  0  0  0  0  0  0  0
   68.2378   46.2036   52.7053 C   0  0  0  0  0  0  0  0  0  0  0  0
   67.5170   45.0732   52.4802 F   0  0  0  0  0  0  0  0  0  0  0  0
   68.1946   46.8103   53.9429 C   0  0  0  0  0  0  0  0  0  0  0  0
   68.9190   47.9540   54.1834 C   0  0  0  0  0  0  0  0  0  0  0  0
   73.6988   50.8888   54.6174 C   0  0  0  0  0  0  0  0  0  0  0  0
   74.1496   50.2099   53.6718 O   0  0  0  0  0  0  0  0  0  0  0  0
   74.6023   51.4379   55.5033 O   0  0  0  0  0  0  0  0  0  0  0  0
   71.9886   51.4148   56.2278 C   0  0  0  0  0  0  0  0  0  0  0  0
   70.5782   51.8078   56.4796 C   0  0  0  0  0  0  0  0  0  0  0  0
   70.0226   53.0816   56.3155 C   0  0  0  0  0  0  0  0  0  0  0  0
   68.7181   53.0354   56.6453 N   0  0  0  0  0  0  0  0  0  0  0  0
   68.3909   51.7913   57.0177 C   0  0  0  0  0  0  0  0  0  0  0  0
   67.1908   51.2620   57.4351 C   0  0  0  0  0  0  0  0  0  0  0  0
   67.1259   49.9212   57.7663 C   0  0  0  0  0  0  0  0  0  0  0  0
   68.2616   49.1441   57.6718 C   0  0  0  0  0  0  0  0  0  0  0  0
   69.4687   49.7076   57.2444 C   0  0  0  0  0  0  0  0  0  0  0  0
   69.5277   51.0321   56.9185 C   0  0  0  0  0  0  0  0  0  0  0  0
  2  3  2  0
  3  4  1  0
  3  5  1  0
  4  1  1  0
  1 15  1  1
  1 12  1  0
 15 16  1  0
 16 17  2  0
 16 24  1  0
 17 18  1  0
 18 19  1  0
 19 20  1  0
 19 24  2  0
 20 21  2  0
 21 22  1  0
 22 23  2  0
 23 24  1  0
 12 13  2  0
 12 14  1  0
  5  6  2  0
  5 11  1  0
  6  7  1  0
  7  8  2  0
  8  9  1  0
  8 10  1  0
 10 11  2  0
M  END
>  <minimizedAffinity>  (447) 
-8.92167

$$$$
data/200k_reference_output/data/smiles/37933.pdb
     RDKit          3D

 27 29  0  0  0  0  0  0  0  0999 V2000
   70.2168   45.8072   58.6265 N   0  0  0  0  0  0  0  0  0  0  0  0
   70.5020   47.0656   58.0517 C   0  0  0  0  0  0  0  0  0  0  0  0
   71.6763   47.4163   57.9576 O   0  0  0  0  0  0  0  0  0  0  0  0
   71.1128   44.8605   59.1226 C   0  0  0  0  0  0  0  0  0  0  0  0
   71.5543   43.7456   58.2473 C   0  0  0  0  0  0  0  0  0  0  0  0
   67.5923   39.0359   58.9603 C   0  0  0  0  0  0  0  0  0  0  0  0
   68.7413   39.5738   58.1119 C   0  0  1  0  0  0  0  0  0  0  0  0
   68.1336   40.1720   56.8664 C   0  0  0  0  0  0  0  0  0  0  0  0
   67.8106   41.6453   57.1517 C   0  0  2  0  0  0  0  0  0  0  0  0
   67.0853   42.2320   55.9874 C   0  0  0  0  0  0  0  0  0  0  0  0
   69.1554   42.3150   57.2650 C   0  0  0  0  0  0  0  0  0  0  0  0
   69.9610   41.7430   58.2972 N   0  0  0  0  0  0  0  0  0  0  0  0
   71.1434   42.4174   58.7818 C   0  0  0  0  0  0  0  0  0  0  0  0
   71.7830   41.8088   59.6738 O   0  0  0  0  0  0  0  0  0  0  0  0
   69.6055   40.4888   58.8950 C   0  0  0  0  0  0  0  0  0  0  0  0
   69.4458   48.0061   57.5447 C   0  0  0  0  0  0  0  0  0  0  0  0
   69.2888   47.8686   56.1141 N   0  0  0  0  0  0  0  0  0  0  0  0
   69.8004   48.8032   55.3005 C   0  0  0  0  0  0  0  0  0  0  0  0
   69.6818   48.7250   53.9183 C   0  0  0  0  0  0  0  0  0  0  0  0
   69.0249   47.6643   53.3716 C   0  0  0  0  0  0  0  0  0  0  0  0
   68.8761   47.5380   52.0126 C   0  0  0  0  0  0  0  0  0  0  0  0
   68.2076   46.4663   51.4403 C   0  0  0  0  0  0  0  0  0  0  0  0
   67.6747   45.4930   52.2731 C   0  0  0  0  0  0  0  0  0  0  0  0
   67.8255   45.6215   53.6356 C   0  0  0  0  0  0  0  0  0  0  0  0
   68.4953   46.6969   54.1986 C   0  0  0  0  0  0  0  0  0  0  0  0
   68.6444   46.8274   55.5628 C   0  0  0  0  0  0  0  0  0  0  0  0
   68.1418   45.9164   56.2717 O   0  0  0  0  0  0  0  0  0  0  0  0
  7  6  1  1
  7  8  1  0
  7 15  1  0
  8  9  1  0
  9 10  1  6
  9 11  1  0
 11 12  1  0
 12 13  1  0
 12 15  1  0
 13 14  2  0
 13  5  1  0
  5  4  1  0
  4  1  1  0
  1  2  1  0
  2  3  2  0
  2 16  1  0
 16 17  1  0
 17 18  1  0
 17 26  1  0
 18 19  2  0
 19 20  1  0
 20 21  2  0
 20 25  1  0
 21 22  1  0
 22 23  2  0
 23 24  1  0
 24 25  2  0
 25 26  1  0
 26 27  2  0
M  END
>  <minimizedAffinity>  (448) 
-8.58246

$$$$
data/200k_reference_output/data/smiles/38006.pdb
     RDKit          3D

 26 29  0  0  0  0  0  0  0  0999 V2000
   69.3204   47.6319   56.0891 N   0  0  0  0  0  0  0  0  0  0  0  0
   69.7510   48.6484   55.2948 C   0  0  0  0  0  0  0  0  0  0  0  0
   69.5028   48.5402   53.9321 C   0  0  0  0  0  0  0  0  0  0  0  0
   68.8529   47.4732   53.3427 C   0  0  0  0  0  0  0  0  0  0  0  0
   68.6153   47.3817   51.9891 C   0  0  0  0  0  0  0  0  0  0  0  0
   67.9649   46.3055   51.4221 C   0  0  0  0  0  0  0  0  0  0  0  0
   67.5420   45.2872   52.2576 C   0  0  0  0  0  0  0  0  0  0  0  0
   67.7829   45.3828   53.6228 C   0  0  0  0  0  0  0  0  0  0  0  0
   68.4382   46.4679   54.1866 C   0  0  0  0  0  0  0  0  0  0  0  0
   68.6741   46.5571   55.5373 C   0  0  0  0  0  0  0  0  0  0  0  0
   68.2685   45.6048   56.2524 O   0  0  0  0  0  0  0  0  0  0  0  0
   70.0691   49.7458   53.3257 C   0  0  0  0  0  0  0  0  0  0  0  0
   70.0608   50.0491   52.1046 O   0  0  0  0  0  0  0  0  0  0  0  0
   70.6562   50.5572   54.3689 C   0  0  0  0  0  0  0  0  0  0  0  0
   71.3220   51.7666   54.3865 C   0  0  0  0  0  0  0  0  0  0  0  0
   71.8131   52.3613   55.5138 C   0  0  0  0  0  0  0  0  0  0  0  0
   71.6131   51.6751   56.7186 C   0  0  0  0  0  0  0  0  0  0  0  0
   70.9509   50.4586   56.7524 C   0  0  0  0  0  0  0  0  0  0  0  0
   70.4729   49.9033   55.5836 C   0  0  0  0  0  0  0  0  0  0  0  0
   69.4809   47.6685   57.5045 C   0  0  0  0  0  0  0  0  0  0  0  0
   70.4966   46.7223   58.0687 C   0  0  2  0  0  0  0  0  0  0  0  0
   69.9315   45.7499   58.8882 O   0  0  0  0  0  0  0  0  0  0  0  0
   71.4133   47.5525   58.9727 C   0  0  0  0  0  0  0  0  0  0  0  0
   73.0334   48.0628   61.8801 N   0  0  0  0  0  0  0  0  0  0  0  0
   72.2544   47.4329   61.1392 N   0  0  0  0  0  0  0  0  0  0  0  0
   71.4429   46.9886   60.3145 N   0  0  0  0  0  0  0  0  0  0  0  0
 24 25  2  0
 25 26  2  0
 26 23  1  0
 23 21  1  0
 21 22  1  1
 21 20  1  0
 20  1  1  0
  1  2  1  0
  1 10  1  0
  2  3  2  0
  2 19  1  0
  3  4  1  0
  3 12  1  0
  4  5  1  0
  4  9  2  0
  5  6  2  0
  6  7  1  0
  7  8  2  0
  8  9  1  0
  9 10  1  0
 10 11  2  0
 12 13  2  0
 12 14  1  0
 14 15  1  0
 14 19  2  0
 15 16  2  0
 16 17  1  0
 17 18  2  0
 18 19  1  0
M  CHG  2  24  -1  25   1
M  END
>  <minimizedAffinity>  (449) 
-9.41378

$$$$
data/200k_reference_output/data/smiles/38027.pdb
     RDKit          3D

 21 23  0  0  0  0  0  0  0  0999 V2000
   70.5255   49.8854   53.3902 C   0  0  0  0  0  0  0  0  0  0  0  0
   71.8019   49.8389   53.7631 N   0  0  0  0  0  0  0  0  0  0  0  0
   72.3431   50.7193   54.6488 C   0  0  0  0  0  0  0  0  0  0  0  0
   73.5561   50.6123   54.9509 O   0  0  0  0  0  0  0  0  0  0  0  0
   71.5854   51.7068   55.2033 C   0  0  0  0  0  0  0  0  0  0  0  0
   72.1180   52.6228   56.1146 C   0  0  0  0  0  0  0  0  0  0  0  0
   71.3685   53.6261   56.6856 C   0  0  0  0  0  0  0  0  0  0  0  0
   70.0283   53.7191   56.3308 C   0  0  0  0  0  0  0  0  0  0  0  0
   69.5171   52.8108   55.4326 C   0  0  0  0  0  0  0  0  0  0  0  0
   70.2628   51.7997   54.8552 C   0  0  0  0  0  0  0  0  0  0  0  0
   69.7521   50.9045   53.9663 C   0  0  0  0  0  0  0  0  0  0  0  0
   68.4179   50.9761   53.5962 O   0  0  0  0  0  0  0  0  0  0  0  0
   69.9207   48.9378   52.4822 C   0  0  0  0  0  0  0  0  0  0  0  0
   70.0496   49.1177   51.2168 O   0  0  0  0  0  0  0  0  0  0  0  0
   68.1136   45.7010   55.7749 N   0  0  0  0  0  0  0  0  0  0  0  0
   68.2653   46.1362   54.4354 C   0  0  0  0  0  0  0  0  0  0  0  0
   67.7031   45.4111   53.4106 C   0  0  0  0  0  0  0  0  0  0  0  0
   67.8592   45.8466   52.1153 C   0  0  0  0  0  0  0  0  0  0  0  0
   68.5642   46.9872   51.8383 C   0  0  0  0  0  0  0  0  0  0  0  0
   69.1589   47.7656   52.8471 C   0  0  0  0  0  0  0  0  0  0  0  0
   68.9796   47.2944   54.1250 C   0  0  0  0  0  0  0  0  0  0  0  0
 15 16  1  0
 16 17  2  0
 16 21  1  0
 17 18  1  0
 18 19  2  0
 19 20  1  0
 20 13  1  0
 20 21  2  0
 13 14  2  0
 13  1  1  0
  1  2  1  0
  1 11  2  0
  2  3  1  0
  3  4  2  0
  3  5  1  0
  5  6  2  0
  5 10  1  0
  6  7  1  0
  7  8  2  0
  8  9  1  0
  9 10  2  0
 10 11  1  0
 11 12  1  0
M  END
>  <minimizedAffinity>  (450) 
-8.51340

$$$$
data/200k_reference_output/data/smiles/38071.pdb
     RDKit          3D

 26 28  0  0  0  0  0  0  0  0999 V2000
   68.5632   45.4622   55.6717 C   0  0  0  0  0  0  0  0  0  0  0  0
   68.3388   46.2541   56.6222 O   0  0  0  0  0  0  0  0  0  0  0  0
   68.8528   44.1179   55.9926 N   0  0  0  0  0  0  0  0  0  0  0  0
   68.9028   43.6244   57.3071 N   0  0  0  0  0  0  0  0  0  0  0  0
   68.3695   42.4916   57.5585 C   0  0  0  0  0  0  0  0  0  0  0  0
   67.6869   41.6321   56.5554 C   0  0  0  0  0  0  0  0  0  0  0  0
   67.9772   40.2442   57.0689 C   0  0  0  0  0  0  0  0  0  0  0  0
   68.0558   40.4415   58.5403 C   0  0  0  0  0  0  0  0  0  0  0  0
   67.9393   39.5538   59.6102 C   0  0  0  0  0  0  0  0  0  0  0  0
   67.6420   37.8688   59.2325 Cl  0  0  0  0  0  0  0  0  0  0  0  0
   68.0575   40.0097   60.9128 C   0  0  0  0  0  0  0  0  0  0  0  0
   68.2914   41.3377   61.2043 C   0  0  0  0  0  0  0  0  0  0  0  0
   68.4031   42.1969   60.1319 C   0  0  0  0  0  0  0  0  0  0  0  0
   68.6368   43.5339   60.3867 O   0  0  0  0  0  0  0  0  0  0  0  0
   68.2887   41.7667   58.8329 C   0  0  0  0  0  0  0  0  0  0  0  0
   69.1205   47.7326   52.7255 C   0  0  0  0  0  0  0  0  0  0  0  0
   68.4095   47.0737   51.7458 C   0  0  0  0  0  0  0  0  0  0  0  0
   67.7466   45.8971   52.0265 C   0  0  0  0  0  0  0  0  0  0  0  0
   67.8043   45.3772   53.3194 C   0  0  0  0  0  0  0  0  0  0  0  0
   68.5034   46.0066   54.3201 C   0  0  0  0  0  0  0  0  0  0  0  0
   69.1448   47.1791   53.9764 C   0  0  0  0  0  0  0  0  0  0  0  0
   69.9679   49.2431   52.3559 S   0  0  0  0  0  0  0  0  0  0  0  0
   71.3892   49.1675   52.8456 O   0  0  0  0  0  0  0  0  0  0  0  0
   69.9853   49.5163   50.9004 O   0  0  0  0  0  0  0  0  0  0  0  0
   70.1390   51.2878   54.0169 C   0  0  0  0  0  0  0  0  0  0  0  0
   69.2175   50.5584   53.2025 N   0  0  0  0  0  0  0  0  0  0  0  0
 25 26  1  0
 26 22  1  0
 22 23  2  0
 22 24  2  0
 22 16  1  0
 16 17  2  0
 16 21  1  0
 17 18  1  0
 18 19  2  0
 19 20  1  0
 20  1  1  0
 20 21  2  0
  1  2  2  0
  1  3  1  0
  3  4  1  0
  4  5  2  0
  5  6  1  0
  5 15  1  0
  6  7  1  0
  7  8  1  0
  8  9  1  0
  8 15  2  0
  9 10  1  0
  9 11  2  0
 11 12  1  0
 12 13  2  0
 13 14  1  0
 13 15  1  0
M  END
>  <minimizedAffinity>  (451) 
-8.72267

$$$$
data/200k_reference_output/data/smiles/38473.pdb
     RDKit          3D

 30 33  0  0  0  0  0  0  0  0999 V2000
   71.3288   49.2066   58.6505 C   0  0  0  0  0  0  0  0  0  0  0  0
   70.8131   50.4652   58.8603 C   0  0  0  0  0  0  0  0  0  0  0  0
   69.8653   51.0484   58.0127 C   0  0  0  0  0  0  0  0  0  0  0  0
   69.4446   50.3123   56.9282 C   0  0  0  0  0  0  0  0  0  0  0  0
   69.9221   49.0473   56.6604 C   0  0  0  0  0  0  0  0  0  0  0  0
   70.8466   48.5416   57.5321 C   0  0  0  0  0  0  0  0  0  0  0  0
   69.4499   48.3298   55.5197 N   0  0  0  0  0  0  0  0  0  0  0  0
   68.6299   47.1659   55.5409 C   0  0  0  0  0  0  0  0  0  0  0  0
   68.2192   46.6263   56.6013 O   0  0  0  0  0  0  0  0  0  0  0  0
   68.3683   46.7380   54.1726 C   0  0  0  0  0  0  0  0  0  0  0  0
   67.6403   45.6826   53.6306 C   0  0  0  0  0  0  0  0  0  0  0  0
   67.5529   45.5025   52.2645 C   0  0  0  0  0  0  0  0  0  0  0  0
   68.1863   46.3667   51.3905 C   0  0  0  0  0  0  0  0  0  0  0  0
   68.9033   47.4076   51.9446 C   0  0  0  0  0  0  0  0  0  0  0  0
   69.0029   47.6052   53.3071 C   0  0  0  0  0  0  0  0  0  0  0  0
   69.6830   48.6055   54.1450 C   0  0  0  0  0  0  0  0  0  0  0  0
   70.3628   49.5522   53.7087 O   0  0  0  0  0  0  0  0  0  0  0  0
   71.9947   47.7698   60.6292 N   0  0  0  0  0  0  0  0  0  0  0  0
   72.3167   48.5660   59.5094 C   0  0  0  0  0  0  0  0  0  0  0  0
   73.5219   48.7398   59.2265 O   0  0  0  0  0  0  0  0  0  0  0  0
   74.7158   46.0303   63.3834 C   0  0  0  0  0  0  0  0  0  0  0  0
   74.4071   47.3729   63.3832 C   0  0  0  0  0  0  0  0  0  0  0  0
   73.5205   47.9030   62.4745 C   0  0  0  0  0  0  0  0  0  0  0  0
   72.8825   47.1192   61.5049 C   0  0  0  0  0  0  0  0  0  0  0  0
   73.2076   45.7934   61.5291 C   0  0  0  0  0  0  0  0  0  0  0  0
   74.1093   45.2317   62.4458 C   0  0  0  0  0  0  0  0  0  0  0  0
   75.1482   43.9493   65.3116 N   0  0  0  0  0  0  0  0  0  0  0  0
   75.8293   45.3098   64.5072 S   0  0  0  0  0  0  0  0  0  0  0  0
   76.1540   46.3367   65.5798 O   0  0  0  0  0  0  0  0  0  0  0  0
   77.1124   44.8873   63.8355 O   0  0  0  0  0  0  0  0  0  0  0  0
 27 28  1  0
 28 29  2  0
 28 30  2  0
 28 21  1  0
 21 22  2  0
 21 26  1  0
 22 23  1  0
 23 24  2  0
 24 18  1  0
 24 25  1  0
 18 19  1  0
 19 20  2  0
 19  1  1  0
  1  2  2  0
  1  6  1  0
  2  3  1  0
  3  4  2  0
  4  5  1  0
  5  7  1  0
  5  6  2  0
  7  8  1  0
  7 16  1  0
  8  9  2  0
  8 10  1  0
 10 11  1  0
 10 15  2  0
 11 12  2  0
 12 13  1  0
 13 14  2  0
 14 15  1  0
 15 16  1  0
 16 17  2  0
 25 26  2  0
M  END
>  <minimizedAffinity>  (452) 
-8.80948

$$$$
data/200k_reference_output/data/smiles/38475.pdb
     RDKit          3D

 26 28  0  0  0  0  0  0  0  0999 V2000
   70.3248   49.5838   54.1344 C   0  0  0  0  0  0  0  0  0  0  0  0
   69.9006   49.0200   55.2981 C   0  0  0  0  0  0  0  0  0  0  0  0
   69.1432   47.8823   55.3836 N   0  0  0  0  0  0  0  0  0  0  0  0
   68.8001   47.2902   54.2326 C   0  0  0  0  0  0  0  0  0  0  0  0
   68.0345   46.1433   54.2125 C   0  0  0  0  0  0  0  0  0  0  0  0
   67.6776   45.5309   53.0267 C   0  0  0  0  0  0  0  0  0  0  0  0
   68.0782   46.0525   51.8127 C   0  0  0  0  0  0  0  0  0  0  0  0
   68.8499   47.2111   51.8285 C   0  0  0  0  0  0  0  0  0  0  0  0
   69.2131   47.8301   53.0045 C   0  0  0  0  0  0  0  0  0  0  0  0
   69.9755   48.9755   52.9468 C   0  0  0  0  0  0  0  0  0  0  0  0
   70.3723   49.5007   51.8704 O   0  0  0  0  0  0  0  0  0  0  0  0
   71.1185   50.8277   54.1379 C   0  0  0  0  0  0  0  0  0  0  0  0
   70.8286   51.7232   53.3144 O   0  0  0  0  0  0  0  0  0  0  0  0
   72.2319   51.0403   55.0820 C   0  0  0  0  0  0  0  0  0  0  0  0
   73.4719   51.2864   54.3171 C   0  0  0  0  0  0  0  0  0  0  0  0
   73.9482   50.3563   53.6222 O   0  0  0  0  0  0  0  0  0  0  0  0
   73.7946   53.5079   53.5894 O   0  0  0  0  0  0  0  0  0  0  0  0
   74.1767   52.5677   54.3299 C   0  0  0  0  0  0  0  0  0  0  0  0
   75.2744   52.7719   55.1535 O   0  0  0  0  0  0  0  0  0  0  0  0
   68.7415   47.3632   56.6730 C   0  0  0  0  0  0  0  0  0  0  0  0
   69.8011   46.7125   57.4395 C   0  0  0  0  0  0  0  0  0  0  0  0
   70.6080   47.4284   58.3021 C   0  0  0  0  0  0  0  0  0  0  0  0
   71.6037   46.8124   59.0538 C   0  0  0  0  0  0  0  0  0  0  0  0
   71.7876   45.4560   58.9331 C   0  0  0  0  0  0  0  0  0  0  0  0
   70.9945   44.7315   58.0806 C   0  0  0  0  0  0  0  0  0  0  0  0
   70.0057   45.3606   57.3384 C   0  0  0  0  0  0  0  0  0  0  0  0
 17 18  2  0
 18 19  1  0
 18 15  1  0
 15 16  2  0
 15 14  1  0
 14 12  1  0
 12 13  2  0
 12  1  1  0
  1  2  2  0
  1 10  1  0
  2  3  1  0
  3 20  1  0
  3  4  1  0
 20 21  1  0
 21 22  2  0
 21 26  1  0
 22 23  1  0
 23 24  2  0
 24 25  1  0
 25 26  2  0
  4  5  1  0
  4  9  2  0
  5  6  2  0
  6  7  1  0
  7  8  2  0
  8  9  1  0
  9 10  1  0
 10 11  2  0
M  END
>  <minimizedAffinity>  (453) 
-9.02442

$$$$
data/200k_reference_output/data/smiles/38494.pdb
     RDKit          3D

 27 29  0  0  0  0  0  0  0  0999 V2000
   71.5028   45.8688   58.8146 C   0  0  0  0  0  0  0  0  0  0  0  0
   69.5955   46.4967   57.2681 N   0  0  0  0  0  0  0  0  0  0  0  0
   70.5845   46.8275   58.2009 C   0  0  0  0  0  0  0  0  0  0  0  0
   70.7031   48.0422   58.5523 O   0  0  0  0  0  0  0  0  0  0  0  0
   68.6812   47.4545   56.6471 C   0  0  0  0  0  0  0  0  0  0  0  0
   67.3746   45.0549   52.4216 C   0  0  0  0  0  0  0  0  0  0  0  0
   68.0610   46.1703   53.1137 C   0  0  0  0  0  0  0  0  0  0  0  0
   68.0569   46.2966   54.5039 C   0  0  0  0  0  0  0  0  0  0  0  0
   68.6793   47.3195   55.1746 C   0  0  0  0  0  0  0  0  0  0  0  0
   69.3429   48.2626   54.3732 C   0  0  0  0  0  0  0  0  0  0  0  0
   69.3763   48.1825   53.0062 C   0  0  0  0  0  0  0  0  0  0  0  0
   70.0898   49.1882   52.1942 C   0  0  0  0  0  0  0  0  0  0  0  0
   68.7344   47.1362   52.3901 C   0  0  0  0  0  0  0  0  0  0  0  0
   68.7509   47.0272   50.9847 O   0  0  0  0  0  0  0  0  0  0  0  0
   71.2494   44.5759   58.3208 O   0  0  0  0  0  0  0  0  0  0  0  0
   70.3496   43.6840   58.8230 C   0  0  0  0  0  0  0  0  0  0  0  0
   69.6323   44.0731   59.7990 O   0  0  0  0  0  0  0  0  0  0  0  0
   70.1537   42.3001   58.3081 C   0  0  1  0  0  0  0  0  0  0  0  0
   70.0499   41.3350   59.4356 C   0  0  0  0  0  0  0  0  0  0  0  0
   68.6471   40.9685   59.8264 C   0  0  2  0  0  0  0  0  0  0  0  0
   68.3883   39.4825   59.5169 C   0  0  0  0  0  0  0  0  0  0  0  0
   68.5650   39.1966   58.0587 C   0  0  0  0  0  0  0  0  0  0  0  0
   67.9071   40.1294   57.1143 C   0  0  0  0  0  0  0  0  0  0  0  0
   67.8411   41.5722   57.5599 C   0  0  2  0  0  0  0  0  0  0  0  0
   69.1146   42.3161   57.2754 C   0  0  0  0  0  0  0  0  0  0  0  0
   67.6361   41.6822   59.0181 C   0  0  0  0  0  0  0  0  0  0  0  0
   66.7375   42.2905   59.4946 O   0  0  0  0  0  0  0  0  0  0  0  0
  6  7  1  0
  7  8  2  0
  7 13  1  0
  8  9  1  0
  9  5  1  0
  9 10  2  0
  5  2  1  0
  2  3  1  0
  3  4  2  0
  3  1  1  0
  1 15  1  0
 15 16  1  0
 16 17  2  0
 18 16  1  1
 18 19  1  0
 18 25  1  0
 20 19  1  6
 20 21  1  0
 20 26  1  0
 21 22  1  0
 22 23  1  0
 24 23  1  1
 24 25  1  0
 24 26  1  0
 26 27  2  0
 10 11  1  0
 11 12  1  0
 11 13  2  0
 13 14  1  0
M  END
>  <minimizedAffinity>  (454) 
-8.68263

$$$$
data/200k_reference_output/data/smiles/38497.pdb
     RDKit          3D

 28 31  0  0  0  0  0  0  0  0999 V2000
   70.8987   46.0740   58.1910 C   0  0  0  0  0  0  0  0  0  0  0  0
   71.6989   46.9401   58.9551 C   0  0  0  0  0  0  0  0  0  0  0  0
   71.5408   48.3033   58.9397 C   0  0  0  0  0  0  0  0  0  0  0  0
   70.5534   48.8517   58.1384 C   0  0  0  0  0  0  0  0  0  0  0  0
   69.7382   48.0669   57.3675 C   0  0  0  0  0  0  0  0  0  0  0  0
   69.9513   46.6909   57.4299 C   0  0  0  0  0  0  0  0  0  0  0  0
   69.4541   44.1058   59.7104 O   0  0  0  0  0  0  0  0  0  0  0  0
   70.4300   43.7523   59.0131 C   0  0  0  0  0  0  0  0  0  0  0  0
   71.1329   44.7004   58.2751 N   0  0  0  0  0  0  0  0  0  0  0  0
   70.8322   42.2887   58.9844 C   0  0  0  0  0  0  0  0  0  0  0  0
   69.8151   41.5471   58.2227 C   0  0  0  0  0  0  0  0  0  0  0  0
   68.9923   42.1758   57.2824 C   0  0  0  0  0  0  0  0  0  0  0  0
   68.0444   41.5022   56.5696 C   0  0  0  0  0  0  0  0  0  0  0  0
   67.9100   40.1377   56.8042 C   0  0  0  0  0  0  0  0  0  0  0  0
   68.6959   39.5276   57.7040 N   0  0  0  0  0  0  0  0  0  0  0  0
   69.6365   40.1931   58.4133 C   0  0  0  0  0  0  0  0  0  0  0  0
   68.6577   48.6020   56.4648 C   0  0  0  0  0  0  0  0  0  0  0  0
   69.0377   48.7238   55.0725 C   0  0  0  0  0  0  0  0  0  0  0  0
   69.4628   49.9228   54.6261 N   0  0  0  0  0  0  0  0  0  0  0  0
   69.8186   50.1901   53.3921 N   0  0  0  0  0  0  0  0  0  0  0  0
   69.7716   49.2170   52.4602 C   0  0  0  0  0  0  0  0  0  0  0  0
   70.1070   49.4292   51.2521 O   0  0  0  0  0  0  0  0  0  0  0  0
   69.3501   47.9609   52.8289 C   0  0  0  0  0  0  0  0  0  0  0  0
   68.9766   47.7095   54.1580 C   0  0  0  0  0  0  0  0  0  0  0  0
   68.5716   46.3401   54.4244 C   0  0  0  0  0  0  0  0  0  0  0  0
   67.4486   46.0319   53.4163 C   0  0  0  0  0  0  0  0  0  0  0  0
   67.9231   46.1166   52.0006 C   0  0  0  0  0  0  0  0  0  0  0  0
   69.2646   46.8344   51.8652 C   0  0  0  0  0  0  0  0  0  0  0  0
  7  8  2  0
  8 10  1  0
  8  9  1  0
 10 11  1  0
 11 12  2  0
 11 16  1  0
 12 13  1  0
 13 14  2  0
 14 15  1  0
 15 16  2  0
  9  1  1  0
  1  2  2  0
  1  6  1  0
  2  3  1  0
  3  4  2  0
  4  5  1  0
  5 17  1  0
  5  6  2  0
 17 18  1  0
 18 19  2  0
 18 24  1  0
 19 20  1  0
 20 21  1  0
 21 22  2  0
 21 23  1  0
 23 24  2  0
 23 28  1  0
 24 25  1  0
 25 26  1  0
 26 27  1  0
 27 28  1  0
M  END
>  <minimizedAffinity>  (455) 
-9.27299

$$$$
data/200k_reference_output/data/smiles/38502.pdb
     RDKit          3D

 29 32  0  0  0  0  0  0  0  0999 V2000
   69.1122   48.5126   55.5743 N   0  0  0  0  0  0  0  0  0  0  0  0
   68.9712   48.6586   54.3405 C   0  0  0  0  0  0  0  0  0  0  0  0
   68.6287   47.5729   53.5839 C   0  0  0  0  0  0  0  0  0  0  0  0
   68.1076   46.4951   54.2194 C   0  0  0  0  0  0  0  0  0  0  0  0
   67.7455   45.3977   53.4380 C   0  0  0  0  0  0  0  0  0  0  0  0
   67.9123   45.4288   52.0754 C   0  0  0  0  0  0  0  0  0  0  0  0
   68.4359   46.5409   51.4616 C   0  0  0  0  0  0  0  0  0  0  0  0
   68.8082   47.6480   52.2092 C   0  0  0  0  0  0  0  0  0  0  0  0
   69.2826   48.7553   51.6342 N   0  0  0  0  0  0  0  0  0  0  0  0
   69.5902   49.7978   52.4081 C   0  0  0  0  0  0  0  0  0  0  0  0
   70.0429   50.8868   51.9181 O   0  0  0  0  0  0  0  0  0  0  0  0
   69.4558   49.7958   53.7359 N   0  0  0  0  0  0  0  0  0  0  0  0
   69.7699   50.8810   54.5684 C   0  0  0  0  0  0  0  0  0  0  0  0
   68.7911   51.7758   54.8946 C   0  0  0  0  0  0  0  0  0  0  0  0
   69.0678   52.8689   55.7221 C   0  0  0  0  0  0  0  0  0  0  0  0
   70.3720   53.0112   56.1989 C   0  0  0  0  0  0  0  0  0  0  0  0
   71.3686   52.1155   55.8778 C   0  0  0  0  0  0  0  0  0  0  0  0
   71.0363   51.0414   55.0466 C   0  0  0  0  0  0  0  0  0  0  0  0
   68.9974   47.2263   56.6032 S   0  0  0  0  0  0  0  0  0  0  0  0
   68.2000   46.0094   56.2701 O   0  0  0  0  0  0  0  0  0  0  0  0
   67.8820   47.8339   57.5534 O   0  0  0  0  0  0  0  0  0  0  0  0
   72.2392   46.9434   59.7859 C   0  0  0  0  0  0  0  0  0  0  0  0
   71.6622   45.7909   59.2580 C   0  0  0  0  0  0  0  0  0  0  0  0
   70.6771   45.8124   58.3122 C   0  0  0  0  0  0  0  0  0  0  0  0
   70.2184   47.0102   57.8434 C   0  0  0  0  0  0  0  0  0  0  0  0
   70.7869   48.1564   58.3630 C   0  0  0  0  0  0  0  0  0  0  0  0
   71.7832   48.1561   59.3196 C   0  0  0  0  0  0  0  0  0  0  0  0
   73.5459   47.9710   61.5402 C   0  0  0  0  0  0  0  0  0  0  0  0
   73.2315   46.8776   60.7405 O   0  0  0  0  0  0  0  0  0  0  0  0
 28 29  1  0
 29 22  1  0
 22 23  2  0
 22 27  1  0
 23 24  1  0
 24 25  2  0
 25 19  1  0
 25 26  1  0
 19 20  2  0
 19 21  2  0
 19  1  1  0
  1  2  2  0
  2  3  1  0
  2 12  1  0
  3  4  2  0
  3  8  1  0
  4  5  1  0
  5  6  2  0
  6  7  1  0
  7  8  2  0
  8  9  1  0
  9 10  1  0
 10 11  2  0
 10 12  1  0
 12 13  1  0
 13 14  2  0
 13 18  1  0
 14 15  1  0
 15 16  2  0
 16 17  1  0
 17 18  2  0
 26 27  2  0
M  END
>  <minimizedAffinity>  (456) 
-9.00110

$$$$
data/200k_reference_output/data/smiles/38619.pdb
     RDKit          3D

 30 33  0  0  0  0  0  0  0  0999 V2000
   70.5510   43.9208   59.0213 N   0  0  0  0  0  0  0  0  0  0  0  0
   71.3490   42.8548   59.4907 C   0  0  0  0  0  0  0  0  0  0  0  0
   70.6038   41.5415   59.7185 C   0  0  0  0  0  0  0  0  0  0  0  0
   69.6212   41.3142   58.6430 C   0  0  0  0  0  0  0  0  0  0  0  0
   70.0700   42.1488   57.4525 C   0  0  0  0  0  0  0  0  0  0  0  0
   69.7989   43.5887   57.8278 C   0  0  0  0  0  0  0  0  0  0  0  0
   68.2304   41.8167   58.9546 C   0  0  0  0  0  0  0  0  0  0  0  0
   67.8290   42.5407   59.8682 O   0  0  0  0  0  0  0  0  0  0  0  0
   67.4712   41.2177   57.8815 N   0  0  0  0  0  0  0  0  0  0  0  0
   68.1945   40.0512   57.3698 C   0  0  0  0  0  0  0  0  0  0  0  0
   69.2943   39.9606   58.3133 N   0  0  0  0  0  0  0  0  0  0  0  0
   69.8619   38.7502   58.7399 C   0  0  0  0  0  0  0  0  0  0  0  0
   69.3556   37.9901   59.7620 C   0  0  0  0  0  0  0  0  0  0  0  0
   70.0017   36.8272   60.1203 C   0  0  0  0  0  0  0  0  0  0  0  0
   71.1419   36.3903   59.4943 C   0  0  0  0  0  0  0  0  0  0  0  0
   71.9479   34.8928   59.9779 Cl  0  0  0  0  0  0  0  0  0  0  0  0
   71.6772   37.1419   58.4534 C   0  0  0  0  0  0  0  0  0  0  0  0
   71.0176   38.3028   58.1085 C   0  0  0  0  0  0  0  0  0  0  0  0
   71.1926   45.1663   58.7639 C   0  0  0  0  0  0  0  0  0  0  0  0
   70.3667   46.2805   58.2516 C   0  0  0  0  0  0  0  0  0  0  0  0
   68.0506   47.1879   57.0134 O   0  0  0  0  0  0  0  0  0  0  0  0
   68.9492   46.6955   56.2585 C   0  0  0  0  0  0  0  0  0  0  0  0
   70.1386   46.2251   56.8436 N   0  0  0  0  0  0  0  0  0  0  0  0
   68.6871   46.6485   54.8269 C   0  0  0  0  0  0  0  0  0  0  0  0
   69.1523   47.6463   54.0062 C   0  0  0  0  0  0  0  0  0  0  0  0
   68.9224   47.6355   52.6340 C   0  0  0  0  0  0  0  0  0  0  0  0
   68.2023   46.5843   52.0948 C   0  0  0  0  0  0  0  0  0  0  0  0
   67.9808   46.5788   50.7739 F   0  0  0  0  0  0  0  0  0  0  0  0
   67.7210   45.5676   52.8954 C   0  0  0  0  0  0  0  0  0  0  0  0
   67.9761   45.6206   54.2603 C   0  0  0  0  0  0  0  0  0  0  0  0
 21 22  2  0
 22 23  1  0
 22 24  1  0
 23 20  1  0
 20 19  1  0
 19  1  1  0
  1  2  1  0
  1  6  1  0
  2  3  1  0
  3  4  1  0
  4  5  1  0
  4  7  1  0
  4 11  1  0
  5  6  1  0
  7  8  2  0
  7  9  1  0
  9 10  1  0
 10 11  1  0
 11 12  1  0
 12 13  2  0
 12 18  1  0
 13 14  1  0
 14 15  2  0
 15 16  1  0
 15 17  1  0
 17 18  2  0
 24 25  2  0
 24 30  1  0
 25 26  1  0
 26 27  2  0
 27 28  1  0
 27 29  1  0
 29 30  2  0
M  CHG  1   1   1
M  END
>  <minimizedAffinity>  (457) 
-8.78376

$$$$
data/200k_reference_output/data/smiles/38646.pdb
     RDKit          3D

 21 22  0  0  0  0  0  0  0  0999 V2000
   67.7172   42.1038   56.4495 C   0  0  0  0  0  0  0  0  0  0  0  0
   67.1504   41.5693   55.4696 O   0  0  0  0  0  0  0  0  0  0  0  0
   68.0620   41.2687   57.6201 C   0  0  0  0  0  0  0  0  0  0  0  0
   68.0731   39.9724   57.5723 C   0  0  0  0  0  0  0  0  0  0  0  0
   68.3738   38.9934   58.5745 C   0  0  0  0  0  0  0  0  0  0  0  0
   67.2820   38.4328   59.2651 C   0  0  0  0  0  0  0  0  0  0  0  0
   67.4775   37.4857   60.2433 C   0  0  0  0  0  0  0  0  0  0  0  0
   68.7287   37.0357   60.6018 C   0  0  0  0  0  0  0  0  0  0  0  0
   69.8036   37.5697   59.9413 C   0  0  0  0  0  0  0  0  0  0  0  0
   69.6040   38.5368   58.9418 C   0  0  0  0  0  0  0  0  0  0  0  0
   71.0322   39.1626   58.1532 Cl  0  0  0  0  0  0  0  0  0  0  0  0
   67.9769   43.4441   56.3544 O   0  0  0  0  0  0  0  0  0  0  0  0
   67.7303   44.2031   55.2340 N   0  0  0  0  0  0  0  0  0  0  0  0
   68.4575   46.1750   56.1823 N   0  0  0  0  0  0  0  0  0  0  0  0
   68.1809   45.5302   55.0823 C   0  0  0  0  0  0  0  0  0  0  0  0
   68.3377   46.1703   53.7637 C   0  0  0  0  0  0  0  0  0  0  0  0
   67.6972   45.6589   52.6587 C   0  0  0  0  0  0  0  0  0  0  0  0
   67.8203   46.2253   51.4302 C   0  0  0  0  0  0  0  0  0  0  0  0
   68.5872   47.3143   51.2740 N   0  0  0  0  0  0  0  0  0  0  0  0
   69.2244   47.8325   52.3372 C   0  0  0  0  0  0  0  0  0  0  0  0
   69.1209   47.2859   53.5926 C   0  0  0  0  0  0  0  0  0  0  0  0
 14 15  2  0
 15 13  1  0
 15 16  1  0
 13 12  1  0
 12  1  1  0
  1  2  2  0
  1  3  1  0
  3  4  2  0
  4  5  1  0
  5  6  2  0
  5 10  1  0
  6  7  1  0
  7  8  2  0
  8  9  1  0
  9 10  2  0
 10 11  1  0
 16 17  2  0
 16 21  1  0
 17 18  1  0
 18 19  2  0
 19 20  1  0
 20 21  2  0
M  CHG  1  14   1
M  END
>  <minimizedAffinity>  (458) 
-8.58288

$$$$
data/200k_reference_output/data/smiles/38691.pdb
     RDKit          3D

 30 33  0  0  0  0  0  0  0  0999 V2000
   70.4775   44.5680   58.5966 C   0  0  0  0  0  0  0  0  0  0  0  0
   69.5908   44.1267   59.5041 N   0  0  0  0  0  0  0  0  0  0  0  0
   69.7194   42.9086   60.1104 C   0  0  0  0  0  0  0  0  0  0  0  0
   70.7697   42.0630   59.8206 C   0  0  0  0  0  0  0  0  0  0  0  0
   70.9232   40.8247   60.4202 C   0  0  0  0  0  0  0  0  0  0  0  0
   71.9754   39.9798   60.1296 C   0  0  0  0  0  0  0  0  0  0  0  0
   72.9007   40.4166   59.1954 C   0  0  0  0  0  0  0  0  0  0  0  0
   72.7463   41.6549   58.5964 C   0  0  0  0  0  0  0  0  0  0  0  0
   71.6922   42.4930   58.8932 C   0  0  0  0  0  0  0  0  0  0  0  0
   71.5345   43.7341   58.2958 C   0  0  0  0  0  0  0  0  0  0  0  0
   72.4510   44.1745   57.3657 O   0  0  0  0  0  0  0  0  0  0  0  0
   68.7741   42.4522   61.0741 N   0  0  0  0  0  0  0  0  0  0  0  0
   69.1062   42.5195   62.4731 C   0  0  0  0  0  0  0  0  0  0  0  0
   67.8862   42.2256   63.3049 C   0  0  0  0  0  0  0  0  0  0  0  0
   67.3936   40.8189   63.1414 C   0  0  0  0  0  0  0  0  0  0  0  0
   66.7729   40.5473   61.7913 C   0  0  0  0  0  0  0  0  0  0  0  0
   67.2369   41.8135   60.6348 S   0  0  0  0  0  0  0  0  0  0  0  0
   67.2222   41.3233   59.2204 O   0  0  0  0  0  0  0  0  0  0  0  0
   66.2510   42.9702   60.7236 O   0  0  0  0  0  0  0  0  0  0  0  0
   71.1973   46.7576   58.1775 O   0  0  0  0  0  0  0  0  0  0  0  0
   70.3444   45.8719   57.9363 C   0  0  0  0  0  0  0  0  0  0  0  0
   69.3031   46.1852   57.0428 N   0  0  0  0  0  0  0  0  0  0  0  0
   69.0890   47.4266   56.3583 C   0  0  0  0  0  0  0  0  0  0  0  0
   68.8244   47.1212   54.9262 C   0  0  0  0  0  0  0  0  0  0  0  0
   69.3836   48.0084   54.0148 C   0  0  0  0  0  0  0  0  0  0  0  0
   69.2178   47.8474   52.6505 C   0  0  0  0  0  0  0  0  0  0  0  0
   68.4841   46.7859   52.1699 C   0  0  0  0  0  0  0  0  0  0  0  0
   67.9378   45.9164   53.0964 C   0  0  0  0  0  0  0  0  0  0  0  0
   67.2043   44.8517   52.6381 F   0  0  0  0  0  0  0  0  0  0  0  0
   68.0971   46.0686   54.4629 C   0  0  0  0  0  0  0  0  0  0  0  0
 20 21  2  0
 21 22  1  0
 21  1  1  0
 22 23  1  0
 23 24  1  0
 24 25  2  0
 24 30  1  0
 25 26  1  0
 26 27  2  0
 27 28  1  0
 28 29  1  0
 28 30  2  0
  1  2  2  0
  1 10  1  0
  2  3  1  0
  3 12  1  0
  3  4  2  0
 12 13  1  0
 12 17  1  0
 13 14  1  0
 14 15  1  0
 15 16  1  0
 16 17  1  0
 17 18  2  0
 17 19  2  0
  4  5  1  0
  4  9  1  0
  5  6  2  0
  6  7  1  0
  7  8  2  0
  8  9  1  0
  9 10  2  0
 10 11  1  0
M  END
>  <minimizedAffinity>  (459) 
-8.59442

$$$$
data/200k_reference_output/data/smiles/38749.pdb
     RDKit          3D

 28 32  0  0  0  0  0  0  0  0999 V2000
   76.5480   34.7417   55.9804 C   0  0  0  0  0  0  0  0  0  0  0  0
   75.4305   34.8426   55.0263 C   0  0  0  0  0  0  0  0  0  0  0  0
   75.4850   35.5072   53.8788 N   0  0  0  0  0  0  0  0  0  0  0  0
   74.2615   35.3535   53.3061 C   0  0  0  0  0  0  0  0  0  0  0  0
   73.4784   34.5947   54.1150 C   0  0  0  0  0  0  0  0  0  0  0  0
   74.2276   34.2711   55.2100 N   0  0  0  0  0  0  0  0  0  0  0  0
   76.5231   36.2734   53.2344 C   0  0  0  0  0  0  0  0  0  0  0  0
   77.2449   35.5218   52.1695 C   0  0  0  0  0  0  0  0  0  0  0  0
   78.0537   34.4476   52.4604 C   0  0  0  0  0  0  0  0  0  0  0  0
   78.7034   33.7844   51.4458 C   0  0  0  0  0  0  0  0  0  0  0  0
   78.5988   34.1305   50.1160 C   0  0  0  0  0  0  0  0  0  0  0  0
   79.2697   33.4390   49.1190 C   0  0  0  0  0  0  0  0  0  0  0  0
   79.1424   33.8124   47.8012 C   0  0  0  0  0  0  0  0  0  0  0  0
   78.3344   34.8902   47.4834 C   0  0  0  0  0  0  0  0  0  0  0  0
   77.6842   35.5542   48.4922 C   0  0  0  0  0  0  0  0  0  0  0  0
   77.7867   35.2092   49.8293 C   0  0  0  0  0  0  0  0  0  0  0  0
   77.1344   35.8753   50.8404 C   0  0  0  0  0  0  0  0  0  0  0  0
   73.6986   33.4643   56.2685 C   0  0  0  0  0  0  0  0  0  0  0  0
   72.9059   34.2438   57.2600 C   0  0  0  0  0  0  0  0  0  0  0  0
   72.3160   33.6647   58.3592 C   0  0  0  0  0  0  0  0  0  0  0  0
   71.5841   34.4078   59.2648 C   0  0  0  0  0  0  0  0  0  0  0  0
   71.4357   35.7622   59.0688 C   0  0  0  0  0  0  0  0  0  0  0  0
   70.7186   36.4994   59.9540 C   0  0  0  0  0  0  0  0  0  0  0  0
   70.5509   37.8549   59.7886 C   0  0  0  0  0  0  0  0  0  0  0  0
   71.1279   38.4675   58.6984 C   0  0  0  0  0  0  0  0  0  0  0  0
   71.8562   37.7365   57.7952 C   0  0  0  0  0  0  0  0  0  0  0  0
   72.0162   36.3694   57.9773 C   0  0  0  0  0  0  0  0  0  0  0  0
   72.7524   35.5915   57.0756 C   0  0  0  0  0  0  0  0  0  0  0  0
  1  2  1  0
  2  3  1  0
  2  6  2  0
  3  7  1  0
  3  4  1  0
  7  8  1  0
  8  9  2  0
  8 17  1  0
  9 10  1  0
 10 11  2  0
 11 12  1  0
 11 16  1  0
 12 13  2  0
 13 14  1  0
 14 15  2  0
 15 16  1  0
 16 17  2  0
  4  5  2  0
  5  6  1  0
  6 18  1  0
 18 19  1  0
 19 20  2  0
 19 28  1  0
 20 21  1  0
 21 22  2  0
 22 23  1  0
 22 27  1  0
 23 24  2  0
 24 25  1  0
 25 26  2  0
 26 27  1  0
 27 28  2  0
M  CHG  1   6   1
M  END
>  <minimizedAffinity>  (460) 
-8.88947

$$$$
data/200k_reference_output/data/smiles/38813.pdb
     RDKit          3D

 21 22  0  0  0  0  0  0  0  0999 V2000
   67.5335   45.3406   51.7087 C   0  0  0  0  0  0  0  0  0  0  0  0
   68.3176   46.4453   52.2775 C   0  0  0  0  0  0  0  0  0  0  0  0
   68.8319   47.3929   51.4751 N   0  0  0  0  0  0  0  0  0  0  0  0
   69.5614   48.4365   51.9292 C   0  0  0  0  0  0  0  0  0  0  0  0
   70.0148   49.2999   51.1177 O   0  0  0  0  0  0  0  0  0  0  0  0
   69.8397   48.6108   53.2651 C   0  0  0  0  0  0  0  0  0  0  0  0
   69.3211   47.6473   54.1186 C   0  0  0  0  0  0  0  0  0  0  0  0
   68.5687   46.5784   53.6289 C   0  0  0  0  0  0  0  0  0  0  0  0
   68.0272   45.5735   54.5238 C   0  0  0  0  0  0  0  0  0  0  0  0
   67.9789   45.8215   55.7548 O   0  0  0  0  0  0  0  0  0  0  0  0
   67.5592   44.3518   54.0910 O   0  0  0  0  0  0  0  0  0  0  0  0
   70.6463   49.6856   53.8211 C   0  0  0  0  0  0  0  0  0  0  0  0
   71.8939   49.7030   53.5339 O   0  0  0  0  0  0  0  0  0  0  0  0
   70.0712   50.7101   54.6709 C   0  0  0  0  0  0  0  0  0  0  0  0
   69.0172   50.5209   55.5316 C   0  0  0  0  0  0  0  0  0  0  0  0
   68.5151   51.5906   56.2848 C   0  0  0  0  0  0  0  0  0  0  0  0
   67.1702   51.3105   57.3725 Cl  0  0  0  0  0  0  0  0  0  0  0  0
   69.0394   52.8620   56.2032 C   0  0  0  0  0  0  0  0  0  0  0  0
   70.0969   53.0580   55.3407 C   0  0  0  0  0  0  0  0  0  0  0  0
   70.5922   51.9990   54.5966 C   0  0  0  0  0  0  0  0  0  0  0  0
   71.6566   52.2042   53.7302 O   0  0  0  0  0  0  0  0  0  0  0  0
  1  2  1  0
  2  3  1  0
  2  8  2  0
  3  4  1  0
  4  5  2  0
  4  6  1  0
  6 12  1  0
  6  7  2  0
 12 13  2  0
 12 14  1  0
 14 15  2  0
 14 20  1  0
 15 16  1  0
 16 17  1  0
 16 18  2  0
 18 19  1  0
 19 20  2  0
 20 21  1  0
  7  8  1  0
  8  9  1  0
  9 10  2  0
  9 11  1  0
M  END
>  <minimizedAffinity>  (461) 
-8.65905

$$$$
data/200k_reference_output/data/smiles/38899.pdb
     RDKit          3D

 31 33  0  0  0  0  0  0  0  0999 V2000
   69.7487   47.3050   57.3900 C   0  0  0  0  0  0  0  0  0  0  0  0
   68.5539   47.2317   57.7989 O   0  0  0  0  0  0  0  0  0  0  0  0
   69.9924   47.9479   56.1713 N   0  0  0  0  0  0  0  0  0  0  0  0
   68.9759   48.5413   55.3312 C   0  0  1  0  0  0  0  0  0  0  0  0
   69.2874   49.9291   54.9592 C   0  0  0  0  0  0  0  0  0  0  0  0
   68.7530   50.7943   55.7035 O   0  0  0  0  0  0  0  0  0  0  0  0
   70.0760   50.4928   53.9198 N   0  0  0  0  0  0  0  0  0  0  0  0
   70.5469   51.8570   54.1528 C   0  0  0  0  0  0  0  0  0  0  0  0
   70.4401   49.8877   52.7198 N   0  0  0  0  0  0  0  0  0  0  0  0
   70.0960   48.7131   52.2690 C   0  0  0  0  0  0  0  0  0  0  0  0
   69.2450   47.7249   52.8894 C   0  0  0  0  0  0  0  0  0  0  0  0
   68.8972   46.7275   51.9670 C   0  0  0  0  0  0  0  0  0  0  0  0
   68.0965   45.6917   52.3415 C   0  0  0  0  0  0  0  0  0  0  0  0
   67.6125   45.5969   53.6254 C   0  0  0  0  0  0  0  0  0  0  0  0
   67.9647   46.5867   54.5212 C   0  0  0  0  0  0  0  0  0  0  0  0
   68.7719   47.6475   54.1750 C   0  0  0  0  0  0  0  0  0  0  0  0
   72.0721   47.5756   58.2215 C   0  0  0  0  0  0  0  0  0  0  0  0
   70.8333   46.7165   58.2055 C   0  0  2  0  0  0  0  0  0  0  0  0
   71.0972   45.3415   57.8618 N   0  0  0  0  0  0  0  0  0  0  0  0
   70.5409   44.2350   58.5637 C   0  0  0  0  0  0  0  0  0  0  0  0
   69.7881   44.4295   59.5258 O   0  0  0  0  0  0  0  0  0  0  0  0
   70.8464   42.8321   58.1654 C   0  0  2  0  0  0  0  0  0  0  0  0
   71.9106   42.8376   57.2713 O   0  0  0  0  0  0  0  0  0  0  0  0
   69.6865   42.1435   57.5954 C   0  0  0  0  0  0  0  0  0  0  0  0
   69.3821   40.8249   57.8355 C   0  0  0  0  0  0  0  0  0  0  0  0
   68.2868   40.2065   57.2852 C   0  0  0  0  0  0  0  0  0  0  0  0
   67.9824   38.9055   57.5197 F   0  0  0  0  0  0  0  0  0  0  0  0
   67.4604   40.9522   56.4551 C   0  0  0  0  0  0  0  0  0  0  0  0
   67.7286   42.2788   56.1880 C   0  0  0  0  0  0  0  0  0  0  0  0
   66.9341   43.0280   55.3784 F   0  0  0  0  0  0  0  0  0  0  0  0
   68.8450   42.8634   56.7641 C   0  0  0  0  0  0  0  0  0  0  0  0
 18 17  1  6
 18 19  1  0
 18  1  1  0
 19 20  1  0
 20 21  2  0
 20 22  1  0
 22 23  1  6
 22 24  1  0
 24 25  2  0
 24 31  1  0
 25 26  1  0
 26 27  1  0
 26 28  2  0
 28 29  1  0
 29 30  1  0
 29 31  2  0
  1  2  2  0
  1  3  1  0
  4  3  1  6
  4  5  1  0
  4 16  1  0
  5  6  2  0
  5  7  1  0
  7  8  1  0
  7  9  1  0
  9 10  2  0
 10 11  1  0
 11 12  1  0
 11 16  2  0
 12 13  2  0
 13 14  1  0
 14 15  2  0
 15 16  1  0
M  END
>  <minimizedAffinity>  (462) 
-9.54227

$$$$
data/200k_reference_output/data/smiles/39125.pdb
     RDKit          3D

 28 30  0  0  0  0  0  0  0  0999 V2000
   69.8712   43.8900   57.3777 C   0  0  0  0  0  0  0  0  0  0  0  0
   68.9802   42.8853   57.4209 N   0  0  0  0  0  0  0  0  0  0  0  0
   69.2827   41.6233   57.7586 C   0  0  0  0  0  0  0  0  0  0  0  0
   68.3437   40.6111   57.7940 C   0  0  0  0  0  0  0  0  0  0  0  0
   68.6813   39.3206   58.1459 C   0  0  0  0  0  0  0  0  0  0  0  0
   69.9841   38.9954   58.4765 C   0  0  0  0  0  0  0  0  0  0  0  0
   70.9198   40.0104   58.4398 C   0  0  0  0  0  0  0  0  0  0  0  0
   70.5882   41.3070   58.0879 C   0  0  0  0  0  0  0  0  0  0  0  0
   71.4965   42.3425   58.0413 C   0  0  0  0  0  0  0  0  0  0  0  0
   72.6961   42.0471   58.3448 O   0  0  0  0  0  0  0  0  0  0  0  0
   71.1362   43.6024   57.6927 N   0  0  0  0  0  0  0  0  0  0  0  0
   68.5846   45.4812   55.8862 N   0  0  0  0  0  0  0  0  0  0  0  0
   69.4092   45.2143   56.9946 C   0  0  0  0  0  0  0  0  0  0  0  0
   69.7650   46.1942   57.6974 O   0  0  0  0  0  0  0  0  0  0  0  0
   68.1091   46.7848   55.4763 C   0  0  0  0  0  0  0  0  0  0  0  0
   69.8417   48.9912   52.9708 C   0  0  0  0  0  0  0  0  0  0  0  0
   69.8197   48.2093   51.8390 C   0  0  0  0  0  0  0  0  0  0  0  0
   69.2368   46.9506   51.8931 C   0  0  0  0  0  0  0  0  0  0  0  0
   68.6791   46.4817   53.0863 C   0  0  0  0  0  0  0  0  0  0  0  0
   68.7000   47.2575   54.2128 C   0  0  0  0  0  0  0  0  0  0  0  0
   69.2843   48.5118   54.1426 C   0  0  0  0  0  0  0  0  0  0  0  0
   70.1165   51.3246   53.7358 C   0  0  0  0  0  0  0  0  0  0  0  0
   70.4285   50.2391   52.8865 O   0  0  0  0  0  0  0  0  0  0  0  0
   70.2986   37.6897   58.8267 O   0  0  0  0  0  0  0  0  0  0  0  0
   71.5735   37.1816   58.4082 C   0  0  0  0  0  0  0  0  0  0  0  0
   71.8900   37.6198   57.1516 F   0  0  0  0  0  0  0  0  0  0  0  0
   71.4626   35.8049   58.4653 F   0  0  0  0  0  0  0  0  0  0  0  0
   72.4964   37.6049   59.3524 F   0  0  0  0  0  0  0  0  0  0  0  0
 22 23  1  0
 23 16  1  0
 16 17  2  0
 16 21  1  0
 17 18  1  0
 18 19  2  0
 19 20  1  0
 20 15  1  0
 20 21  2  0
 15 12  1  0
 12 13  1  0
 13 14  2  0
 13  1  1  0
  1  2  2  0
  1 11  1  0
  2  3  1  0
  3  4  2  0
  3  8  1  0
  4  5  1  0
  5  6  2  0
  6 24  1  0
  6  7  1  0
 24 25  1  0
 25 26  1  0
 25 27  1  0
 25 28  1  0
  7  8  2  0
  8  9  1  0
  9 10  2  0
  9 11  1  0
M  END
>  <minimizedAffinity>  (463) 
-8.57658

$$$$
data/200k_reference_output/data/smiles/39205.pdb
     RDKit          3D

 30 33  0  0  0  0  0  0  0  0999 V2000
   69.0668   39.1726   57.8213 O   0  0  0  0  0  0  0  0  0  0  0  0
   68.2583   39.9317   58.4239 C   0  0  0  0  0  0  0  0  0  0  0  0
   67.3384   39.4314   59.2704 N   0  0  0  0  0  0  0  0  0  0  0  0
   66.5137   40.3079   59.8731 C   0  0  0  0  0  0  0  0  0  0  0  0
   65.6029   39.8108   60.7112 C   0  0  0  0  0  0  0  0  0  0  0  0
   66.6250   41.6590   59.6193 C   0  0  0  0  0  0  0  0  0  0  0  0
   65.8305   42.4450   60.2068 O   0  0  0  0  0  0  0  0  0  0  0  0
   67.5520   42.1423   58.7687 N   0  0  0  0  0  0  0  0  0  0  0  0
   68.3903   41.2908   58.1507 C   0  0  0  0  0  0  0  0  0  0  0  0
   69.2955   41.7704   57.3200 C   0  0  0  0  0  0  0  0  0  0  0  0
   65.5251   38.3786   60.9456 C   0  0  0  0  0  0  0  0  0  0  0  0
   64.6995   37.5724   60.1921 C   0  0  0  0  0  0  0  0  0  0  0  0
   64.6095   36.2096   60.3966 C   0  0  0  0  0  0  0  0  0  0  0  0
   65.3770   35.6521   61.3918 C   0  0  0  0  0  0  0  0  0  0  0  0
   66.1982   36.4546   62.1416 C   0  0  0  0  0  0  0  0  0  0  0  0
   66.2502   37.7787   61.9023 N   0  0  0  0  0  0  0  0  0  0  0  0
   69.3544   43.2307   57.0985 C   0  0  0  0  0  0  0  0  0  0  0  0
   70.2956   43.8911   57.8573 C   0  0  0  0  0  0  0  0  0  0  0  0
   70.4238   45.2581   57.7196 C   0  0  0  0  0  0  0  0  0  0  0  0
   69.6095   45.9322   56.8262 C   0  0  0  0  0  0  0  0  0  0  0  0
   68.6653   45.2623   56.0658 C   0  0  0  0  0  0  0  0  0  0  0  0
   68.5719   43.9002   56.2367 C   0  0  0  0  0  0  0  0  0  0  0  0
   67.8521   45.9594   55.1704 O   0  0  0  0  0  0  0  0  0  0  0  0
   68.4808   46.6897   54.1774 C   0  0  0  0  0  0  0  0  0  0  0  0
   68.5320   46.2019   52.8718 C   0  0  0  0  0  0  0  0  0  0  0  0
   69.1540   46.9099   51.8591 C   0  0  0  0  0  0  0  0  0  0  0  0
   69.7469   48.1362   52.1278 C   0  0  0  0  0  0  0  0  0  0  0  0
   70.3693   48.8756   51.1834 F   0  0  0  0  0  0  0  0  0  0  0  0
   69.6856   48.6003   53.4220 C   0  0  0  0  0  0  0  0  0  0  0  0
   69.0696   47.9058   54.4420 C   0  0  0  0  0  0  0  0  0  0  0  0
  1  2  2  0
  2  3  1  0
  2  9  1  0
  3  4  1  0
  4  5  2  0
  4  6  1  0
  5 11  1  0
 11 12  2  0
 11 16  1  0
 12 13  1  0
 13 14  2  0
 14 15  1  0
 15 16  2  0
  6  7  2  0
  6  8  1  0
  8  9  1  0
  9 10  2  0
 10 17  1  0
 17 18  2  0
 17 22  1  0
 18 19  1  0
 19 20  2  0
 20 21  1  0
 21 23  1  0
 21 22  2  0
 23 24  1  0
 24 25  2  0
 24 30  1  0
 25 26  1  0
 26 27  2  0
 27 28  1  0
 27 29  1  0
 29 30  2  0
M  END
>  <minimizedAffinity>  (464) 
-9.27540

$$$$
data/200k_reference_output/data/smiles/39265.pdb
     RDKit          3D

 30 33  0  0  0  0  0  0  0  0999 V2000
   69.6992   49.5603   53.0417 C   0  0  0  0  0  0  0  0  0  0  0  0
   69.3943   48.4376   53.8728 N   0  0  0  0  0  0  0  0  0  0  0  0
   69.6466   48.3271   55.1862 C   0  0  0  0  0  0  0  0  0  0  0  0
   70.2774   49.3914   55.8123 C   0  0  0  0  0  0  0  0  0  0  0  0
   70.5363   49.2671   57.1685 C   0  0  0  0  0  0  0  0  0  0  0  0
   70.1946   48.1494   57.8930 C   0  0  0  0  0  0  0  0  0  0  0  0
   69.5609   47.0875   57.2476 C   0  0  0  0  0  0  0  0  0  0  0  0
   69.2956   47.1985   55.8919 C   0  0  0  0  0  0  0  0  0  0  0  0
   68.6561   46.0993   55.2805 C   0  0  0  0  0  0  0  0  0  0  0  0
   68.3801   45.1187   56.0186 N   0  0  0  0  0  0  0  0  0  0  0  0
   68.4081   46.2350   53.9319 C   0  0  0  0  0  0  0  0  0  0  0  0
   67.7921   45.1990   53.2840 C   0  0  0  0  0  0  0  0  0  0  0  0
   67.5212   45.2746   51.9358 C   0  0  0  0  0  0  0  0  0  0  0  0
   67.8744   46.4037   51.2430 C   0  0  0  0  0  0  0  0  0  0  0  0
   68.4990   47.4606   51.8879 C   0  0  0  0  0  0  0  0  0  0  0  0
   68.7726   47.3831   53.2489 C   0  0  0  0  0  0  0  0  0  0  0  0
   67.8202   43.9184   55.9584 N   0  0  0  0  0  0  0  0  0  0  0  0
   68.2569   42.7394   56.6495 C   0  0  0  0  0  0  0  0  0  0  0  0
   67.5285   41.5741   56.6925 C   0  0  0  0  0  0  0  0  0  0  0  0
   68.0129   40.4828   57.3762 C   0  0  0  0  0  0  0  0  0  0  0  0
   69.2220   40.4883   58.0409 C   0  0  0  0  0  0  0  0  0  0  0  0
   69.9391   41.6661   57.9881 C   0  0  0  0  0  0  0  0  0  0  0  0
   69.4702   42.7683   57.3081 C   0  0  0  0  0  0  0  0  0  0  0  0
   69.7939   39.0717   58.8979 S   0  0  0  0  0  0  0  0  0  0  0  0
   70.3816   39.4784   60.2300 O   0  0  0  0  0  0  0  0  0  0  0  0
   68.6173   38.1512   59.1168 O   0  0  0  0  0  0  0  0  0  0  0  0
   71.0281   38.3463   57.9708 N   0  0  0  0  0  0  0  0  0  0  0  0
   71.6878   37.3088   58.2854 C   0  0  0  0  0  0  0  0  0  0  0  0
   71.4648   36.6061   59.4931 N   0  0  0  0  0  0  0  0  0  0  0  0
   72.6874   36.8338   57.3957 N   0  0  0  0  0  0  0  0  0  0  0  0
  1  2  1  0
  2  3  1  0
  2 16  1  0
  3  4  2  0
  3  8  1  0
  4  5  1  0
  5  6  2  0
  6  7  1  0
  7  8  2  0
  8  9  1  0
  9 10  2  0
  9 11  1  0
 10 17  1  0
 17 18  1  0
 18 19  2  0
 18 23  1  0
 19 20  1  0
 20 21  2  0
 21 24  1  0
 21 22  1  0
 24 25  2  0
 24 26  2  0
 24 27  1  0
 27 28  2  0
 28 29  1  0
 28 30  1  0
 22 23  2  0
 11 12  1  0
 11 16  2  0
 12 13  2  0
 13 14  1  0
 14 15  2  0
 15 16  1  0
M  CHG  1  27   1
M  END
>  <minimizedAffinity>  (465) 
-9.52226

$$$$
data/200k_reference_output/data/smiles/39280.pdb
     RDKit          3D

 27 29  0  0  0  0  0  0  0  0999 V2000
   71.4300   51.4390   54.5439 C   0  0  0  0  0  0  0  0  0  0  0  0
   71.0584   52.5285   55.3302 C   0  0  0  0  0  0  0  0  0  0  0  0
   69.7456   52.9347   55.4450 C   0  0  0  0  0  0  0  0  0  0  0  0
   68.7281   52.2817   54.7839 C   0  0  0  0  0  0  0  0  0  0  0  0
   69.0765   51.2038   54.0020 C   0  0  0  0  0  0  0  0  0  0  0  0
   70.4139   50.8044   53.8965 C   0  0  0  0  0  0  0  0  0  0  0  0
   73.4989   50.1491   55.3036 N   0  0  0  0  0  0  0  0  0  0  0  0
   72.8373   51.1118   54.5048 C   0  0  0  0  0  0  0  0  0  0  0  0
   73.6220   51.7214   53.6838 O   0  0  0  0  0  0  0  0  0  0  0  0
   75.2903   50.6371   57.2636 O   0  0  0  0  0  0  0  0  0  0  0  0
   75.8073   50.2116   56.1774 C   0  0  0  0  0  0  0  0  0  0  0  0
   74.8981   49.9483   55.1391 N   0  0  0  0  0  0  0  0  0  0  0  0
   77.2392   50.0326   56.0850 C   0  0  0  0  0  0  0  0  0  0  0  0
   78.0699   50.7620   56.9039 C   0  0  0  0  0  0  0  0  0  0  0  0
   79.4492   50.6229   56.8504 C   0  0  0  0  0  0  0  0  0  0  0  0
   79.9910   49.7584   55.9823 N   0  0  0  0  0  0  0  0  0  0  0  0
   79.1894   49.0390   55.1753 C   0  0  0  0  0  0  0  0  0  0  0  0
   77.8078   49.1589   55.2090 C   0  0  0  0  0  0  0  0  0  0  0  0
   70.6888   49.7323   53.1076 O   0  0  0  0  0  0  0  0  0  0  0  0
   69.7937   49.1300   52.2254 C   0  0  0  0  0  0  0  0  0  0  0  0
   69.1889   47.9184   52.8165 C   0  0  0  0  0  0  0  0  0  0  0  0
   68.6681   46.9777   51.9569 C   0  0  0  0  0  0  0  0  0  0  0  0
   68.0935   45.8321   52.4620 C   0  0  0  0  0  0  0  0  0  0  0  0
   68.0626   45.6695   53.8339 C   0  0  0  0  0  0  0  0  0  0  0  0
   67.4781   44.5101   54.2770 F   0  0  0  0  0  0  0  0  0  0  0  0
   68.5794   46.6020   54.7104 C   0  0  0  0  0  0  0  0  0  0  0  0
   69.1463   47.7329   54.1967 C   0  0  0  0  0  0  0  0  0  0  0  0
 10 11  2  0
 11 12  1  0
 11 13  1  0
 12  7  1  0
  7  8  1  0
  8  9  2  0
  8  1  1  0
  1  2  2  0
  1  6  1  0
  2  3  1  0
  3  4  2  0
  4  5  1  0
  5  6  2  0
  6 19  1  0
 19 20  1  0
 20 21  1  0
 21 22  2  0
 21 27  1  0
 22 23  1  0
 23 24  2  0
 24 25  1  0
 24 26  1  0
 26 27  2  0
 13 14  2  0
 13 18  1  0
 14 15  1  0
 15 16  2  0
 16 17  1  0
 17 18  2  0
M  END
>  <minimizedAffinity>  (466) 
-9.36784

$$$$
data/200k_reference_output/data/smiles/39572.pdb
     RDKit          3D

 25 27  0  0  0  0  0  0  0  0999 V2000
   72.6628   50.5693   54.3477 N   0  0  0  0  0  0  0  0  0  0  0  0
   69.7554   50.9012   54.0900 C   0  0  0  0  0  0  0  0  0  0  0  0
   70.5359   49.7421   53.5657 C   0  0  0  0  0  0  0  0  0  0  0  0
   71.7570   49.7753   53.7697 N   0  0  0  0  0  0  0  0  0  0  0  0
   69.8232   48.6638   52.8610 C   0  0  0  0  0  0  0  0  0  0  0  0
   69.6779   48.5093   51.5021 C   0  0  0  0  0  0  0  0  0  0  0  0
   68.9538   47.3853   51.2699 N   0  0  0  0  0  0  0  0  0  0  0  0
   68.6105   46.7835   52.4209 C   0  0  0  0  0  0  0  0  0  0  0  0
   67.8964   45.6442   52.7489 C   0  0  0  0  0  0  0  0  0  0  0  0
   67.7045   45.2725   54.0590 C   0  0  0  0  0  0  0  0  0  0  0  0
   68.2469   46.0684   55.0437 C   0  0  0  0  0  0  0  0  0  0  0  0
   68.9585   47.2037   54.7201 C   0  0  0  0  0  0  0  0  0  0  0  0
   69.1590   47.5901   53.4110 C   0  0  0  0  0  0  0  0  0  0  0  0
   73.7454   50.4876   55.6282 S   0  0  0  0  0  0  0  0  0  0  0  0
   74.1045   51.9295   56.0252 O   0  0  0  0  0  0  0  0  0  0  0  0
   75.0911   49.9145   55.1607 O   0  0  0  0  0  0  0  0  0  0  0  0
   73.2729   49.6199   57.0390 C   0  0  0  0  0  0  0  0  0  0  0  0
   74.1452   48.6835   57.5982 C   0  0  0  0  0  0  0  0  0  0  0  0
   73.8188   48.0006   58.7483 C   0  0  0  0  0  0  0  0  0  0  0  0
   72.6212   48.2110   59.3965 C   0  0  0  0  0  0  0  0  0  0  0  0
   71.7530   49.1395   58.8458 C   0  0  0  0  0  0  0  0  0  0  0  0
   72.0835   49.8212   57.6940 C   0  0  0  0  0  0  0  0  0  0  0  0
   72.2772   47.5012   60.5969 N   0  0  0  0  0  0  0  0  0  0  0  0
   71.5199   46.5221   60.4688 O   0  0  0  0  0  0  0  0  0  0  0  0
   72.7774   47.9135   61.8000 O   0  0  0  0  0  0  0  0  0  0  0  0
  2  3  1  0
  3  4  2  0
  3  5  1  0
  4  1  1  0
  1 14  1  0
 14 15  2  0
 14 16  2  0
 14 17  1  0
 17 18  2  0
 17 22  1  0
 18 19  1  0
 19 20  2  0
 20 23  1  0
 20 21  1  0
 23 24  2  0
 23 25  1  0
 21 22  2  0
  5  6  2  0
  5 13  1  0
  6  7  1  0
  7  8  1  0
  8  9  1  0
  8 13  2  0
  9 10  2  0
 10 11  1  0
 11 12  2  0
 12 13  1  0
M  CHG  2  23   1  25  -1
M  END
>  <minimizedAffinity>  (467) 
-9.07821

$$$$
data/200k_reference_output/data/smiles/39578.pdb
     RDKit          3D

 22 24  0  0  0  0  0  0  0  0999 V2000
   68.4535   46.7820   56.7640 N   0  0  0  0  0  0  0  0  0  0  0  0
   67.0351   45.1873   52.6214 O   0  0  0  0  0  0  0  0  0  0  0  0
   67.7677   45.9522   53.2862 C   0  0  0  0  0  0  0  0  0  0  0  0
   67.6968   45.9302   54.6305 N   0  0  0  0  0  0  0  0  0  0  0  0
   68.4717   46.7422   55.3574 C   0  0  0  0  0  0  0  0  0  0  0  0
   69.3017   47.5609   54.6952 N   0  0  0  0  0  0  0  0  0  0  0  0
   69.4138   47.6262   53.3716 C   0  0  0  0  0  0  0  0  0  0  0  0
   70.1865   48.3831   52.5615 N   0  0  0  0  0  0  0  0  0  0  0  0
   69.8836   48.0325   51.3315 N   0  0  0  0  0  0  0  0  0  0  0  0
   68.9377   47.0699   51.3058 C   0  0  0  0  0  0  0  0  0  0  0  0
   68.6202   46.7937   52.6126 C   0  0  0  0  0  0  0  0  0  0  0  0
   69.2189   47.7907   57.4593 C   0  0  0  0  0  0  0  0  0  0  0  0
   68.4660   49.0858   57.3684 C   0  0  0  0  0  0  0  0  0  0  0  0
   67.2112   49.2117   57.9198 C   0  0  0  0  0  0  0  0  0  0  0  0
   66.5394   50.3985   57.8161 C   0  0  0  0  0  0  0  0  0  0  0  0
   67.1236   51.4602   57.1610 C   0  0  0  0  0  0  0  0  0  0  0  0
   68.3777   51.3281   56.6132 C   0  0  0  0  0  0  0  0  0  0  0  0
   69.0752   50.1474   56.7021 C   0  0  0  0  0  0  0  0  0  0  0  0
   69.0341   52.4791   55.8974 C   0  0  0  0  0  0  0  0  0  0  0  0
   68.3947   52.7145   54.7103 F   0  0  0  0  0  0  0  0  0  0  0  0
   70.3636   52.1702   55.6795 F   0  0  0  0  0  0  0  0  0  0  0  0
   68.9542   53.5776   56.7286 F   0  0  0  0  0  0  0  0  0  0  0  0
  2  3  2  0
  3  4  1  0
  3 11  1  0
  4  5  1  0
  5  1  1  0
  5  6  2  0
  1 12  1  0
 12 13  1  0
 13 14  2  0
 13 18  1  0
 14 15  1  0
 15 16  2  0
 16 17  1  0
 17 19  1  0
 17 18  2  0
 19 20  1  0
 19 21  1  0
 19 22  1  0
  6  7  1  0
  7  8  1  0
  7 11  2  0
  8  9  1  0
  9 10  2  0
 10 11  1  0
M  END
>  <minimizedAffinity>  (468) 
-8.55392

$$$$
data/200k_reference_output/data/smiles/39580.pdb
     RDKit          3D

 27 29  0  0  0  0  0  0  0  0999 V2000
   72.1381   46.1027   58.5281 O   0  0  0  0  0  0  0  0  0  0  0  0
   70.9383   46.4754   58.5233 C   0  0  0  0  0  0  0  0  0  0  0  0
   69.8661   45.6022   58.8621 N   0  0  0  0  0  0  0  0  0  0  0  0
   70.1504   44.2882   59.1990 N   0  0  0  0  0  0  0  0  0  0  0  0
   70.0194   43.1944   58.3072 C   0  0  0  0  0  0  0  0  0  0  0  0
   69.6185   43.4562   57.1496 O   0  0  0  0  0  0  0  0  0  0  0  0
   70.3505   41.8268   58.7497 C   0  0  0  0  0  0  0  0  0  0  0  0
   71.0678   41.7253   59.7792 O   0  0  0  0  0  0  0  0  0  0  0  0
   69.9241   40.6557   58.1078 N   0  0  0  0  0  0  0  0  0  0  0  0
   70.2455   39.3447   58.5399 C   0  0  0  0  0  0  0  0  0  0  0  0
   71.3918   38.7068   58.1545 C   0  0  0  0  0  0  0  0  0  0  0  0
   71.7209   37.4098   58.5729 C   0  0  0  0  0  0  0  0  0  0  0  0
   70.8631   36.7302   59.4106 C   0  0  0  0  0  0  0  0  0  0  0  0
   69.7115   37.3705   59.7992 C   0  0  0  0  0  0  0  0  0  0  0  0
   69.3818   38.6476   59.3900 C   0  0  0  0  0  0  0  0  0  0  0  0
   70.5888   47.8888   58.1449 C   0  0  0  0  0  0  0  0  0  0  0  0
   69.3928   47.9134   57.4338 O   0  0  0  0  0  0  0  0  0  0  0  0
   69.2306   47.7895   56.0676 C   0  0  0  0  0  0  0  0  0  0  0  0
   69.7323   48.7243   55.1699 C   0  0  0  0  0  0  0  0  0  0  0  0
   69.5572   48.5737   53.8253 C   0  0  0  0  0  0  0  0  0  0  0  0
   68.8792   47.4966   53.2946 C   0  0  0  0  0  0  0  0  0  0  0  0
   68.7268   47.3761   51.9151 C   0  0  0  0  0  0  0  0  0  0  0  0
   68.0560   46.3026   51.3765 C   0  0  0  0  0  0  0  0  0  0  0  0
   67.5540   45.3670   52.2863 C   0  0  0  0  0  0  0  0  0  0  0  0
   67.7039   45.4827   53.6482 C   0  0  0  0  0  0  0  0  0  0  0  0
   68.3798   46.5682   54.1621 C   0  0  0  0  0  0  0  0  0  0  0  0
   68.5466   46.7022   55.5278 C   0  0  0  0  0  0  0  0  0  0  0  0
  1  2  2  0
  2 16  1  0
  2  3  1  0
 16 17  1  0
 17 18  1  0
 18 19  2  0
 18 27  1  0
 19 20  1  0
 20 21  2  0
 21 22  1  0
 21 26  1  0
 22 23  2  0
 23 24  1  0
 24 25  2  0
 25 26  1  0
 26 27  2  0
  3  4  1  0
  4  5  1  0
  5  6  2  0
  5  7  1  0
  7  8  2  0
  7  9  1  0
  9 10  1  0
 10 11  2  0
 10 15  1  0
 11 12  1  0
 12 13  2  0
 13 14  1  0
 14 15  2  0
M  END
>  <minimizedAffinity>  (469) 
-8.69290

$$$$
data/200k_reference_output/data/smiles/39583.pdb
     RDKit          3D

 33 37  0  0  0  0  0  0  0  0999 V2000
   71.5234   47.0190   58.8403 C   0  0  0  0  0  0  0  0  0  0  0  0
   70.7181   47.7930   58.0649 C   0  0  0  0  0  0  0  0  0  0  0  0
   69.7933   47.2540   57.1449 C   0  0  0  0  0  0  0  0  0  0  0  0
   69.7566   45.8953   57.0837 C   0  0  0  0  0  0  0  0  0  0  0  0
   70.5781   45.0842   57.8745 C   0  0  0  0  0  0  0  0  0  0  0  0
   71.4654   45.6452   58.7559 C   0  0  0  0  0  0  0  0  0  0  0  0
   72.2823   44.8682   59.5429 F   0  0  0  0  0  0  0  0  0  0  0  0
   72.0250   47.8144   60.9573 O   0  0  0  0  0  0  0  0  0  0  0  0
   72.4692   47.5748   59.7861 C   0  0  0  0  0  0  0  0  0  0  0  0
   73.8457   47.8545   59.4610 N   0  0  0  0  0  0  0  0  0  0  0  0
   74.5975   48.3690   60.5677 C   0  0  0  0  0  0  0  0  0  0  0  0
   75.3890   49.5979   60.2873 C   0  0  0  0  0  0  0  0  0  0  0  0
   74.6409   50.5482   59.3432 C   0  0  0  0  0  0  0  0  0  0  0  0
   74.4392   49.9867   58.0627 N   0  0  0  0  0  0  0  0  0  0  0  0
   73.6343   50.4914   57.0522 C   0  0  0  0  0  0  0  0  0  0  0  0
   73.5796   49.8254   55.9163 O   0  0  0  0  0  0  0  0  0  0  0  0
   75.1218   48.7274   57.6315 C   0  0  0  0  0  0  0  0  0  0  0  0
   74.2522   47.5931   58.1055 C   0  0  0  0  0  0  0  0  0  0  0  0
   72.8149   51.6895   57.0602 C   0  0  0  0  0  0  0  0  0  0  0  0
   71.9902   52.2252   58.1416 C   0  0  0  0  0  0  0  0  0  0  0  0
   71.2584   51.5290   57.0776 C   0  0  0  0  0  0  0  0  0  0  0  0
   68.9466   48.1857   56.3369 C   0  0  0  0  0  0  0  0  0  0  0  0
   69.3154   48.2768   54.9307 C   0  0  0  0  0  0  0  0  0  0  0  0
   70.2733   49.1890   54.5766 N   0  0  0  0  0  0  0  0  0  0  0  0
   70.7272   49.3216   53.3559 N   0  0  0  0  0  0  0  0  0  0  0  0
   70.2759   48.5594   52.3427 C   0  0  0  0  0  0  0  0  0  0  0  0
   70.7201   48.6962   51.1777 O   0  0  0  0  0  0  0  0  0  0  0  0
   69.3031   47.6025   52.5837 C   0  0  0  0  0  0  0  0  0  0  0  0
   68.8038   46.8174   51.5743 C   0  0  0  0  0  0  0  0  0  0  0  0
   67.8286   45.8974   51.8458 C   0  0  0  0  0  0  0  0  0  0  0  0
   67.3771   45.7968   53.1603 C   0  0  0  0  0  0  0  0  0  0  0  0
   67.8797   46.5855   54.1742 C   0  0  0  0  0  0  0  0  0  0  0  0
   68.8493   47.4960   53.8996 C   0  0  0  0  0  0  0  0  0  0  0  0
  8  9  2  0
  9  1  1  0
  9 10  1  0
  1  2  2  0
  1  6  1  0
  2  3  1  0
  3 22  1  0
  3  4  2  0
 22 23  1  0
 23 24  2  0
 23 33  1  0
 24 25  1  0
 25 26  1  0
 26 27  2  0
 26 28  1  0
 28 29  1  0
 28 33  2  0
 29 30  2  0
 30 31  1  0
 31 32  2  0
 32 33  1  0
  4  5  1  0
  5  6  2  0
  6  7  1  0
 10 11  1  0
 10 18  1  0
 11 12  1  0
 12 13  1  0
 13 14  1  0
 14 15  1  0
 14 17  1  0
 15 16  2  0
 15 19  1  0
 19 20  1  0
 19 21  1  0
 20 21  1  0
 17 18  1  0
M  END
>  <minimizedAffinity>  (470) 
-9.91872

$$$$
data/200k_reference_output/data/smiles/39644.pdb
     RDKit          3D

 32 35  0  0  0  0  0  0  0  0999 V2000
   68.8381   48.1932   55.4572 N   0  0  0  0  0  0  0  0  0  0  0  0
   69.5434   49.4365   55.2507 C   0  0  0  0  0  0  0  0  0  0  0  0
   69.8611   50.3024   56.0931 O   0  0  0  0  0  0  0  0  0  0  0  0
   69.8649   49.5656   53.8198 C   0  0  0  0  0  0  0  0  0  0  0  0
   70.4905   50.5403   53.2460 N   0  0  0  0  0  0  0  0  0  0  0  0
   69.3193   48.3525   53.2134 C   0  0  0  0  0  0  0  0  0  0  0  0
   69.3091   47.9061   51.9013 C   0  0  0  0  0  0  0  0  0  0  0  0
   68.7244   46.7028   51.5460 C   0  0  0  0  0  0  0  0  0  0  0  0
   68.1321   45.9162   52.5094 C   0  0  0  0  0  0  0  0  0  0  0  0
   68.1400   46.3600   53.8161 C   0  0  0  0  0  0  0  0  0  0  0  0
   68.7272   47.5707   54.1830 C   0  0  0  0  0  0  0  0  0  0  0  0
   70.9388   51.6320   54.0355 N   0  0  0  0  0  0  0  0  0  0  0  0
   72.2384   51.6863   54.5662 C   0  0  0  0  0  0  0  0  0  0  0  0
   72.9883   50.6952   54.2946 O   0  0  0  0  0  0  0  0  0  0  0  0
   72.8175   52.7223   55.3737 C   0  0  0  0  0  0  0  0  0  0  0  0
   72.6862   52.6656   56.7599 C   0  0  0  0  0  0  0  0  0  0  0  0
   73.2179   53.6291   57.5905 C   0  0  0  0  0  0  0  0  0  0  0  0
   73.9094   54.6965   57.0623 C   0  0  0  0  0  0  0  0  0  0  0  0
   74.0540   54.7803   55.7101 C   0  0  0  0  0  0  0  0  0  0  0  0
   73.5060   53.7923   54.8867 C   0  0  0  0  0  0  0  0  0  0  0  0
   73.7153   53.9805   53.5367 O   0  0  0  0  0  0  0  0  0  0  0  0
   68.3611   47.7269   56.7465 C   0  0  0  0  0  0  0  0  0  0  0  0
   69.3221   45.3864   56.9845 N   0  0  0  0  0  0  0  0  0  0  0  0
   69.3719   46.7489   57.3260 C   0  0  0  0  0  0  0  0  0  0  0  0
   70.2513   47.1620   58.1111 O   0  0  0  0  0  0  0  0  0  0  0  0
   72.6209   41.0341   58.7967 C   0  0  0  0  0  0  0  0  0  0  0  0
   71.7849   42.1756   58.3338 C   0  0  0  0  0  0  0  0  0  0  0  0
   72.2257   43.4741   58.4060 C   0  0  0  0  0  0  0  0  0  0  0  0
   71.4497   44.5615   57.9739 C   0  0  0  0  0  0  0  0  0  0  0  0
   70.1994   44.3814   57.4527 C   0  0  0  0  0  0  0  0  0  0  0  0
   69.7675   43.0456   57.3870 C   0  0  0  0  0  0  0  0  0  0  0  0
   70.5265   41.9837   57.8085 C   0  0  0  0  0  0  0  0  0  0  0  0
 26 27  1  0
 27 28  2  0
 27 32  1  0
 28 29  1  0
 29 30  2  0
 30 23  1  0
 30 31  1  0
 23 24  1  0
 24 25  2  0
 24 22  1  0
 22  1  1  0
  1  2  1  0
  1 11  1  0
  2  3  2  0
  2  4  1  0
  4  5  2  0
  4  6  1  0
  5 12  1  0
 12 13  1  0
 13 14  2  0
 13 15  1  0
 15 16  2  0
 15 20  1  0
 16 17  1  0
 17 18  2  0
 18 19  1  0
 19 20  2  0
 20 21  1  0
  6  7  1  0
  6 11  2  0
  7  8  2  0
  8  9  1  0
  9 10  2  0
 10 11  1  0
 31 32  2  0
M  END
>  <minimizedAffinity>  (471) 
-8.87831

$$$$
data/200k_reference_output/data/smiles/39862.pdb
     RDKit          3D

 23 25  0  0  0  0  0  0  0  0999 V2000
   68.8297   48.5024   56.2891 C   0  0  0  0  0  0  0  0  0  0  0  0
   69.2577   48.4493   54.9019 C   0  0  0  0  0  0  0  0  0  0  0  0
   70.1698   49.3773   54.4766 N   0  0  0  0  0  0  0  0  0  0  0  0
   70.6038   49.4701   53.2512 N   0  0  0  0  0  0  0  0  0  0  0  0
   70.1796   48.6418   52.2876 C   0  0  0  0  0  0  0  0  0  0  0  0
   70.6180   48.7521   51.0911 O   0  0  0  0  0  0  0  0  0  0  0  0
   69.2595   47.6700   52.6127 C   0  0  0  0  0  0  0  0  0  0  0  0
   68.8263   46.8046   51.6243 C   0  0  0  0  0  0  0  0  0  0  0  0
   67.9172   45.8439   52.0081 C   0  0  0  0  0  0  0  0  0  0  0  0
   67.4628   45.7465   53.3023 C   0  0  0  0  0  0  0  0  0  0  0  0
   67.8993   46.6124   54.2777 C   0  0  0  0  0  0  0  0  0  0  0  0
   68.8051   47.5859   53.9340 C   0  0  0  0  0  0  0  0  0  0  0  0
   70.8440   45.7868   58.0200 C   0  0  0  0  0  0  0  0  0  0  0  0
   71.7283   46.6154   58.7255 C   0  0  0  0  0  0  0  0  0  0  0  0
   71.6426   47.9794   58.6234 C   0  0  0  0  0  0  0  0  0  0  0  0
   70.6927   48.5605   57.8330 C   0  0  0  0  0  0  0  0  0  0  0  0
   69.8027   47.7465   57.1241 C   0  0  0  0  0  0  0  0  0  0  0  0
   69.9093   46.4046   57.2412 C   0  0  0  0  0  0  0  0  0  0  0  0
   70.2503   43.5506   59.0413 C   0  0  0  0  0  0  0  0  0  0  0  0
   69.3503   44.0150   59.7680 O   0  0  0  0  0  0  0  0  0  0  0  0
   70.9950   44.3847   58.1795 N   0  0  0  0  0  0  0  0  0  0  0  0
   71.5316   41.7383   58.0526 C   0  0  0  0  0  0  0  0  0  0  0  0
   70.5140   42.0777   59.1149 C   0  0  0  0  0  0  0  0  0  0  0  0
 22 23  1  0
 23 19  1  0
 19 20  2  0
 19 21  1  0
 21 13  1  0
 13 14  2  0
 13 18  1  0
 14 15  1  0
 15 16  2  0
 16 17  1  0
 17  1  1  0
 17 18  2  0
  1  2  1  0
  2  3  2  0
  2 12  1  0
  3  4  1  0
  4  5  1  0
  5  6  2  0
  5  7  1  0
  7  8  1  0
  7 12  2  0
  8  9  2  0
  9 10  1  0
 10 11  2  0
 11 12  1  0
M  END
>  <minimizedAffinity>  (472) 
-8.60633

$$$$
data/200k_reference_output/data/smiles/39879.pdb
     RDKit          3D

 20 23  0  0  0  0  0  0  0  0999 V2000
   69.3799   48.2680   55.9343 C   0  0  1  0  0  0  0  0  0  0  0  0
   69.5445   47.0474   56.7911 C   0  0  0  0  0  0  0  0  0  0  0  0
   68.8679   45.9546   56.0389 C   0  0  0  0  0  0  0  0  0  0  0  0
   68.4176   44.6907   56.0937 N   0  0  0  0  0  0  0  0  0  0  0  0
   67.8770   44.3355   54.9543 N   0  0  0  0  0  0  0  0  0  0  0  0
   67.9384   45.3609   54.0590 C   0  0  0  0  0  0  0  0  0  0  0  0
   68.5638   46.3817   54.7463 C   0  0  0  0  0  0  0  0  0  0  0  0
   69.0191   47.7770   54.5797 C   0  0  0  0  0  0  0  0  0  0  0  0
   69.9511   51.1692   55.1069 Cl  0  0  0  0  0  0  0  0  0  0  0  0
   68.7205   50.6609   56.2289 C   0  0  0  0  0  0  0  0  0  0  0  0
   67.9182   51.6343   56.8093 C   0  0  0  0  0  0  0  0  0  0  0  0
   66.9178   51.2831   57.7043 C   0  0  0  0  0  0  0  0  0  0  0  0
   66.7496   49.9689   57.9939 C   0  0  0  0  0  0  0  0  0  0  0  0
   67.5412   49.0260   57.4194 C   0  0  0  0  0  0  0  0  0  0  0  0
   68.5684   49.3253   56.5057 C   0  0  0  0  0  0  0  0  0  0  0  0
   67.4480   45.3575   52.6901 C   0  0  0  0  0  0  0  0  0  0  0  0
   67.6279   46.2993   51.7511 N   0  0  0  0  0  0  0  0  0  0  0  0
   67.0299   45.9366   50.6282 N   0  0  0  0  0  0  0  0  0  0  0  0
   66.4614   44.7646   50.8303 N   0  0  0  0  0  0  0  0  0  0  0  0
   66.7189   44.4119   52.0914 N   0  0  0  0  0  0  0  0  0  0  0  0
  9 10  1  0
 10 11  2  0
 10 15  1  0
 11 12  1  0
 12 13  2  0
 13 14  1  0
 14 15  2  0
  1 15  1  1
  1  2  1  0
  1  8  1  0
  2  3  1  0
  3  4  1  0
  3  7  2  0
  4  5  1  0
  5  6  2  0
  6 16  1  0
  6  7  1  0
 16 17  2  0
 16 20  1  0
 17 18  1  0
 18 19  2  0
 19 20  1  0
  7  8  1  0
M  END
>  <minimizedAffinity>  (473) 
-8.53412

$$$$
data/200k_reference_output/data/smiles/39908.pdb
     RDKit          3D

 20 22  0  0  0  0  0  0  0  0999 V2000
   68.1068   46.3589   55.1691 N   0  0  0  0  0  0  0  0  0  0  0  0
   68.1461   46.5123   53.7562 C   0  0  0  0  0  0  0  0  0  0  0  0
   67.3650   45.7832   52.9276 N   0  0  0  0  0  0  0  0  0  0  0  0
   67.4227   45.9492   51.5950 C   0  0  0  0  0  0  0  0  0  0  0  0
   66.6755   45.2451   50.8710 O   0  0  0  0  0  0  0  0  0  0  0  0
   68.2346   46.8266   50.9837 N   0  0  0  0  0  0  0  0  0  0  0  0
   69.0311   47.5732   51.7756 C   0  0  0  0  0  0  0  0  0  0  0  0
   69.9501   48.5352   51.4770 N   0  0  0  0  0  0  0  0  0  0  0  0
   70.4614   48.9645   52.6165 N   0  0  0  0  0  0  0  0  0  0  0  0
   69.9102   48.3192   53.6591 C   0  0  0  0  0  0  0  0  0  0  0  0
   68.9884   47.4210   53.1451 C   0  0  0  0  0  0  0  0  0  0  0  0
   69.0403   44.4916   56.2745 C   0  0  0  0  0  0  0  0  0  0  0  0
   68.0600   45.0612   55.6863 N   0  0  0  0  0  0  0  0  0  0  0  0
   68.7128   39.1179   58.3580 C   0  0  0  0  0  0  0  0  0  0  0  0
   68.8045   40.5163   57.8205 C   0  0  0  0  0  0  0  0  0  0  0  0
   67.8364   41.0197   56.9746 C   0  0  0  0  0  0  0  0  0  0  0  0
   67.8960   42.3152   56.4601 C   0  0  0  0  0  0  0  0  0  0  0  0
   68.9590   43.1219   56.8077 C   0  0  0  0  0  0  0  0  0  0  0  0
   69.9146   42.6099   57.6480 C   0  0  0  0  0  0  0  0  0  0  0  0
   69.8647   41.3305   58.1621 C   0  0  0  0  0  0  0  0  0  0  0  0
 14 15  1  0
 15 16  2  0
 15 20  1  0
 16 17  1  0
 17 18  2  0
 18 12  1  0
 18 19  1  0
 12 13  2  0
 13  1  1  0
  1  2  1  0
  2  3  2  0
  2 11  1  0
  3  4  1  0
  4  5  2  0
  4  6  1  0
  6  7  1  0
  7  8  1  0
  7 11  2  0
  8  9  1  0
  9 10  2  0
 10 11  1  0
 19 20  2  0
M  END
>  <minimizedAffinity>  (474) 
-8.59977

$$$$
data/200k_reference_output/data/smiles/40055.pdb
     RDKit          3D

 26 29  0  0  0  0  0  0  0  0999 V2000
   69.0616   39.3806   57.9317 C   0  0  0  0  0  0  0  0  0  0  0  0
   67.8755   39.1575   57.2987 N   0  0  0  0  0  0  0  0  0  0  0  0
   67.4239   40.2691   56.7624 N   0  0  0  0  0  0  0  0  0  0  0  0
   68.2648   41.2948   56.9982 C   0  0  0  0  0  0  0  0  0  0  0  0
   68.2772   42.6402   56.6731 C   0  0  0  0  0  0  0  0  0  0  0  0
   69.3095   43.4623   57.0693 C   0  0  0  0  0  0  0  0  0  0  0  0
   70.2959   42.8920   57.7826 N   0  0  0  0  0  0  0  0  0  0  0  0
   70.3106   41.5757   58.1157 C   0  0  0  0  0  0  0  0  0  0  0  0
   69.2966   40.7278   57.7365 C   0  0  0  0  0  0  0  0  0  0  0  0
   73.2551   36.7144   58.4351 C   0  0  0  0  0  0  0  0  0  0  0  0
   71.9086   37.1372   58.8699 C   0  0  0  0  0  0  0  0  0  0  0  0
   71.1303   38.0664   58.1814 C   0  0  0  0  0  0  0  0  0  0  0  0
   69.8832   38.4144   58.6448 C   0  0  0  0  0  0  0  0  0  0  0  0
   69.4442   37.8132   59.8021 C   0  0  0  0  0  0  0  0  0  0  0  0
   70.2057   36.8900   60.4955 C   0  0  0  0  0  0  0  0  0  0  0  0
   71.4112   36.5932   59.9934 N   0  0  0  0  0  0  0  0  0  0  0  0
   69.3290   44.8568   56.7370 N   0  0  0  0  0  0  0  0  0  0  0  0
   68.6884   45.3623   55.5840 C   0  0  0  0  0  0  0  0  0  0  0  0
   68.0923   44.5359   54.8463 O   0  0  0  0  0  0  0  0  0  0  0  0
   68.6958   46.7450   55.2343 N   0  0  0  0  0  0  0  0  0  0  0  0
   68.0432   47.2668   54.0567 C   0  0  0  0  0  0  0  0  0  0  0  0
   69.0140   47.6487   52.9975 C   0  0  0  0  0  0  0  0  0  0  0  0
   69.2531   46.9365   51.8439 C   0  0  0  0  0  0  0  0  0  0  0  0
   70.1906   47.6154   51.1647 N   0  0  0  0  0  0  0  0  0  0  0  0
   70.5441   48.6973   51.8226 N   0  0  0  0  0  0  0  0  0  0  0  0
   69.8367   48.7436   52.9539 C   0  0  0  0  0  0  0  0  0  0  0  0
 10 11  1  0
 11 12  2  0
 11 16  1  0
 12 13  1  0
 13  1  1  0
 13 14  2  0
  1  2  2  0
  1  9  1  0
  2  3  1  0
  3  4  1  0
  4  5  1  0
  4  9  2  0
  5  6  2  0
  6 17  1  0
  6  7  1  0
 17 18  1  0
 18 19  2  0
 18 20  1  0
 20 21  1  0
 21 22  1  0
 22 23  1  0
 22 26  2  0
 23 24  2  0
 24 25  1  0
 25 26  1  0
  7  8  2  0
  8  9  1  0
 14 15  1  0
 15 16  2  0
M  END
>  <minimizedAffinity>  (475) 
-8.85779

$$$$
data/200k_reference_output/data/smiles/40521.pdb
     RDKit          3D

 24 26  0  0  0  0  0  0  0  0999 V2000
   69.6636   51.2306   54.3878 C   0  0  0  0  0  0  0  0  0  0  0  0
   68.4862   51.0475   55.1187 C   0  0  0  0  0  0  0  0  0  0  0  0
   68.3941   51.4081   56.4198 C   0  0  0  0  0  0  0  0  0  0  0  0
   66.9119   51.1721   57.3196 Cl  0  0  0  0  0  0  0  0  0  0  0  0
   69.4892   51.9665   57.0303 C   0  0  0  0  0  0  0  0  0  0  0  0
   70.6328   52.1411   56.3072 C   0  0  0  0  0  0  0  0  0  0  0  0
   70.7706   51.7809   54.9543 C   0  0  0  0  0  0  0  0  0  0  0  0
   69.6944   50.8031   53.0347 N   0  0  0  0  0  0  0  0  0  0  0  0
   70.1114   49.1580   51.0163 O   0  0  0  0  0  0  0  0  0  0  0  0
   70.1675   49.2574   52.5192 S   0  0  0  0  0  0  0  0  0  0  0  0
   71.6363   49.0528   52.8667 O   0  0  0  0  0  0  0  0  0  0  0  0
   69.2648   47.9541   53.1808 C   0  0  0  0  0  0  0  0  0  0  0  0
   69.1135   47.6926   54.5122 C   0  0  0  0  0  0  0  0  0  0  0  0
   68.3812   46.6326   54.9949 C   0  0  0  0  0  0  0  0  0  0  0  0
   67.7791   45.8065   54.0892 C   0  0  0  0  0  0  0  0  0  0  0  0
   67.8919   46.0135   52.7334 C   0  0  0  0  0  0  0  0  0  0  0  0
   67.2804   45.1725   51.8366 F   0  0  0  0  0  0  0  0  0  0  0  0
   68.6379   47.0913   52.2979 C   0  0  0  0  0  0  0  0  0  0  0  0
   72.0670   52.0796   54.3720 C   0  0  0  0  0  0  0  0  0  0  0  0
   73.1979   51.3031   54.6468 N   0  0  0  0  0  0  0  0  0  0  0  0
   73.7572   51.0875   55.8687 C   0  0  0  0  0  0  0  0  0  0  0  0
   74.8259   50.2359   55.7272 C   0  0  0  0  0  0  0  0  0  0  0  0
   74.8968   49.9500   54.4164 N   0  0  0  0  0  0  0  0  0  0  0  0
   73.9275   50.5881   53.7922 N   0  0  0  0  0  0  0  0  0  0  0  0
  9 10  2  0
 10 11  2  0
 10  8  1  0
 10 12  1  0
  8  1  1  0
  1  2  2  0
  1  7  1  0
  2  3  1  0
  3  4  1  0
  3  5  2  0
  5  6  1  0
  6  7  2  0
  7 19  1  0
 19 20  1  0
 20 21  1  0
 20 24  1  0
 21 22  2  0
 22 23  1  0
 23 24  2  0
 12 13  2  0
 12 18  1  0
 13 14  1  0
 14 15  2  0
 15 16  1  0
 16 17  1  0
 16 18  2  0
M  END
>  <minimizedAffinity>  (476) 
-9.59811

$$$$
data/200k_reference_output/data/smiles/40531.pdb
     RDKit          3D

 28 30  0  0  0  0  0  0  0  0999 V2000
   70.5871   44.0076   58.3397 O   0  0  0  0  0  0  0  0  0  0  0  0
   69.6330   43.9048   57.5010 C   0  0  0  0  0  0  0  0  0  0  0  0
   69.2174   45.1126   56.8949 N   0  0  0  0  0  0  0  0  0  0  0  0
   69.0742   42.5916   57.2510 C   0  0  0  0  0  0  0  0  0  0  0  0
   68.1029   42.3976   56.2894 C   0  0  0  0  0  0  0  0  0  0  0  0
   67.5574   41.1538   56.0365 C   0  0  0  0  0  0  0  0  0  0  0  0
   66.6091   41.0229   55.0814 F   0  0  0  0  0  0  0  0  0  0  0  0
   67.9793   40.0557   56.7538 C   0  0  0  0  0  0  0  0  0  0  0  0
   68.9487   40.2147   57.7224 C   0  0  0  0  0  0  0  0  0  0  0  0
   69.4709   41.4771   57.9474 C   0  0  0  0  0  0  0  0  0  0  0  0
   69.4260   39.0874   58.5057 C   0  0  0  0  0  0  0  0  0  0  0  0
   70.6664   38.5432   58.2828 C   0  0  0  0  0  0  0  0  0  0  0  0
   71.1199   37.4605   59.0379 C   0  0  0  0  0  0  0  0  0  0  0  0
   70.2995   36.9421   60.0178 C   0  0  0  0  0  0  0  0  0  0  0  0
   69.0765   37.5001   60.2168 C   0  0  0  0  0  0  0  0  0  0  0  0
   68.6624   38.5499   59.4689 N   0  0  0  0  0  0  0  0  0  0  0  0
   67.4089   39.0421   59.7492 O   0  0  0  0  0  0  0  0  0  0  0  0
   69.7750   46.3556   57.1576 N   0  0  0  0  0  0  0  0  0  0  0  0
   68.8333   47.5624   56.3770 S   0  0  0  0  0  0  0  0  0  0  0  0
   69.2259   48.9369   56.7583 O   0  0  0  0  0  0  0  0  0  0  0  0
   67.3883   47.3726   56.7860 O   0  0  0  0  0  0  0  0  0  0  0  0
   68.9019   47.3931   54.6270 C   0  0  0  0  0  0  0  0  0  0  0  0
   69.5310   48.3253   53.8261 C   0  0  0  0  0  0  0  0  0  0  0  0
   69.5822   48.1886   52.4562 C   0  0  0  0  0  0  0  0  0  0  0  0
   69.0038   47.1071   51.8250 C   0  0  0  0  0  0  0  0  0  0  0  0
   68.3712   46.1660   52.6100 C   0  0  0  0  0  0  0  0  0  0  0  0
   68.3240   46.3118   53.9927 C   0  0  0  0  0  0  0  0  0  0  0  0
   67.7028   45.3887   54.7681 F   0  0  0  0  0  0  0  0  0  0  0  0
  1  2  2  0
  2  3  1  0
  2  4  1  0
  3 18  1  0
 18 19  1  0
 19 20  2  0
 19 21  2  0
 19 22  1  0
 22 23  2  0
 22 27  1  0
 23 24  1  0
 24 25  2  0
 25 26  1  0
 26 27  2  0
 27 28  1  0
  4  5  2  0
  4 10  1  0
  5  6  1  0
  6  7  1  0
  6  8  2  0
  8  9  1  0
  9 11  1  0
  9 10  2  0
 11 12  2  0
 11 16  1  0
 12 13  1  0
 13 14  2  0
 14 15  1  0
 15 16  2  0
 16 17  1  0
M  CHG  2  16   1  17  -1
M  END
>  <minimizedAffinity>  (477) 
-9.27243

$$$$
data/200k_reference_output/data/smiles/40584.pdb
     RDKit          3D

 26 28  0  0  0  0  0  0  0  0999 V2000
   70.7395   45.0745   58.0292 C   0  0  0  0  0  0  0  0  0  0  0  0
   71.3673   46.1986   58.4857 C   0  0  0  0  0  0  0  0  0  0  0  0
   70.9204   47.4774   58.1906 C   0  0  0  0  0  0  0  0  0  0  0  0
   69.8170   47.5727   57.4168 N   0  0  0  0  0  0  0  0  0  0  0  0
   69.1724   46.4777   56.9500 C   0  0  0  0  0  0  0  0  0  0  0  0
   69.6425   45.2555   57.2630 N   0  0  0  0  0  0  0  0  0  0  0  0
   72.0067   41.0270   58.7326 C   0  0  0  0  0  0  0  0  0  0  0  0
   70.9208   41.5597   59.3868 C   0  0  0  0  0  0  0  0  0  0  0  0
   70.5320   42.8741   59.1526 C   0  0  0  0  0  0  0  0  0  0  0  0
   71.1939   43.7020   58.2717 C   0  0  0  0  0  0  0  0  0  0  0  0
   72.2814   43.1695   57.6181 C   0  0  0  0  0  0  0  0  0  0  0  0
   72.6782   41.8470   57.8514 C   0  0  0  0  0  0  0  0  0  0  0  0
   72.0347   37.1526   58.6933 C   0  0  0  0  0  0  0  0  0  0  0  0
   71.6490   38.5711   58.5081 C   0  0  0  0  0  0  0  0  0  0  0  0
   70.5608   38.8245   57.9284 O   0  0  0  0  0  0  0  0  0  0  0  0
   72.4199   39.6656   58.9355 N   0  0  0  0  0  0  0  0  0  0  0  0
   68.0503   46.6853   56.1070 N   0  0  0  0  0  0  0  0  0  0  0  0
   68.2734   46.7503   54.7014 C   0  0  0  0  0  0  0  0  0  0  0  0
   67.7202   45.8041   53.8442 C   0  0  0  0  0  0  0  0  0  0  0  0
   67.9660   45.8375   52.4871 C   0  0  0  0  0  0  0  0  0  0  0  0
   68.7680   46.8066   51.9262 C   0  0  0  0  0  0  0  0  0  0  0  0
   69.3292   47.7548   52.7461 C   0  0  0  0  0  0  0  0  0  0  0  0
   69.0731   47.7113   54.1194 C   0  0  0  0  0  0  0  0  0  0  0  0
   70.2038   48.8100   52.2288 C   0  0  0  0  0  0  0  0  0  0  0  0
   69.8281   49.5716   51.1055 N   0  0  0  0  0  0  0  0  0  0  0  0
   71.3155   49.0346   52.8068 O   0  0  0  0  0  0  0  0  0  0  0  0
 13 14  1  0
 14 15  2  0
 14 16  1  0
 16  7  1  0
  7  8  2  0
  7 12  1  0
  8  9  1  0
  9 10  2  0
 10  1  1  0
 10 11  1  0
  1  2  2  0
  1  6  1  0
  2  3  1  0
  3  4  2  0
  4  5  1  0
  5 17  1  0
  5  6  2  0
 17 18  1  0
 18 19  2  0
 18 23  1  0
 19 20  1  0
 20 21  2  0
 21 22  1  0
 22 24  1  0
 22 23  2  0
 24 25  1  0
 24 26  2  0
 11 12  2  0
M  END
>  <minimizedAffinity>  (478) 
-9.52137

$$$$
data/200k_reference_output/data/smiles/40678.pdb
     RDKit          3D

 26 28  0  0  0  0  0  0  0  0999 V2000
   69.2528   43.3642   57.5281 N   0  0  0  0  0  0  0  0  0  0  0  0
   68.4301   42.2602   57.1814 C   0  0  0  0  0  0  0  0  0  0  0  0
   67.7103   42.4191   56.1549 O   0  0  0  0  0  0  0  0  0  0  0  0
   68.3771   41.0037   57.9218 C   0  0  0  0  0  0  0  0  0  0  0  0
   67.2391   40.7035   58.6410 C   0  0  0  0  0  0  0  0  0  0  0  0
   67.0921   39.5466   59.3700 C   0  0  0  0  0  0  0  0  0  0  0  0
   68.1741   38.6687   59.3492 C   0  0  0  0  0  0  0  0  0  0  0  0
   69.3245   38.9104   58.6581 C   0  0  0  0  0  0  0  0  0  0  0  0
   69.4141   40.1024   57.9368 C   0  0  0  0  0  0  0  0  0  0  0  0
   70.4224   38.0077   58.6433 N   0  0  0  0  0  0  0  0  0  0  0  0
   70.4970   36.8768   59.3737 C   0  0  0  0  0  0  0  0  0  0  0  0
   71.6719   36.2197   59.1481 C   0  0  0  0  0  0  0  0  0  0  0  0
   72.3688   36.9693   58.2342 C   0  0  0  0  0  0  0  0  0  0  0  0
   71.5618   38.0733   57.9446 C   0  0  0  0  0  0  0  0  0  0  0  0
   69.8062   45.6911   58.7081 O   0  0  0  0  0  0  0  0  0  0  0  0
   69.5773   45.7577   57.4848 C   0  0  0  0  0  0  0  0  0  0  0  0
   69.2749   44.5546   56.7907 N   0  0  0  0  0  0  0  0  0  0  0  0
   69.6291   47.0794   56.8060 C   0  0  0  0  0  0  0  0  0  0  0  0
   68.5330   47.2312   55.9397 O   0  0  0  0  0  0  0  0  0  0  0  0
   68.5305   47.0467   54.5758 C   0  0  0  0  0  0  0  0  0  0  0  0
   69.2634   47.9368   53.8173 C   0  0  0  0  0  0  0  0  0  0  0  0
   69.3231   47.8319   52.4453 C   0  0  0  0  0  0  0  0  0  0  0  0
   68.6241   46.8067   51.8477 C   0  0  0  0  0  0  0  0  0  0  0  0
   67.8753   45.8888   52.5552 C   0  0  0  0  0  0  0  0  0  0  0  0
   67.1936   44.8824   51.9317 F   0  0  0  0  0  0  0  0  0  0  0  0
   67.8452   46.0345   53.9423 C   0  0  0  0  0  0  0  0  0  0  0  0
 15 16  2  0
 16 18  1  0
 16 17  1  0
 18 19  1  0
 19 20  1  0
 20 21  2  0
 20 26  1  0
 21 22  1  0
 22 23  2  0
 23 24  1  0
 24 25  1  0
 24 26  2  0
 17  1  1  0
  1  2  1  0
  2  3  2  0
  2  4  1  0
  4  5  2  0
  4  9  1  0
  5  6  1  0
  6  7  2  0
  7  8  1  0
  8 10  1  0
  8  9  2  0
 10 11  1  0
 10 14  1  0
 11 12  2  0
 12 13  1  0
 13 14  2  0
M  END
>  <minimizedAffinity>  (479) 
-9.04842

$$$$
data/200k_reference_output/data/smiles/40681.pdb
     RDKit          3D

 21 23  0  0  0  0  0  0  0  0999 V2000
   70.0890   48.6388   55.0305 C   0  0  0  0  0  0  0  0  0  0  0  0
   70.8955   49.4869   54.3784 N   0  0  0  0  0  0  0  0  0  0  0  0
   71.0063   49.5106   53.0476 N   0  0  0  0  0  0  0  0  0  0  0  0
   70.3100   48.6791   52.2678 C   0  0  0  0  0  0  0  0  0  0  0  0
   70.4038   48.6905   51.0061 O   0  0  0  0  0  0  0  0  0  0  0  0
   69.4447   47.7612   52.8524 C   0  0  0  0  0  0  0  0  0  0  0  0
   68.7046   46.8800   52.0929 C   0  0  0  0  0  0  0  0  0  0  0  0
   67.8650   45.9900   52.7181 C   0  0  0  0  0  0  0  0  0  0  0  0
   67.7806   45.9985   54.1039 C   0  0  0  0  0  0  0  0  0  0  0  0
   68.5292   46.8891   54.8451 C   0  0  0  0  0  0  0  0  0  0  0  0
   69.3565   47.7646   54.2166 C   0  0  0  0  0  0  0  0  0  0  0  0
   70.0329   48.6374   56.4688 C   0  0  0  0  0  0  0  0  0  0  0  0
   68.6599   50.6575   56.9304 C   0  0  0  0  0  0  0  0  0  0  0  0
   67.4768   51.2842   57.3722 C   0  0  0  0  0  0  0  0  0  0  0  0
   66.4281   50.5276   57.7948 C   0  0  0  0  0  0  0  0  0  0  0  0
   66.5492   49.1548   57.7810 C   0  0  0  0  0  0  0  0  0  0  0  0
   67.6999   48.5402   57.3507 C   0  0  0  0  0  0  0  0  0  0  0  0
   68.7791   49.2968   56.9173 C   0  0  0  0  0  0  0  0  0  0  0  0
   70.9352   51.6856   57.1693 C   0  0  0  0  0  0  0  0  0  0  0  0
   69.6885   51.5194   56.4927 N   0  0  0  0  0  0  0  0  0  0  0  0
   69.4722   52.2959   55.2520 C   0  0  0  0  0  0  0  0  0  0  0  0
 19 20  1  0
 20 21  1  0
 20 13  1  0
 13 14  2  0
 13 18  1  0
 14 15  1  0
 15 16  2  0
 16 17  1  0
 17 18  2  0
 18 12  1  0
 12  1  1  0
  1  2  2  0
  1 11  1  0
  2  3  1  0
  3  4  1  0
  4  5  2  0
  4  6  1  0
  6  7  1  0
  6 11  2  0
  7  8  2  0
  8  9  1  0
  9 10  2  0
 10 11  1  0
M  END
>  <minimizedAffinity>  (480) 
-8.54678

$$$$
data/200k_reference_output/data/smiles/40873.pdb
     RDKit          3D

 33 36  0  0  0  0  0  0  0  0999 V2000
   65.5944   39.9392   60.7686 C   0  0  0  0  0  0  0  0  0  0  0  0
   66.4474   40.4380   59.8766 C   0  0  0  0  0  0  0  0  0  0  0  0
   67.0730   39.6120   59.0188 N   0  0  0  0  0  0  0  0  0  0  0  0
   67.9372   40.1207   58.1147 C   0  0  0  0  0  0  0  0  0  0  0  0
   68.5196   39.3487   57.3155 O   0  0  0  0  0  0  0  0  0  0  0  0
   68.2070   41.4742   58.0394 C   0  0  0  0  0  0  0  0  0  0  0  0
   69.0499   41.9958   57.1624 C   0  0  0  0  0  0  0  0  0  0  0  0
   67.5856   42.3083   58.8944 N   0  0  0  0  0  0  0  0  0  0  0  0
   66.7258   41.7853   59.7899 C   0  0  0  0  0  0  0  0  0  0  0  0
   66.1367   42.5512   60.5959 O   0  0  0  0  0  0  0  0  0  0  0  0
   69.3301   43.4310   57.0872 C   0  0  0  0  0  0  0  0  0  0  0  0
   70.4365   43.9132   57.7896 C   0  0  0  0  0  0  0  0  0  0  0  0
   70.7685   45.2474   57.7709 C   0  0  0  0  0  0  0  0  0  0  0  0
   69.9813   46.1039   57.0391 C   0  0  0  0  0  0  0  0  0  0  0  0
   68.8802   45.6583   56.3334 C   0  0  0  0  0  0  0  0  0  0  0  0
   68.5814   44.3123   56.3781 C   0  0  0  0  0  0  0  0  0  0  0  0
   68.1290   46.5777   55.6149 O   0  0  0  0  0  0  0  0  0  0  0  0
   68.3544   46.6597   54.2384 C   0  0  0  0  0  0  0  0  0  0  0  0
   67.6702   45.8203   53.3774 C   0  0  0  0  0  0  0  0  0  0  0  0
   67.8948   45.9026   52.0110 C   0  0  0  0  0  0  0  0  0  0  0  0
   68.7879   46.8040   51.4811 C   0  0  0  0  0  0  0  0  0  0  0  0
   69.4726   47.6425   52.3328 C   0  0  0  0  0  0  0  0  0  0  0  0
   70.3523   48.5307   51.8109 F   0  0  0  0  0  0  0  0  0  0  0  0
   69.2426   47.5534   53.6812 C   0  0  0  0  0  0  0  0  0  0  0  0
   65.8564   37.6756   61.8042 C   0  0  0  0  0  0  0  0  0  0  0  0
   65.3519   36.4208   61.5976 N   0  0  0  0  0  0  0  0  0  0  0  0
   64.5097   36.4721   60.5670 C   0  0  0  0  0  0  0  0  0  0  0  0
   64.4844   37.7352   60.1343 N   0  0  0  0  0  0  0  0  0  0  0  0
   65.2985   38.5181   60.8643 C   0  0  0  0  0  0  0  0  0  0  0  0
   66.8024   36.9963   63.9608 C   0  0  0  0  0  0  0  0  0  0  0  0
   66.8206   38.0303   62.8517 C   0  0  0  0  0  0  0  0  0  0  0  0
   68.2574   38.0165   62.3084 C   0  0  0  0  0  0  0  0  0  0  0  0
   66.5847   39.3741   63.4691 C   0  0  0  0  0  0  0  0  0  0  0  0
 30 31  1  0
 31 32  1  0
 31 33  1  0
 31 25  1  0
 25 26  1  0
 25 29  2  0
 26 27  1  0
 27 28  2  0
 28 29  1  0
 29  1  1  0
  1  2  2  0
  2  3  1  0
  2  9  1  0
  3  4  1  0
  4  5  2  0
  4  6  1  0
  6  7  2  0
  6  8  1  0
  7 11  1  0
 11 12  2  0
 11 16  1  0
 12 13  1  0
 13 14  2  0
 14 15  1  0
 15 17  1  0
 15 16  2  0
 17 18  1  0
 18 19  2  0
 18 24  1  0
 19 20  1  0
 20 21  2  0
 21 22  1  0
 22 23  1  0
 22 24  2  0
  8  9  1  0
  9 10  2  0
M  CHG  1  28   1
M  END
>  <minimizedAffinity>  (481) 
-9.16871

$$$$
data/200k_reference_output/data/smiles/40919.pdb
     RDKit          3D

 23 25  0  0  0  0  0  0  0  0999 V2000
   68.5728   46.2087   56.3323 O   0  0  0  0  0  0  0  0  0  0  0  0
   69.0038   47.5968   52.9691 C   0  0  0  0  0  0  0  0  0  0  0  0
   68.3404   46.6403   52.2298 C   0  0  0  0  0  0  0  0  0  0  0  0
   68.2418   46.7451   50.8829 F   0  0  0  0  0  0  0  0  0  0  0  0
   67.7487   45.5347   52.8293 C   0  0  0  0  0  0  0  0  0  0  0  0
   67.8215   45.3787   54.2205 C   0  0  0  0  0  0  0  0  0  0  0  0
   68.4812   46.3298   54.9628 C   0  0  0  0  0  0  0  0  0  0  0  0
   69.0474   47.3970   54.3369 C   0  0  0  0  0  0  0  0  0  0  0  0
   69.6924   48.3221   55.0825 F   0  0  0  0  0  0  0  0  0  0  0  0
   70.5285   48.5896   51.2675 N   0  0  0  0  0  0  0  0  0  0  0  0
   69.6253   48.7576   52.3433 C   0  0  0  0  0  0  0  0  0  0  0  0
   69.3529   49.9062   52.7644 O   0  0  0  0  0  0  0  0  0  0  0  0
   69.6961   45.7136   57.0085 C   0  0  0  0  0  0  0  0  0  0  0  0
   69.5879   44.2483   57.2703 C   0  0  0  0  0  0  0  0  0  0  0  0
   68.8912   43.3520   57.2070 N   0  0  0  0  0  0  0  0  0  0  0  0
   69.0629   42.0839   57.5235 C   0  0  0  0  0  0  0  0  0  0  0  0
   68.1766   41.0024   57.4317 C   0  0  0  0  0  0  0  0  0  0  0  0
   68.5826   39.7548   57.8265 C   0  0  0  0  0  0  0  0  0  0  0  0
   67.6673   38.6463   57.7301 N   0  0  0  0  0  0  0  0  0  0  0  0
   69.8326   39.4585   58.3248 C   0  0  0  0  0  0  0  0  0  0  0  0
   70.7130   40.5227   58.4191 C   0  0  0  0  0  0  0  0  0  0  0  0
   70.2972   41.7962   58.0151 C   0  0  0  0  0  0  0  0  0  0  0  0
   71.1459   43.3775   57.9934 S   0  0  0  0  0  0  0  0  0  0  0  0
 10 11  1  0
 11 12  2  0
 11  2  1  0
  2  3  2  0
  2  8  1  0
  3  4  1  0
  3  5  1  0
  5  6  2  0
  6  7  1  0
  7  1  1  0
  7  8  2  0
  1 13  1  0
 13 14  1  0
 14 15  2  0
 14 23  1  0
 15 16  1  0
 16 17  2  0
 16 22  1  0
 17 18  1  0
 18 19  1  0
 18 20  2  0
 20 21  1  0
 21 22  2  0
 22 23  1  0
  8  9  1  0
M  END
>  <minimizedAffinity>  (482) 
-8.50254

$$$$
data/200k_reference_output/data/smiles/40950.pdb
     RDKit          3D

 26 28  0  0  0  0  0  0  0  0999 V2000
   70.4885   47.0064   56.9057 N   0  0  0  0  0  0  0  0  0  0  0  0
   69.2722   47.3309   56.1973 C   0  0  0  0  0  0  0  0  0  0  0  0
   68.1441   47.1650   56.7311 O   0  0  0  0  0  0  0  0  0  0  0  0
   69.3076   47.8588   54.8442 C   0  0  0  0  0  0  0  0  0  0  0  0
   69.8911   49.0952   54.5876 C   0  0  0  0  0  0  0  0  0  0  0  0
   69.9259   49.5974   53.3120 C   0  0  0  0  0  0  0  0  0  0  0  0
   70.4411   50.7079   53.0292 O   0  0  0  0  0  0  0  0  0  0  0  0
   69.3849   48.8661   52.3333 N   0  0  0  0  0  0  0  0  0  0  0  0
   68.8105   47.6592   52.5548 C   0  0  0  0  0  0  0  0  0  0  0  0
   68.2717   46.9514   51.5217 C   0  0  0  0  0  0  0  0  0  0  0  0
   67.6881   45.7213   51.7612 C   0  0  0  0  0  0  0  0  0  0  0  0
   67.6394   45.1964   53.0194 C   0  0  0  0  0  0  0  0  0  0  0  0
   68.1750   45.8958   54.0619 C   0  0  0  0  0  0  0  0  0  0  0  0
   68.7574   47.1189   53.8319 C   0  0  0  0  0  0  0  0  0  0  0  0
   70.3300   46.4989   58.2183 C   0  0  0  0  0  0  0  0  0  0  0  0
   69.9669   44.6168   59.4980 O   0  0  0  0  0  0  0  0  0  0  0  0
   69.9415   45.0820   58.3336 C   0  0  0  0  0  0  0  0  0  0  0  0
   69.5595   44.2399   57.2898 N   0  0  0  0  0  0  0  0  0  0  0  0
   69.1783   42.8835   57.3303 C   0  0  0  0  0  0  0  0  0  0  0  0
   69.6138   41.9586   58.2380 C   0  0  0  0  0  0  0  0  0  0  0  0
   69.1977   40.6135   58.2288 C   0  0  0  0  0  0  0  0  0  0  0  0
   68.3122   40.1655   57.2812 C   0  0  0  0  0  0  0  0  0  0  0  0
   67.8951   38.8749   57.2513 F   0  0  0  0  0  0  0  0  0  0  0  0
   67.8706   41.0932   56.3662 C   0  0  0  0  0  0  0  0  0  0  0  0
   66.9887   40.6544   55.4177 F   0  0  0  0  0  0  0  0  0  0  0  0
   68.2730   42.4040   56.3700 C   0  0  0  0  0  0  0  0  0  0  0  0
 16 17  2  0
 17 15  1  0
 17 18  1  0
 15  1  1  0
  1  2  1  0
  2  3  2  0
  2  4  1  0
  4  5  2  0
  4 14  1  0
  5  6  1  0
  6  7  2  0
  6  8  1  0
  8  9  1  0
  9 10  1  0
  9 14  2  0
 10 11  2  0
 11 12  1  0
 12 13  2  0
 13 14  1  0
 18 19  1  0
 19 20  2  0
 19 26  1  0
 20 21  1  0
 21 22  2  0
 22 23  1  0
 22 24  1  0
 24 25  1  0
 24 26  2  0
M  END
>  <minimizedAffinity>  (483) 
-8.74222

$$$$
data/200k_reference_output/data/smiles/40967.pdb
     RDKit          3D

 27 29  0  0  0  0  0  0  0  0999 V2000
   70.2405   43.4393   57.7850 C   0  0  0  0  0  0  0  0  0  0  0  0
   69.8945   44.5518   57.1329 N   0  0  0  0  0  0  0  0  0  0  0  0
   68.8540   44.5979   56.2398 C   0  0  0  0  0  0  0  0  0  0  0  0
   68.1951   43.4171   56.0636 C   0  0  0  0  0  0  0  0  0  0  0  0
   67.1171   43.3301   55.1807 O   0  0  0  0  0  0  0  0  0  0  0  0
   68.5336   42.2353   56.7316 C   0  0  0  0  0  0  0  0  0  0  0  0
   67.8248   41.0572   56.5132 C   0  0  0  0  0  0  0  0  0  0  0  0
   68.2110   39.9438   57.1993 C   0  0  0  0  0  0  0  0  0  0  0  0
   69.2670   39.9089   58.1032 C   0  0  0  0  0  0  0  0  0  0  0  0
   69.9508   41.0962   58.2968 C   0  0  0  0  0  0  0  0  0  0  0  0
   69.5796   42.2576   57.6076 C   0  0  0  0  0  0  0  0  0  0  0  0
   69.6362   38.6895   58.8135 C   0  0  0  0  0  0  0  0  0  0  0  0
   70.7901   37.9821   58.5309 C   0  0  0  0  0  0  0  0  0  0  0  0
   71.1115   36.8215   59.2286 C   0  0  0  0  0  0  0  0  0  0  0  0
   70.2858   36.3474   60.2199 C   0  0  0  0  0  0  0  0  0  0  0  0
   69.1363   37.0514   60.5013 C   0  0  0  0  0  0  0  0  0  0  0  0
   68.8182   38.2061   59.8065 C   0  0  0  0  0  0  0  0  0  0  0  0
   68.5337   45.8326   55.5623 C   0  0  0  0  0  0  0  0  0  0  0  0
   67.9037   46.6958   56.2715 O   0  0  0  0  0  0  0  0  0  0  0  0
   68.8118   46.2136   54.2503 N   0  0  0  0  0  0  0  0  0  0  0  0
   68.4475   47.5067   53.6500 C   0  0  0  0  0  0  0  0  0  0  0  0
   69.6945   48.2110   53.2576 C   0  0  0  0  0  0  0  0  0  0  0  0
   69.9190   48.2558   51.7991 C   0  0  0  0  0  0  0  0  0  0  0  0
   70.0238   47.1764   51.1742 O   0  0  0  0  0  0  0  0  0  0  0  0
   70.0204   49.4351   51.0915 O   0  0  0  0  0  0  0  0  0  0  0  0
   72.2267   43.4209   59.4625 N   0  0  0  0  0  0  0  0  0  0  0  0
   71.3442   43.4400   58.7161 C   0  0  0  0  0  0  0  0  0  0  0  0
 26 27  3  0
 27  1  1  0
  1  2  2  0
  1 11  1  0
  2  3  1  0
  3 18  1  0
  3  4  2  0
 18 19  2  0
 18 20  1  0
 20 21  1  0
 21 22  1  0
 22 23  1  0
 23 24  2  0
 23 25  1  0
  4  5  1  0
  4  6  1  0
  6  7  1  0
  6 11  2  0
  7  8  2  0
  8  9  1  0
  9 12  1  0
  9 10  2  0
 12 13  2  0
 12 17  1  0
 13 14  1  0
 14 15  2  0
 15 16  1  0
 16 17  2  0
 10 11  1  0
M  END
>  <minimizedAffinity>  (484) 
-8.63451

$$$$
data/200k_reference_output/data/smiles/41103.pdb
     RDKit          3D

 30 33  0  0  0  0  0  0  0  0999 V2000
   72.9595   35.4035   57.5471 C   0  0  0  0  0  0  0  0  0  0  0  0
   72.1367   34.7992   58.5135 C   0  0  0  0  0  0  0  0  0  0  0  0
   71.2029   35.5293   59.2114 C   0  0  0  0  0  0  0  0  0  0  0  0
   71.0149   36.8724   59.0152 C   0  0  0  0  0  0  0  0  0  0  0  0
   71.8147   37.4733   58.0725 C   0  0  0  0  0  0  0  0  0  0  0  0
   72.7769   36.7441   57.3467 C   0  0  0  0  0  0  0  0  0  0  0  0
   70.0372   37.6768   59.7371 C   0  0  0  0  0  0  0  0  0  0  0  0
   69.9157   37.5809   61.0069 O   0  0  0  0  0  0  0  0  0  0  0  0
   69.1667   38.6014   59.1185 N   0  0  0  0  0  0  0  0  0  0  0  0
   68.1962   39.3999   59.8411 C   0  0  2  0  0  0  0  0  0  0  0  0
   66.8016   38.9200   59.6763 C   0  0  0  0  0  0  0  0  0  0  0  0
   65.9928   40.0712   59.9341 N   0  0  0  0  0  0  0  0  0  0  0  0
   66.7602   41.2320   59.6122 C   0  0  0  0  0  0  0  0  0  0  0  0
   68.1594   40.7860   59.2577 C   0  0  2  0  0  0  0  0  0  0  0  0
   68.3805   40.7915   57.7976 C   0  0  0  0  0  0  0  0  0  0  0  0
   69.3655   41.4169   57.2749 O   0  0  0  0  0  0  0  0  0  0  0  0
   67.5347   40.1153   56.8898 N   0  0  0  0  0  0  0  0  0  0  0  0
   67.7764   40.1500   55.5479 O   0  0  0  0  0  0  0  0  0  0  0  0
   73.9519   34.5390   56.8554 C   0  0  0  0  0  0  0  0  0  0  0  0
   71.7274   35.2964   52.4976 C   0  0  0  0  0  0  0  0  0  0  0  0
   72.9753   35.2194   53.3081 C   0  0  0  0  0  0  0  0  0  0  0  0
   72.9284   34.9013   54.6483 C   0  0  0  0  0  0  0  0  0  0  0  0
   74.1004   34.8285   55.4166 C   0  0  0  0  0  0  0  0  0  0  0  0
   75.2607   35.0878   54.7484 C   0  0  0  0  0  0  0  0  0  0  0  0
   76.4413   35.0128   55.4428 C   0  0  0  0  0  0  0  0  0  0  0  0
   77.6160   35.2641   54.7535 C   0  0  0  0  0  0  0  0  0  0  0  0
   77.6687   35.5812   53.4266 C   0  0  0  0  0  0  0  0  0  0  0  0
   76.4732   35.6543   52.7291 C   0  0  0  0  0  0  0  0  0  0  0  0
   75.2936   35.4094   53.3891 C   0  0  0  0  0  0  0  0  0  0  0  0
   74.1366   35.4654   52.7064 N   0  0  0  0  0  0  0  0  0  0  0  0
 20 21  1  0
 21 22  2  0
 21 30  1  0
 22 23  1  0
 23 19  1  0
 23 24  2  0
 19  1  1  0
  1  2  2  0
  1  6  1  0
  2  3  1  0
  3  4  2  0
  4  7  1  0
  4  5  1  0
  7  8  2  0
  7  9  1  0
 10  9  1  6
 10 11  1  0
 10 14  1  0
 11 12  1  0
 12 13  1  0
 13 14  1  0
 14 15  1  6
 15 16  2  0
 15 17  1  0
 17 18  1  0
  5  6  2  0
 24 25  1  0
 24 29  1  0
 25 26  2  0
 26 27  1  0
 27 28  2  0
 28 29  1  0
 29 30  2  0
M  CHG  1  12   1
M  END
>  <minimizedAffinity>  (485) 
-8.54757

$$$$
data/200k_reference_output/data/smiles/41192.pdb
     RDKit          3D

 27 29  0  0  0  0  0  0  0  0999 V2000
   69.0569   42.9572   57.2650 C   0  0  0  0  0  0  0  0  0  0  0  0
   68.4822   42.2147   56.2256 C   0  0  0  0  0  0  0  0  0  0  0  0
   68.0483   40.9176   56.4908 C   0  0  0  0  0  0  0  0  0  0  0  0
   67.5304   40.2280   55.5869 O   0  0  0  0  0  0  0  0  0  0  0  0
   68.1848   40.3771   57.7405 C   0  0  0  0  0  0  0  0  0  0  0  0
   67.7927   39.0990   58.0683 C   0  0  0  0  0  0  0  0  0  0  0  0
   67.9496   38.5768   59.3354 C   0  0  0  0  0  0  0  0  0  0  0  0
   68.5327   39.3442   60.3465 C   0  0  0  0  0  0  0  0  0  0  0  0
   68.9350   40.6380   60.0286 C   0  0  0  0  0  0  0  0  0  0  0  0
   68.7565   41.1280   58.7470 C   0  0  0  0  0  0  0  0  0  0  0  0
   69.1700   42.4049   58.4483 N   0  0  0  0  0  0  0  0  0  0  0  0
   68.5138   45.1458   56.0984 N   0  0  0  0  0  0  0  0  0  0  0  0
   69.4077   44.3547   56.9142 C   0  0  0  0  0  0  0  0  0  0  0  0
   70.4506   44.9155   57.2808 O   0  0  0  0  0  0  0  0  0  0  0  0
   68.5131   46.9965   54.4150 C   0  0  0  0  0  0  0  0  0  0  0  0
   68.7865   48.3400   54.1491 C   0  0  0  0  0  0  0  0  0  0  0  0
   69.3051   49.2202   55.0545 C   0  0  0  0  0  0  0  0  0  0  0  0
   69.5571   48.6817   56.3256 C   0  0  0  0  0  0  0  0  0  0  0  0
   69.2785   47.3728   56.5660 C   0  0  0  0  0  0  0  0  0  0  0  0
   68.7575   46.4439   55.6912 C   0  0  0  0  0  0  0  0  0  0  0  0
   67.6262   45.4401   52.4216 C   0  0  0  0  0  0  0  0  0  0  0  0
   68.0418   46.1692   53.3685 C   0  0  0  0  0  0  0  0  0  0  0  0
   69.5342   41.4733   61.0200 N   0  0  0  0  0  0  0  0  0  0  0  0
   68.6394   42.5906   61.9420 S   0  0  0  0  0  0  0  0  0  0  0  0
   67.6142   41.9124   63.1927 C   0  0  0  0  0  0  0  0  0  0  0  0
   67.8301   43.5110   61.0627 O   0  0  0  0  0  0  0  0  0  0  0  0
   69.6620   43.5101   62.6463 O   0  0  0  0  0  0  0  0  0  0  0  0
 21 22  3  0
 22 15  1  0
 15 16  2  0
 15 20  1  0
 16 17  1  0
 17 18  2  0
 18 19  1  0
 19 20  2  0
 20 12  1  0
 12 13  1  0
 13 14  2  0
 13  1  1  0
  1  2  2  0
  1 11  1  0
  2  3  1  0
  3  4  2  0
  3  5  1  0
  5  6  2  0
  5 10  1  0
  6  7  1  0
  7  8  2  0
  8  9  1  0
  9 23  1  0
  9 10  2  0
 23 24  1  0
 24 25  1  0
 24 26  2  0
 24 27  2  0
 10 11  1  0
M  END
>  <minimizedAffinity>  (486) 
-8.73549

$$$$
data/200k_reference_output/data/smiles/41248.pdb
     RDKit          3D

 33 37  0  0  0  0  0  0  0  0999 V2000
   68.2647   45.2423   55.8586 O   0  0  0  0  0  0  0  0  0  0  0  0
   68.3434   46.4520   55.6326 C   0  0  0  0  0  0  0  0  0  0  0  0
   68.1944   47.3552   56.7228 N   0  0  0  0  0  0  0  0  0  0  0  0
   68.3407   48.7890   56.6875 C   0  0  0  0  0  0  0  0  0  0  0  0
   67.7943   49.3587   57.8194 C   0  0  0  0  0  0  0  0  0  0  0  0
   67.8645   50.7184   57.9496 C   0  0  0  0  0  0  0  0  0  0  0  0
   68.4820   51.4605   56.9337 C   0  0  0  0  0  0  0  0  0  0  0  0
   68.9956   50.8540   55.8564 N   0  0  0  0  0  0  0  0  0  0  0  0
   68.9535   49.5465   55.6852 C   0  0  0  0  0  0  0  0  0  0  0  0
   69.5942   49.1102   54.4687 N   0  0  0  0  0  0  0  0  0  0  0  0
   70.6485   49.8476   53.9472 C   0  0  0  0  0  0  0  0  0  0  0  0
   71.3277   49.3077   53.0203 O   0  0  0  0  0  0  0  0  0  0  0  0
   69.1289   47.9555   53.7190 C   0  0  0  0  0  0  0  0  0  0  0  0
   69.2670   48.1432   52.3760 C   0  0  0  0  0  0  0  0  0  0  0  0
   68.8730   47.1664   51.4853 C   0  0  0  0  0  0  0  0  0  0  0  0
   68.3253   45.9785   51.9617 C   0  0  0  0  0  0  0  0  0  0  0  0
   68.1924   45.8081   53.3284 C   0  0  0  0  0  0  0  0  0  0  0  0
   68.5913   46.7941   54.2194 C   0  0  0  0  0  0  0  0  0  0  0  0
   70.9886   51.1842   54.4159 C   0  0  0  0  0  0  0  0  0  0  0  0
   72.2920   51.6433   54.0161 N   0  0  0  0  0  0  0  0  0  0  0  0
   72.7407   52.8937   54.5063 C   0  0  0  0  0  0  0  0  0  0  0  0
   73.3360   52.9505   55.8610 C   0  0  0  0  0  0  0  0  0  0  0  0
   73.1618   51.7161   56.5712 N   0  0  0  0  0  0  0  0  0  0  0  0
   72.7985   51.7698   57.9742 C   0  0  0  0  0  0  0  0  0  0  0  0
   72.6404   52.8839   58.5391 O   0  0  0  0  0  0  0  0  0  0  0  0
   73.3622   50.4654   55.8854 C   0  0  0  0  0  0  0  0  0  0  0  0
   73.2514   50.6283   54.4161 C   0  0  0  0  0  0  0  0  0  0  0  0
   72.6238   50.5355   58.7109 C   0  0  0  0  0  0  0  0  0  0  0  0
   73.6586   50.0812   59.5356 C   0  0  0  0  0  0  0  0  0  0  0  0
   73.4436   48.8923   60.2048 C   0  0  0  0  0  0  0  0  0  0  0  0
   72.2656   48.1950   60.0626 C   0  0  0  0  0  0  0  0  0  0  0  0
   71.2542   48.6736   59.2345 C   0  0  0  0  0  0  0  0  0  0  0  0
   71.4515   49.8487   58.5664 C   0  0  0  0  0  0  0  0  0  0  0  0
  1  2  2  0
  2  3  1  0
  2 18  1  0
  3  4  1  0
  4  5  2  0
  4  9  1  0
  5  6  1  0
  6  7  2  0
  7  8  1  0
  8  9  2  0
  9 10  1  0
 10 11  1  0
 10 13  1  0
 11 12  2  0
 11 19  1  0
 19 20  1  0
 20 21  1  0
 20 27  1  0
 21 22  1  0
 22 23  1  0
 23 24  1  0
 23 26  1  0
 24 25  2  0
 24 28  1  0
 28 29  2  0
 28 33  1  0
 29 30  1  0
 30 31  2  0
 31 32  1  0
 32 33  2  0
 26 27  1  0
 13 14  2  0
 13 18  1  0
 14 15  1  0
 15 16  2  0
 16 17  1  0
 17 18  2  0
M  CHG  1  20   1
M  END
>  <minimizedAffinity>  (487) 
-8.79076

$$$$
data/200k_reference_output/data/smiles/41259.pdb
     RDKit          3D

 29 33  0  0  0  0  0  0  0  0999 V2000
   72.2628   49.7602   58.0170 N   0  0  0  0  0  0  0  0  0  0  0  0
   73.5729   49.8454   57.4012 C   0  0  0  0  0  0  0  0  0  0  0  0
   73.4666   50.5420   56.0549 C   0  0  0  0  0  0  0  0  0  0  0  0
   72.0982   51.0352   55.7990 N   0  0  0  0  0  0  0  0  0  0  0  0
   71.5467   50.7523   54.5539 C   0  0  0  0  0  0  0  0  0  0  0  0
   72.3039   50.0373   53.7561 O   0  0  0  0  0  0  0  0  0  0  0  0
   71.4664   51.7596   56.8652 C   0  0  0  0  0  0  0  0  0  0  0  0
   71.6269   51.0682   58.2272 C   0  0  0  0  0  0  0  0  0  0  0  0
   73.8660   49.2481   60.6324 C   0  0  0  0  0  0  0  0  0  0  0  0
   72.9884   48.0344   60.4770 C   0  0  0  0  0  0  0  0  0  0  0  0
   72.9415   46.9559   61.3266 C   0  0  0  0  0  0  0  0  0  0  0  0
   72.0352   46.1118   60.8454 N   0  0  0  0  0  0  0  0  0  0  0  0
   71.4911   46.5988   59.7142 C   0  0  0  0  0  0  0  0  0  0  0  0
   70.5393   46.1229   58.8755 N   0  0  0  0  0  0  0  0  0  0  0  0
   70.1503   46.8023   57.7993 C   0  0  0  0  0  0  0  0  0  0  0  0
   70.7069   47.9812   57.5360 N   0  0  0  0  0  0  0  0  0  0  0  0
   71.6805   48.5258   58.3449 C   0  0  0  0  0  0  0  0  0  0  0  0
   72.0765   47.8272   59.4465 C   0  0  0  0  0  0  0  0  0  0  0  0
   70.2748   51.0928   53.9413 C   0  0  2  0  0  0  0  0  0  0  0  0
   69.5681   52.0733   54.7022 N   0  0  0  0  0  0  0  0  0  0  0  0
   69.3703   49.9064   53.7484 C   0  0  0  0  0  0  0  0  0  0  0  0
   69.5393   48.8439   54.7874 C   0  0  0  0  0  0  0  0  0  0  0  0
   68.9273   47.6795   54.1198 C   0  0  0  0  0  0  0  0  0  0  0  0
   68.2750   46.5707   54.5909 C   0  0  0  0  0  0  0  0  0  0  0  0
   67.7789   45.5852   53.7391 C   0  0  0  0  0  0  0  0  0  0  0  0
   67.9629   45.7536   52.4019 C   0  0  0  0  0  0  0  0  0  0  0  0
   68.6281   46.8827   51.9218 C   0  0  0  0  0  0  0  0  0  0  0  0
   69.1137   47.8500   52.7648 C   0  0  0  0  0  0  0  0  0  0  0  0
   69.8399   49.1190   52.5129 C   0  0  0  0  0  0  0  0  0  0  0  0
  9 10  1  0
 10 11  2  0
 10 18  1  0
 11 12  1  0
 12 13  1  0
 13 14  1  0
 13 18  2  0
 14 15  2  0
 15 16  1  0
 16 17  2  0
 17  1  1  0
 17 18  1  0
  1  2  1  0
  1  8  1  0
  2  3  1  0
  3  4  1  0
  4  5  1  0
  4  7  1  0
  5  6  2  0
  5 19  1  0
 19 20  1  1
 19 21  1  0
 21 22  1  0
 21 29  1  0
 22 23  1  0
 23 24  1  0
 23 28  2  0
 24 25  2  0
 25 26  1  0
 26 27  2  0
 27 28  1  0
 28 29  1  0
  7  8  1  0
M  CHG  1  20   1
M  END
>  <minimizedAffinity>  (488) 
-8.96285

$$$$
data/200k_reference_output/data/smiles/41478.pdb
     RDKit          3D

 29 32  0  0  0  0  0  0  0  0999 V2000
   70.1831   38.9257   58.6017 N   0  0  0  0  0  0  0  0  0  0  0  0
   69.4550   38.2636   59.5194 C   0  0  0  0  0  0  0  0  0  0  0  0
   69.8155   36.9885   59.9669 C   0  0  0  0  0  0  0  0  0  0  0  0
   70.9518   36.3711   59.4637 C   0  0  0  0  0  0  0  0  0  0  0  0
   71.7062   37.0421   58.5224 C   0  0  0  0  0  0  0  0  0  0  0  0
   71.2766   38.2928   58.1401 C   0  0  0  0  0  0  0  0  0  0  0  0
   72.9011   36.4098   57.9834 C   0  0  0  0  0  0  0  0  0  0  0  0
   73.9655   36.1838   58.8254 C   0  0  0  0  0  0  0  0  0  0  0  0
   75.1393   35.5808   58.3666 C   0  0  0  0  0  0  0  0  0  0  0  0
   75.2528   35.1994   57.0507 C   0  0  0  0  0  0  0  0  0  0  0  0
   74.1962   35.4176   56.1900 C   0  0  0  0  0  0  0  0  0  0  0  0
   73.0298   36.0216   56.6672 C   0  0  0  0  0  0  0  0  0  0  0  0
   72.2292   36.0921   55.6415 O   0  0  0  0  0  0  0  0  0  0  0  0
   72.7683   35.5928   54.5556 C   0  0  0  0  0  0  0  0  0  0  0  0
   72.2892   35.4632   53.2685 C   0  0  0  0  0  0  0  0  0  0  0  0
   73.0448   34.8943   52.2615 C   0  0  0  0  0  0  0  0  0  0  0  0
   74.3313   34.4370   52.5568 C   0  0  0  0  0  0  0  0  0  0  0  0
   74.7965   34.5730   53.8476 C   0  0  0  0  0  0  0  0  0  0  0  0
   74.0485   35.1383   54.8514 C   0  0  0  0  0  0  0  0  0  0  0  0
   69.7533   40.2123   58.1954 C   0  0  0  0  0  0  0  0  0  0  0  0
   68.3780   40.6429   58.4055 C   0  0  1  0  0  0  0  0  0  0  0  0
   68.8898   41.3800   60.9445 O   0  0  0  0  0  0  0  0  0  0  0  0
   68.3067   41.9452   59.6590 P   0  0  1  0  0  0  0  0  0  0  0  0
   69.2054   43.3008   59.1896 O   0  0  0  0  0  0  0  0  0  0  0  0
   66.6904   42.3916   59.8697 O   0  0  0  0  0  0  0  0  0  0  0  0
   67.7856   41.3821   56.8294 P   0  0  0  0  0  0  0  0  0  0  0  0
   68.6953   42.4834   56.3846 O   0  0  0  0  0  0  0  0  0  0  0  0
   66.2256   41.9679   56.9794 O   0  0  0  0  0  0  0  0  0  0  0  0
   67.7733   40.2014   55.6021 O   0  0  0  0  0  0  0  0  0  0  0  0
 23 22  2  0
 23 24  1  6
 23 25  1  0
 23 21  1  0
 21 20  1  6
 21 26  1  0
 20  1  1  0
  1  2  2  0
  1  6  1  0
  2  3  1  0
  3  4  2  0
  4  5  1  0
  5  7  1  0
  5  6  2  0
  7  8  2  0
  7 12  1  0
  8  9  1  0
  9 10  2  0
 10 11  1  0
 11 12  2  0
 11 19  1  0
 12 13  1  0
 13 14  1  0
 14 15  1  0
 14 19  2  0
 15 16  2  0
 16 17  1  0
 17 18  2  0
 18 19  1  0
 26 27  2  0
 26 28  1  0
 26 29  1  0
M  CHG  2   1   1  24  -1
M  END
>  <minimizedAffinity>  (489) 
-8.56388

$$$$
data/200k_reference_output/data/smiles/41706.pdb
     RDKit          3D

 26 29  0  0  0  0  0  0  0  0999 V2000
   70.5442   46.2247   58.5040 C   0  0  0  0  0  0  0  0  0  0  0  0
   69.9071   47.0893   57.6522 C   0  0  0  0  0  0  0  0  0  0  0  0
   70.4381   48.2869   57.1921 C   0  0  0  0  0  0  0  0  0  0  0  0
   71.6956   48.6080   57.6364 C   0  0  0  0  0  0  0  0  0  0  0  0
   72.3695   47.7630   58.4949 C   0  0  0  0  0  0  0  0  0  0  0  0
   71.8092   46.5731   58.9349 C   0  0  0  0  0  0  0  0  0  0  0  0
   72.4800   45.7494   59.7796 F   0  0  0  0  0  0  0  0  0  0  0  0
   71.1192   43.8303   57.3684 O   0  0  0  0  0  0  0  0  0  0  0  0
   70.2754   43.7707   58.3135 C   0  0  0  0  0  0  0  0  0  0  0  0
   69.9401   45.0018   58.9410 N   0  0  0  0  0  0  0  0  0  0  0  0
   69.6733   42.4684   58.7321 C   0  0  0  0  0  0  0  0  0  0  0  0
   68.8763   42.5260   60.0007 C   0  0  0  0  0  0  0  0  0  0  0  0
   67.7321   42.0143   59.2321 N   0  0  0  0  0  0  0  0  0  0  0  0
   68.4478   42.0596   57.9486 C   0  0  0  0  0  0  0  0  0  0  0  0
   69.6261   49.1492   56.2650 C   0  0  0  0  0  0  0  0  0  0  0  0
   69.8456   48.8086   54.8391 C   0  0  0  0  0  0  0  0  0  0  0  0
   70.8633   49.3850   54.1310 N   0  0  0  0  0  0  0  0  0  0  0  0
   71.0972   49.1585   52.8658 N   0  0  0  0  0  0  0  0  0  0  0  0
   70.3453   48.3192   52.1190 C   0  0  0  0  0  0  0  0  0  0  0  0
   70.5705   48.1028   50.9091 O   0  0  0  0  0  0  0  0  0  0  0  0
   69.2963   47.6990   52.7705 C   0  0  0  0  0  0  0  0  0  0  0  0
   69.0582   47.9444   54.1046 C   0  0  0  0  0  0  0  0  0  0  0  0
   67.9458   47.2312   54.7585 C   0  0  0  0  0  0  0  0  0  0  0  0
   67.9586   45.7776   54.3054 C   0  0  0  0  0  0  0  0  0  0  0  0
   68.0120   45.5859   52.8378 C   0  0  0  0  0  0  0  0  0  0  0  0
   68.4085   46.7741   52.0349 C   0  0  0  0  0  0  0  0  0  0  0  0
  8  9  2  0
  9 10  1  0
  9 11  1  0
 10  1  1  0
  1  2  2  0
  1  6  1  0
  2  3  1  0
  3 15  1  0
  3  4  2  0
 15 16  1  0
 16 17  2  0
 16 22  1  0
 17 18  1  0
 18 19  1  0
 19 20  2  0
 19 21  1  0
 21 22  2  0
 21 26  1  0
 22 23  1  0
 23 24  1  0
 24 25  1  0
 25 26  1  0
  4  5  1  0
  5  6  2  0
  6  7  1  0
 11 12  1  0
 11 14  1  0
 12 13  1  0
 13 14  1  0
M  CHG  1  13   1
M  END
>  <minimizedAffinity>  (490) 
-8.63744

$$$$
data/200k_reference_output/data/smiles/41717.pdb
     RDKit          3D

 29 31  0  0  0  0  0  0  0  0999 V2000
   69.1978   47.8413   52.8985 C   0  0  0  0  0  0  0  0  0  0  0  0
   68.6029   47.4168   51.7290 C   0  0  0  0  0  0  0  0  0  0  0  0
   67.8692   46.2380   51.7166 C   0  0  0  0  0  0  0  0  0  0  0  0
   67.7502   45.5126   52.8845 C   0  0  0  0  0  0  0  0  0  0  0  0
   68.3219   45.8970   54.0602 C   0  0  0  0  0  0  0  0  0  0  0  0
   69.0498   47.0814   54.0378 C   0  0  0  0  0  0  0  0  0  0  0  0
   70.1192   49.3280   52.8944 S   0  0  0  0  0  0  0  0  0  0  0  0
   71.5942   49.0679   52.8632 O   0  0  0  0  0  0  0  0  0  0  0  0
   69.8045   50.1363   51.6436 O   0  0  0  0  0  0  0  0  0  0  0  0
   69.0437   51.5768   53.9484 C   0  0  0  0  0  0  0  0  0  0  0  0
   69.6485   50.2853   54.2349 N   0  0  0  0  0  0  0  0  0  0  0  0
   69.8227   49.8753   55.5845 C   0  0  0  0  0  0  0  0  0  0  0  0
   68.7802   49.7205   56.4647 C   0  0  0  0  0  0  0  0  0  0  0  0
   69.0066   49.3184   57.7673 C   0  0  0  0  0  0  0  0  0  0  0  0
   70.2777   49.0563   58.2408 C   0  0  0  0  0  0  0  0  0  0  0  0
   71.3235   49.2111   57.3605 C   0  0  0  0  0  0  0  0  0  0  0  0
   71.0924   49.6112   56.0658 C   0  0  0  0  0  0  0  0  0  0  0  0
   68.2127   45.1465   55.3095 C   0  0  0  0  0  0  0  0  0  0  0  0
   68.5066   45.7067   56.3969 O   0  0  0  0  0  0  0  0  0  0  0  0
   67.7890   43.8010   55.3813 N   0  0  0  0  0  0  0  0  0  0  0  0
   67.6856   43.0840   56.5868 N   0  0  0  0  0  0  0  0  0  0  0  0
   67.5498   41.6800   56.6375 C   0  0  0  0  0  0  0  0  0  0  0  0
   67.5226   41.0692   55.5355 O   0  0  0  0  0  0  0  0  0  0  0  0
   67.4427   40.9184   57.8733 C   0  0  0  0  0  0  0  0  0  0  0  0
   66.6974   41.3970   58.9314 C   0  0  0  0  0  0  0  0  0  0  0  0
   66.5829   40.6848   60.1219 C   0  0  0  0  0  0  0  0  0  0  0  0
   67.1928   39.5008   60.2925 N   0  0  0  0  0  0  0  0  0  0  0  0
   67.9242   39.0254   59.2631 C   0  0  0  0  0  0  0  0  0  0  0  0
   68.0558   39.7070   58.0748 C   0  0  0  0  0  0  0  0  0  0  0  0
 10 11  1  0
 11 12  1  0
 11  7  1  0
 12 13  2  0
 12 17  1  0
 13 14  1  0
 14 15  2  0
 15 16  1  0
 16 17  2  0
  7  8  2  0
  7  9  2  0
  7  1  1  0
  1  2  2  0
  1  6  1  0
  2  3  1  0
  3  4  2  0
  4  5  1  0
  5 18  1  0
  5  6  2  0
 18 19  2  0
 18 20  1  0
 20 21  1  0
 21 22  1  0
 22 23  2  0
 22 24  1  0
 24 25  2  0
 24 29  1  0
 25 26  1  0
 26 27  2  0
 27 28  1  0
 28 29  2  0
M  END
>  <minimizedAffinity>  (491) 
-9.02389

$$$$
data/200k_reference_output/data/smiles/41821.pdb
     RDKit          3D

 26 29  0  0  0  0  0  0  0  0999 V2000
   72.4814   51.2530   54.8411 C   0  0  2  0  0  0  0  0  0  0  0  0
   70.4073   51.1363   53.0405 O   0  0  0  0  0  0  0  0  0  0  0  0
   70.7003   50.0360   53.5951 C   0  0  0  0  0  0  0  0  0  0  0  0
   71.7612   50.0495   54.5294 N   0  0  0  0  0  0  0  0  0  0  0  0
   69.9970   48.8074   53.3023 C   0  0  0  0  0  0  0  0  0  0  0  0
   69.9488   48.2391   52.0519 C   0  0  0  0  0  0  0  0  0  0  0  0
   69.2696   47.0843   51.7813 C   0  0  0  0  0  0  0  0  0  0  0  0
   68.5953   46.4362   52.7758 C   0  0  0  0  0  0  0  0  0  0  0  0
   68.6109   46.9649   54.0566 C   0  0  0  0  0  0  0  0  0  0  0  0
   69.2984   48.1269   54.3152 C   0  0  0  0  0  0  0  0  0  0  0  0
   67.8467   46.1042   54.8628 O   0  0  0  0  0  0  0  0  0  0  0  0
   67.5762   44.9200   54.1701 C   0  0  0  0  0  0  0  0  0  0  0  0
   67.8367   45.2882   52.8303 O   0  0  0  0  0  0  0  0  0  0  0  0
   73.9528   51.0508   54.8060 C   0  0  0  0  0  0  0  0  0  0  0  0
   74.3837   50.1129   54.0886 O   0  0  0  0  0  0  0  0  0  0  0  0
   74.8657   51.8155   55.5026 O   0  0  0  0  0  0  0  0  0  0  0  0
   72.1281   51.7198   56.2217 C   0  0  0  0  0  0  0  0  0  0  0  0
   70.7036   52.0091   56.4201 C   0  0  0  0  0  0  0  0  0  0  0  0
   70.0959   53.2270   56.1116 C   0  0  0  0  0  0  0  0  0  0  0  0
   68.8094   53.1225   56.3891 N   0  0  0  0  0  0  0  0  0  0  0  0
   68.5471   51.8997   56.8645 C   0  0  0  0  0  0  0  0  0  0  0  0
   67.3429   51.3730   57.2843 C   0  0  0  0  0  0  0  0  0  0  0  0
   67.3440   50.0708   57.7492 C   0  0  0  0  0  0  0  0  0  0  0  0
   68.5147   49.3451   57.7832 C   0  0  0  0  0  0  0  0  0  0  0  0
   69.7052   49.8784   57.3632 C   0  0  0  0  0  0  0  0  0  0  0  0
   69.7218   51.1731   56.8968 C   0  0  0  0  0  0  0  0  0  0  0  0
  2  3  2  0
  3  4  1  0
  3  5  1  0
  4  1  1  0
  1 17  1  1
  1 14  1  0
 17 18  1  0
 18 19  2  0
 18 26  1  0
 19 20  1  0
 20 21  1  0
 21 22  1  0
 21 26  2  0
 22 23  2  0
 23 24  1  0
 24 25  2  0
 25 26  1  0
 14 15  2  0
 14 16  1  0
  5  6  2  0
  5 10  1  0
  6  7  1  0
  7  8  2  0
  8  9  1  0
  8 13  1  0
  9 10  2  0
  9 11  1  0
 11 12  1  0
 12 13  1  0
M  END
>  <minimizedAffinity>  (492) 
-8.56206

$$$$
data/200k_reference_output/data/smiles/41918.pdb
     RDKit          3D

 25 26  0  0  0  0  0  0  0  0999 V2000
   69.4934   40.0593   58.2505 N   0  0  0  0  0  0  0  0  0  0  0  0
   68.2890   39.8454   57.5219 C   0  0  0  0  0  0  0  0  0  0  0  0
   67.7572   38.6941   57.4886 O   0  0  0  0  0  0  0  0  0  0  0  0
   67.6293   40.8799   56.8098 N   0  0  0  0  0  0  0  0  0  0  0  0
   68.1436   42.2204   56.7810 C   0  0  0  0  0  0  0  0  0  0  0  0
   67.5519   43.1372   56.1453 O   0  0  0  0  0  0  0  0  0  0  0  0
   69.3747   42.4846   57.5136 C   0  0  0  0  0  0  0  0  0  0  0  0
   69.8583   43.7068   57.4945 C   0  0  0  0  0  0  0  0  0  0  0  0
   71.0990   44.0317   58.2171 C   0  0  0  0  0  0  0  0  0  0  0  0
   70.0146   41.3810   58.2314 C   0  0  0  0  0  0  0  0  0  0  0  0
   71.0767   41.6007   58.8656 O   0  0  0  0  0  0  0  0  0  0  0  0
   70.1002   38.9471   58.9502 C   0  0  0  0  0  0  0  0  0  0  0  0
   71.7258   37.1598   58.5386 C   0  0  0  0  0  0  0  0  0  0  0  0
   71.1723   38.3145   58.1749 C   0  0  0  0  0  0  0  0  0  0  0  0
   69.2025   44.7732   56.7701 N   0  0  0  0  0  0  0  0  0  0  0  0
   69.5682   46.0276   57.1120 N   0  0  0  0  0  0  0  0  0  0  0  0
   69.3039   47.1926   56.7908 C   0  0  0  0  0  0  0  0  0  0  0  0
   70.1886   48.5011   57.6775 S   0  0  0  0  0  0  0  0  0  0  0  0
   68.3617   47.5156   55.7926 N   0  0  0  0  0  0  0  0  0  0  0  0
   68.4986   47.2480   54.4224 C   0  0  0  0  0  0  0  0  0  0  0  0
   67.8214   46.2010   53.8483 C   0  0  0  0  0  0  0  0  0  0  0  0
   67.9234   45.9334   52.4799 C   0  0  0  0  0  0  0  0  0  0  0  0
   68.7046   46.7117   51.6853 C   0  0  0  0  0  0  0  0  0  0  0  0
   69.3939   47.7683   52.2396 C   0  0  0  0  0  0  0  0  0  0  0  0
   69.2826   48.0270   53.6139 C   0  0  0  0  0  0  0  0  0  0  0  0
 13 14  2  0
 14 12  1  0
 12  1  1  0
  1  2  1  0
  1 10  1  0
  2  3  2  0
  2  4  1  0
  4  5  1  0
  5  6  2  0
  5  7  1  0
  7  8  2  0
  7 10  1  0
  8  9  1  0
  8 15  1  0
 15 16  1  0
 16 17  2  0
 17 18  1  0
 17 19  1  0
 19 20  1  0
 20 21  2  0
 20 25  1  0
 21 22  1  0
 22 23  2  0
 23 24  1  0
 24 25  2  0
 10 11  2  0
M  CHG  1  16   1
M  END
>  <minimizedAffinity>  (493) 
-8.54744

$$$$
data/200k_reference_output/data/smiles/41954.pdb
     RDKit          3D

 28 30  0  0  0  0  0  0  0  0999 V2000
   70.4005   38.9063   59.4127 C   0  0  2  0  0  0  0  0  0  0  0  0
   70.3197   39.2854   60.8507 C   0  0  0  0  0  0  0  0  0  0  0  0
   71.2788   39.8652   58.7383 N   0  0  0  0  0  0  0  0  0  0  0  0
   70.4386   40.9862   58.4418 C   0  0  0  0  0  0  0  0  0  0  0  0
   70.7853   42.1760   58.2363 O   0  0  0  0  0  0  0  0  0  0  0  0
   69.0763   40.5426   58.4118 N   0  0  0  0  0  0  0  0  0  0  0  0
   69.1349   39.1533   58.7017 C   0  0  0  0  0  0  0  0  0  0  0  0
   68.2684   38.2628   58.4111 O   0  0  0  0  0  0  0  0  0  0  0  0
   72.5637   33.6279   58.2618 C   0  0  0  0  0  0  0  0  0  0  0  0
   72.0228   34.9728   58.5490 C   0  0  0  0  0  0  0  0  0  0  0  0
   71.1728   35.1916   59.6298 C   0  0  0  0  0  0  0  0  0  0  0  0
   70.6480   36.4471   59.9185 C   0  0  0  0  0  0  0  0  0  0  0  0
   70.9366   37.5530   59.1540 C   0  0  0  0  0  0  0  0  0  0  0  0
   71.7889   37.3363   58.0704 C   0  0  0  0  0  0  0  0  0  0  0  0
   72.3030   36.1003   57.7887 C   0  0  0  0  0  0  0  0  0  0  0  0
   67.9501   41.3327   58.1237 C   0  0  0  0  0  0  0  0  0  0  0  0
   67.8729   42.0164   56.8413 C   0  0  0  0  0  0  0  0  0  0  0  0
   67.7905   41.2855   55.7838 O   0  0  0  0  0  0  0  0  0  0  0  0
   67.8683   43.4028   56.5845 N   0  0  0  0  0  0  0  0  0  0  0  0
   67.7684   43.9028   55.2625 N   0  0  0  0  0  0  0  0  0  0  0  0
   68.1354   45.2349   54.9517 C   0  0  0  0  0  0  0  0  0  0  0  0
   68.5431   45.9134   55.9469 O   0  0  0  0  0  0  0  0  0  0  0  0
   68.0959   45.8793   53.6651 C   0  0  0  0  0  0  0  0  0  0  0  0
   67.6427   45.4824   52.4319 C   0  0  0  0  0  0  0  0  0  0  0  0
   67.8463   46.5111   51.5155 C   0  0  0  0  0  0  0  0  0  0  0  0
   68.4043   47.4865   52.1908 O   0  0  0  0  0  0  0  0  0  0  0  0
   68.5758   47.1809   53.4437 C   0  0  0  0  0  0  0  0  0  0  0  0
   69.1776   48.0676   54.4625 C   0  0  0  0  0  0  0  0  0  0  0  0
  9 10  1  0
 10 11  2  0
 10 15  1  0
 11 12  1  0
 12 13  2  0
 13  1  1  0
 13 14  1  0
  1  2  1  1
  1  3  1  0
  1  7  1  0
  3  4  1  0
  4  5  2  0
  4  6  1  0
  6 16  1  0
  6  7  1  0
 16 17  1  0
 17 18  2  0
 17 19  1  0
 19 20  1  0
 20 21  1  0
 21 22  2  0
 21 23  1  0
 23 24  1  0
 23 27  2  0
 24 25  2  0
 25 26  1  0
 26 27  1  0
 27 28  1  0
  7  8  2  0
 14 15  2  0
M  END
>  <minimizedAffinity>  (494) 
-8.90205

$$$$
data/200k_reference_output/data/smiles/42028.pdb
     RDKit          3D

 21 23  0  0  0  0  0  0  0  0999 V2000
   68.5344   48.1691   56.1922 C   0  0  0  0  0  0  0  0  0  0  0  0
   69.1813   48.5863   55.0927 N   0  0  0  0  0  0  0  0  0  0  0  0
   68.9090   47.8002   54.0394 C   0  0  0  0  0  0  0  0  0  0  0  0
   69.2960   47.7810   52.7160 C   0  0  0  0  0  0  0  0  0  0  0  0
   68.8339   46.8172   51.8477 C   0  0  0  0  0  0  0  0  0  0  0  0
   67.9602   45.8342   52.2872 C   0  0  0  0  0  0  0  0  0  0  0  0
   67.5893   45.8762   53.6148 C   0  0  0  0  0  0  0  0  0  0  0  0
   68.0383   46.8308   54.5046 C   0  0  0  0  0  0  0  0  0  0  0  0
   67.8264   47.0802   55.8248 N   0  0  0  0  0  0  0  0  0  0  0  0
   69.5066   49.8456   57.5087 N   0  0  2  0  0  0  0  0  0  0  0  0
   69.0940   50.8938   56.6911 C   0  0  0  0  0  0  0  0  0  0  0  0
   67.8170   51.4901   57.1850 C   0  0  0  0  0  0  0  0  0  0  0  0
   66.7404   50.4966   57.4798 C   0  0  0  0  0  0  0  0  0  0  0  0
   67.1971   49.1833   57.9912 C   0  0  0  0  0  0  0  0  0  0  0  0
   68.5778   48.7771   57.5571 C   0  0  1  0  0  0  0  0  0  0  0  0
   71.2579   48.8000   58.7471 C   0  0  0  0  0  0  0  0  0  0  0  0
   70.4138   50.0314   58.5247 C   0  0  0  0  0  0  0  0  0  0  0  0
   71.4036   51.1789   58.2773 C   0  0  0  0  0  0  0  0  0  0  0  0
   70.2094   48.7844   52.1948 C   0  0  0  0  0  0  0  0  0  0  0  0
   69.8361   49.5541   51.0670 N   0  0  0  0  0  0  0  0  0  0  0  0
   71.3296   48.9856   52.7245 O   0  0  0  0  0  0  0  0  0  0  0  0
 16 17  1  0
 17 18  1  0
 10 17  1  1
 10 11  1  0
 10 15  1  0
 11 12  1  0
 12 13  1  0
 13 14  1  0
 14 15  1  0
 15  1  1  6
  1  2  2  0
  1  9  1  0
  2  3  1  0
  3  4  2  0
  3  8  1  0
  4 19  1  0
  4  5  1  0
 19 20  1  0
 19 21  2  0
  5  6  2  0
  6  7  1  0
  7  8  2  0
  8  9  1  0
M  CHG  2   2   1  10   1
M  END
>  <minimizedAffinity>  (495) 
-8.56938

$$$$
data/200k_reference_output/data/smiles/42202.pdb
     RDKit          3D

 19 21  0  0  0  0  0  0  0  0999 V2000
   66.8438   45.5336   51.0114 N   0  0  0  0  0  0  0  0  0  0  0  0
   67.7642   46.2903   51.8049 C   0  0  0  0  0  0  0  0  0  0  0  0
   67.7531   46.1705   53.1647 C   0  0  0  0  0  0  0  0  0  0  0  0
   68.6184   46.8789   53.9649 C   0  0  0  0  0  0  0  0  0  0  0  0
   69.5105   47.7318   53.2476 C   0  0  0  0  0  0  0  0  0  0  0  0
   70.4689   48.5496   53.7070 N   0  0  0  0  0  0  0  0  0  0  0  0
   71.0043   49.1136   52.6397 N   0  0  0  0  0  0  0  0  0  0  0  0
   70.4399   48.6990   51.5347 N   0  0  0  0  0  0  0  0  0  0  0  0
   69.4751   47.8096   51.8891 C   0  0  0  0  0  0  0  0  0  0  0  0
   68.6220   47.1085   51.1577 N   0  0  0  0  0  0  0  0  0  0  0  0
   68.7129   46.8534   55.3082 O   0  0  0  0  0  0  0  0  0  0  0  0
   69.2997   47.6404   56.2439 C   0  0  0  0  0  0  0  0  0  0  0  0
   68.5909   48.8525   56.6787 C   0  0  0  0  0  0  0  0  0  0  0  0
   67.4647   48.7377   57.4972 C   0  0  0  0  0  0  0  0  0  0  0  0
   66.7711   49.8652   57.8780 C   0  0  0  0  0  0  0  0  0  0  0  0
   67.1462   51.1298   57.4774 C   0  0  0  0  0  0  0  0  0  0  0  0
   68.2745   51.2189   56.6603 C   0  0  0  0  0  0  0  0  0  0  0  0
   68.7842   52.7878   56.1320 Cl  0  0  0  0  0  0  0  0  0  0  0  0
   68.9808   50.0947   56.2696 C   0  0  0  0  0  0  0  0  0  0  0  0
  1  2  1  0
  2  3  2  0
  2 10  1  0
  3  4  1  0
  4 11  1  0
  4  5  2  0
 11 12  1  0
 12 13  1  0
 13 14  2  0
 13 19  1  0
 14 15  1  0
 15 16  2  0
 16 17  1  0
 17 18  1  0
 17 19  2  0
  5  6  1  0
  5  9  1  0
  6  7  2  0
  7  8  1  0
  8  9  1  0
  9 10  2  0
M  END
>  <minimizedAffinity>  (496) 
-9.12835

$$$$
data/200k_reference_output/data/smiles/42349.pdb
     RDKit          3D

 22 23  0  0  0  0  0  0  0  0999 V2000
   69.4223   48.1207   55.1231 N   0  0  0  0  0  0  0  0  0  0  0  0
   69.0754   47.7096   52.7538 C   0  0  0  0  0  0  0  0  0  0  0  0
   68.5614   46.9652   51.7183 C   0  0  0  0  0  0  0  0  0  0  0  0
   67.8320   45.8246   51.9877 C   0  0  0  0  0  0  0  0  0  0  0  0
   67.6398   45.4620   53.2931 C   0  0  0  0  0  0  0  0  0  0  0  0
   68.1532   46.2047   54.3256 C   0  0  0  0  0  0  0  0  0  0  0  0
   68.8839   47.3483   54.0776 C   0  0  0  0  0  0  0  0  0  0  0  0
   69.2887   50.5166   53.1847 N   0  0  0  0  0  0  0  0  0  0  0  0
   69.9963   49.1522   52.3955 S   0  0  0  0  0  0  0  0  0  0  0  0
   71.4134   49.0458   52.8665 O   0  0  0  0  0  0  0  0  0  0  0  0
   70.0255   49.4470   50.9316 O   0  0  0  0  0  0  0  0  0  0  0  0
   68.9452   47.8661   56.7444 S   0  0  0  0  0  0  0  0  0  0  0  0
   68.8516   49.1466   57.5261 O   0  0  0  0  0  0  0  0  0  0  0  0
   67.5711   47.2312   56.8313 O   0  0  0  0  0  0  0  0  0  0  0  0
   70.0630   46.8245   57.6199 C   0  0  0  0  0  0  0  0  0  0  0  0
   70.9599   47.3107   58.5429 C   0  0  0  0  0  0  0  0  0  0  0  0
   71.8380   46.5026   59.2381 C   0  0  0  0  0  0  0  0  0  0  0  0
   71.8088   45.1471   58.9898 C   0  0  0  0  0  0  0  0  0  0  0  0
   70.9259   44.6305   58.0734 C   0  0  0  0  0  0  0  0  0  0  0  0
   70.9372   42.8870   57.8005 Cl  0  0  0  0  0  0  0  0  0  0  0  0
   70.0652   45.4580   57.3988 C   0  0  0  0  0  0  0  0  0  0  0  0
   69.1892   44.9621   56.4929 F   0  0  0  0  0  0  0  0  0  0  0  0
  8  9  1  0
  9 10  2  0
  9 11  2  0
  9  2  1  0
  2  3  2  0
  2  7  1  0
  3  4  1  0
  4  5  2  0
  5  6  1  0
  6  7  2  0
  7  1  1  0
  1 12  1  0
 12 13  2  0
 12 14  2  0
 12 15  1  0
 15 16  2  0
 15 21  1  0
 16 17  1  0
 17 18  2  0
 18 19  1  0
 19 20  1  0
 19 21  2  0
 21 22  1  0
M  END
>  <minimizedAffinity>  (497) 
-8.55072

$$$$
data/200k_reference_output/data/smiles/42519.pdb
     RDKit          3D

 26 29  0  0  0  0  0  0  0  0999 V2000
   71.1625   45.9065   58.4051 C   0  0  0  0  0  0  0  0  0  0  0  0
   70.2640   46.4188   57.5026 C   0  0  0  0  0  0  0  0  0  0  0  0
   70.0526   47.7698   57.4472 C   0  0  0  0  0  0  0  0  0  0  0  0
   70.7335   48.5936   58.2846 C   0  0  0  0  0  0  0  0  0  0  0  0
   71.6382   48.1027   59.1960 C   0  0  0  0  0  0  0  0  0  0  0  0
   71.8645   46.7298   59.2644 C   0  0  0  0  0  0  0  0  0  0  0  0
   72.7579   46.2541   60.1658 F   0  0  0  0  0  0  0  0  0  0  0  0
   69.4054   44.1167   59.6904 O   0  0  0  0  0  0  0  0  0  0  0  0
   70.5570   43.7484   59.3520 C   0  0  0  0  0  0  0  0  0  0  0  0
   71.0715   42.5015   59.8666 N   0  0  0  0  0  0  0  0  0  0  0  0
   72.4662   42.2357   59.4812 C   0  0  0  0  0  0  0  0  0  0  0  0
   72.4853   42.4209   57.9587 C   0  0  0  0  0  0  0  0  0  0  0  0
   72.4569   43.8952   57.6888 C   0  0  0  0  0  0  0  0  0  0  0  0
   71.3984   44.4975   58.4802 N   0  0  0  0  0  0  0  0  0  0  0  0
   69.0848   48.3121   56.4977 C   0  0  0  0  0  0  0  0  0  0  0  0
   69.4530   48.3357   55.0950 C   0  0  0  0  0  0  0  0  0  0  0  0
   70.3929   49.2559   54.7276 N   0  0  0  0  0  0  0  0  0  0  0  0
   70.8219   49.4097   53.5083 N   0  0  0  0  0  0  0  0  0  0  0  0
   70.3238   48.6268   52.5404 C   0  0  0  0  0  0  0  0  0  0  0  0
   70.7236   48.7587   51.3617 O   0  0  0  0  0  0  0  0  0  0  0  0
   69.3472   47.6528   52.8522 C   0  0  0  0  0  0  0  0  0  0  0  0
   68.9126   47.5070   54.1282 C   0  0  0  0  0  0  0  0  0  0  0  0
   67.9167   46.5300   54.5375 C   0  0  0  0  0  0  0  0  0  0  0  0
   67.8608   45.4292   53.4946 C   0  0  0  0  0  0  0  0  0  0  0  0
   67.6796   46.0445   52.1079 C   0  0  0  0  0  0  0  0  0  0  0  0
   68.8692   46.8420   51.7209 C   0  0  0  0  0  0  0  0  0  0  0  0
  8  9  2  0
  9 10  1  0
  9 14  1  0
 10 11  1  0
 11 12  1  0
 12 13  1  0
 13 14  1  0
 14  1  1  0
  1  2  2  0
  1  6  1  0
  2  3  1  0
  3 15  1  0
  3  4  2  0
 15 16  1  0
 16 17  2  0
 16 22  1  0
 17 18  1  0
 18 19  1  0
 19 20  2  0
 19 21  1  0
 21 22  2  0
 21 26  1  0
 22 23  1  0
 23 24  1  0
 24 25  1  0
 25 26  1  0
  4  5  1  0
  5  6  2  0
  6  7  1  0
M  END
>  <minimizedAffinity>  (498) 
-8.57852

$$$$
data/200k_reference_output/data/smiles/42522.pdb
     RDKit          3D

 25 27  0  0  0  0  0  0  0  0999 V2000
   70.8636   46.4800   59.1762 O   0  0  0  0  0  0  0  0  0  0  0  0
   70.8282   45.6796   58.2354 C   0  0  0  0  0  0  0  0  0  0  0  0
   69.9940   46.1886   57.1339 N   0  0  0  0  0  0  0  0  0  0  0  0
   71.4522   44.4164   58.1022 C   0  0  0  0  0  0  0  0  0  0  0  0
   72.7022   44.4965   57.7000 O   0  0  0  0  0  0  0  0  0  0  0  0
   71.0392   43.0613   58.3049 C   0  0  0  0  0  0  0  0  0  0  0  0
   71.7318   42.1401   59.1311 C   0  0  0  0  0  0  0  0  0  0  0  0
   71.1094   40.9616   59.1209 N   0  0  0  0  0  0  0  0  0  0  0  0
   70.0262   41.0083   58.3392 C   0  0  0  0  0  0  0  0  0  0  0  0
   69.0902   40.0593   58.0243 C   0  0  0  0  0  0  0  0  0  0  0  0
   68.0507   40.3669   57.1768 C   0  0  0  0  0  0  0  0  0  0  0  0
   67.9680   41.6348   56.6558 C   0  0  0  0  0  0  0  0  0  0  0  0
   66.5411   42.1156   55.4728 Br  0  0  0  0  0  0  0  0  0  0  0  0
   68.9356   42.5767   56.9959 C   0  0  0  0  0  0  0  0  0  0  0  0
   69.9872   42.3057   57.8375 C   0  0  0  0  0  0  0  0  0  0  0  0
   69.3538   47.4558   57.2394 C   0  0  0  0  0  0  0  0  0  0  0  0
   68.1596   47.5322   56.3397 C   0  0  0  0  0  0  0  0  0  0  0  0
   68.5721   47.4395   54.9331 C   0  0  0  0  0  0  0  0  0  0  0  0
   68.0884   46.4403   54.1304 C   0  0  0  0  0  0  0  0  0  0  0  0
   68.4890   46.3295   52.7901 C   0  0  0  0  0  0  0  0  0  0  0  0
   69.3765   47.2325   52.2757 C   0  0  0  0  0  0  0  0  0  0  0  0
   69.7676   47.1179   50.9523 O   0  0  0  0  0  0  0  0  0  0  0  0
   69.8741   48.2444   53.0659 C   0  0  0  0  0  0  0  0  0  0  0  0
   70.7685   49.1375   52.5107 O   0  0  0  0  0  0  0  0  0  0  0  0
   69.4681   48.3362   54.3805 C   0  0  0  0  0  0  0  0  0  0  0  0
  1  2  2  0
  2  3  1  0
  2  4  1  0
  3 16  1  0
 16 17  1  0
 17 18  1  0
 18 19  2  0
 18 25  1  0
 19 20  1  0
 20 21  2  0
 21 22  1  0
 21 23  1  0
 23 24  1  0
 23 25  2  0
  4  5  2  0
  4  6  1  0
  6  7  2  0
  6 15  1  0
  7  8  1  0
  8  9  1  0
  9 10  1  0
  9 15  2  0
 10 11  2  0
 11 12  1  0
 12 13  1  0
 12 14  2  0
 14 15  1  0
M  END
>  <minimizedAffinity>  (499) 
-8.51156

$$$$
data/200k_reference_output/data/smiles/42709.pdb
     RDKit          3D

 25 27  0  0  0  0  0  0  0  0999 V2000
   70.3488   46.5935   57.9919 C   0  0  0  0  0  0  0  0  0  0  0  0
   70.6014   45.1490   58.0798 C   0  0  0  0  0  0  0  0  0  0  0  0
   69.5827   44.3626   58.0480 O   0  0  0  0  0  0  0  0  0  0  0  0
   71.8777   44.5234   58.1999 N   0  0  0  0  0  0  0  0  0  0  0  0
   71.9335   43.0765   58.2759 C   0  0  0  0  0  0  0  0  0  0  0  0
   73.0919   42.5023   57.4853 C   0  0  0  0  0  0  0  0  0  0  0  0
   74.3565   43.1179   57.9902 C   0  0  0  0  0  0  0  0  0  0  0  0
   75.4983   42.3850   58.0920 C   0  0  0  0  0  0  0  0  0  0  0  0
   76.6837   42.9465   58.5731 C   0  0  0  0  0  0  0  0  0  0  0  0
   76.6521   44.2719   58.9401 C   0  0  0  0  0  0  0  0  0  0  0  0
   75.4904   45.0089   58.8332 C   0  0  0  0  0  0  0  0  0  0  0  0
   74.3066   44.4319   58.3487 C   0  0  0  0  0  0  0  0  0  0  0  0
   73.1021   45.2700   58.2472 C   0  0  0  0  0  0  0  0  0  0  0  0
   69.0230   46.8248   57.5749 O   0  0  0  0  0  0  0  0  0  0  0  0
   68.4634   48.8681   56.8407 O   0  0  0  0  0  0  0  0  0  0  0  0
   68.7153   47.6787   56.5274 C   0  0  0  0  0  0  0  0  0  0  0  0
   68.6698   47.2934   55.1397 C   0  0  0  0  0  0  0  0  0  0  0  0
   68.0513   46.1675   54.6472 C   0  0  0  0  0  0  0  0  0  0  0  0
   68.0515   45.8624   53.2795 C   0  0  0  0  0  0  0  0  0  0  0  0
   68.6805   46.6941   52.3794 C   0  0  0  0  0  0  0  0  0  0  0  0
   69.3114   47.8354   52.8446 C   0  0  0  0  0  0  0  0  0  0  0  0
   69.2885   48.0961   54.1830 C   0  0  0  0  0  0  0  0  0  0  0  0
   69.9575   48.6867   51.9018 N   0  0  0  0  0  0  0  0  0  0  0  0
   70.5166   48.1365   50.9330 O   0  0  0  0  0  0  0  0  0  0  0  0
   69.9934   50.0337   52.0030 O   0  0  0  0  0  0  0  0  0  0  0  0
 15 16  2  0
 16 14  1  0
 16 17  1  0
 14  1  1  0
  1  2  1  0
  2  3  2  0
  2  4  1  0
  4  5  1  0
  4 13  1  0
  5  6  1  0
  6  7  1  0
  7  8  2  0
  7 12  1  0
  8  9  1  0
  9 10  2  0
 10 11  1  0
 11 12  2  0
 12 13  1  0
 17 18  2  0
 17 22  1  0
 18 19  1  0
 19 20  2  0
 20 21  1  0
 21 23  1  0
 21 22  2  0
 23 24  2  0
 23 25  1  0
M  CHG  2  23   1  25  -1
M  END
>  <minimizedAffinity>  (500) 
-8.73090

$$$$
data/200k_reference_output/data/smiles/42792.pdb
     RDKit          3D

 25 27  0  0  0  0  0  0  0  0999 V2000
   70.4548   44.7685   58.2965 C   0  0  0  0  0  0  0  0  0  0  0  0
   70.8309   45.4351   59.2829 O   0  0  0  0  0  0  0  0  0  0  0  0
   69.8801   45.4300   57.1794 N   0  0  0  0  0  0  0  0  0  0  0  0
   72.0077   37.1255   58.3294 C   0  0  0  0  0  0  0  0  0  0  0  0
   71.3932   38.4674   58.3294 C   0  0  0  0  0  0  0  0  0  0  0  0
   70.0294   38.6354   58.3527 C   0  0  0  0  0  0  0  0  0  0  0  0
   69.3899   39.8480   58.3547 C   0  0  0  0  0  0  0  0  0  0  0  0
   70.1519   41.0416   58.3315 C   0  0  0  0  0  0  0  0  0  0  0  0
   69.7304   42.3227   58.3290 C   0  0  0  0  0  0  0  0  0  0  0  0
   68.3040   42.6749   58.3520 N   0  0  0  0  0  0  0  0  0  0  0  0
   70.6117   43.3226   58.3055 C   0  0  0  0  0  0  0  0  0  0  0  0
   72.2031   42.4830   58.2830 S   0  0  0  0  0  0  0  0  0  0  0  0
   71.4935   40.8134   58.3090 C   0  0  0  0  0  0  0  0  0  0  0  0
   72.1079   39.6216   58.3073 N   0  0  0  0  0  0  0  0  0  0  0  0
   69.7001   46.8502   57.1101 C   0  0  0  0  0  0  0  0  0  0  0  0
   68.4587   47.1807   56.3254 C   0  0  0  0  0  0  0  0  0  0  0  0
   68.6102   47.1314   54.8693 C   0  0  0  0  0  0  0  0  0  0  0  0
   68.0030   46.0481   54.2228 C   0  0  0  0  0  0  0  0  0  0  0  0
   68.0443   45.8657   52.8683 C   0  0  0  0  0  0  0  0  0  0  0  0
   68.7096   46.7828   52.1071 C   0  0  0  0  0  0  0  0  0  0  0  0
   69.3213   47.8667   52.7209 C   0  0  0  0  0  0  0  0  0  0  0  0
   69.2707   48.0390   54.0947 C   0  0  0  0  0  0  0  0  0  0  0  0
   70.0257   48.8351   51.9075 C   0  0  0  0  0  0  0  0  0  0  0  0
   70.6293   48.4642   50.8853 O   0  0  0  0  0  0  0  0  0  0  0  0
   70.0253   50.1616   52.2651 O   0  0  0  0  0  0  0  0  0  0  0  0
  4  5  1  0
  5  6  2  0
  5 14  1  0
  6  7  1  0
  7  8  2  0
  8  9  1  0
  8 13  1  0
  9 10  1  0
  9 11  2  0
 11  1  1  0
 11 12  1  0
  1  2  2  0
  1  3  1  0
  3 15  1  0
 15 16  1  0
 16 17  1  0
 17 18  2  0
 17 22  1  0
 18 19  1  0
 19 20  2  0
 20 21  1  0
 21 23  1  0
 21 22  2  0
 23 24  2  0
 23 25  1  0
 12 13  1  0
 13 14  2  0
M  END
>  <minimizedAffinity>  (501) 
-9.31764

$$$$
data/200k_reference_output/data/smiles/42809.pdb
     RDKit          3D

 28 31  0  0  0  0  0  0  0  0999 V2000
   72.2234   43.2082   57.8098 O   0  0  0  0  0  0  0  0  0  0  0  0
   71.0224   43.1848   58.0904 C   0  0  0  0  0  0  0  0  0  0  0  0
   70.6186   42.3730   59.2221 N   0  0  0  0  0  0  0  0  0  0  0  0
   69.2348   42.2907   59.5973 C   0  0  0  0  0  0  0  0  0  0  0  0
   68.9053   40.9514   60.1405 C   0  0  0  0  0  0  0  0  0  0  0  0
   69.8488   39.9270   60.0136 N   0  0  0  0  0  0  0  0  0  0  0  0
   71.2224   40.2239   60.1151 C   0  0  0  0  0  0  0  0  0  0  0  0
   71.6074   41.6683   59.9980 C   0  0  0  0  0  0  0  0  0  0  0  0
   70.0270   43.9243   57.3429 C   0  0  0  0  0  0  0  0  0  0  0  0
   70.0129   45.2770   57.0314 C   0  0  0  0  0  0  0  0  0  0  0  0
   68.9030   45.5865   56.3065 N   0  0  0  0  0  0  0  0  0  0  0  0
   68.2656   44.4595   56.1817 N   0  0  0  0  0  0  0  0  0  0  0  0
   68.8760   43.4542   56.7678 N   0  0  0  0  0  0  0  0  0  0  0  0
   68.5652   46.9099   55.8196 C   0  0  0  0  0  0  0  0  0  0  0  0
   68.6165   46.9680   54.3382 C   0  0  0  0  0  0  0  0  0  0  0  0
   69.3825   47.8567   53.6413 C   0  0  0  0  0  0  0  0  0  0  0  0
   69.3927   47.8488   52.2565 C   0  0  0  0  0  0  0  0  0  0  0  0
   68.6337   46.9487   51.5244 C   0  0  0  0  0  0  0  0  0  0  0  0
   67.8589   46.0514   52.2266 C   0  0  0  0  0  0  0  0  0  0  0  0
   67.0940   45.1452   51.5342 F   0  0  0  0  0  0  0  0  0  0  0  0
   67.8612   46.0719   53.6032 C   0  0  0  0  0  0  0  0  0  0  0  0
   69.4628   38.6210   59.6932 C   0  0  0  0  0  0  0  0  0  0  0  0
   70.4752   37.7093   59.1603 C   0  0  0  0  0  0  0  0  0  0  0  0
   70.5912   36.4710   59.7434 C   0  0  0  0  0  0  0  0  0  0  0  0
   71.5248   35.5530   59.2887 C   0  0  0  0  0  0  0  0  0  0  0  0
   72.3458   35.9028   58.2319 C   0  0  0  0  0  0  0  0  0  0  0  0
   72.2298   37.1420   57.6488 C   0  0  0  0  0  0  0  0  0  0  0  0
   71.2938   38.0305   58.1216 C   0  0  0  0  0  0  0  0  0  0  0  0
  1  2  2  0
  2  9  1  0
  2  3  1  0
  9 10  2  0
  9 13  1  0
 10 11  1  0
 11 14  1  0
 11 12  1  0
 14 15  1  0
 15 16  2  0
 15 21  1  0
 16 17  1  0
 17 18  2  0
 18 19  1  0
 19 20  1  0
 19 21  2  0
 12 13  2  0
  3  4  1  0
  3  8  1  0
  4  5  1  0
  5  6  1  0
  6 22  1  0
  6  7  1  0
 22 23  1  0
 23 24  2  0
 23 28  1  0
 24 25  1  0
 25 26  2  0
 26 27  1  0
 27 28  2  0
  7  8  1  0
M  CHG  1   6   1
M  END
>  <minimizedAffinity>  (502) 
-8.81533

$$$$
data/200k_reference_output/data/smiles/42986.pdb
     RDKit          3D

 22 24  0  0  0  0  0  0  0  0999 V2000
   71.9483   45.8449   58.6424 O   0  0  0  0  0  0  0  0  0  0  0  0
   71.0818   46.6872   58.2465 C   0  0  0  0  0  0  0  0  0  0  0  0
   69.9745   46.3107   57.3758 C   0  0  0  0  0  0  0  0  0  0  0  0
   69.0712   47.1779   56.9625 C   0  0  0  0  0  0  0  0  0  0  0  0
   69.1441   48.5851   57.3675 C   0  0  0  0  0  0  0  0  0  0  0  0
   68.2093   49.5092   56.9476 C   0  0  0  0  0  0  0  0  0  0  0  0
   68.2425   50.8372   57.3079 C   0  0  0  0  0  0  0  0  0  0  0  0
   69.2645   51.2737   58.1335 C   0  0  0  0  0  0  0  0  0  0  0  0
   70.2164   50.3870   58.5744 C   0  0  0  0  0  0  0  0  0  0  0  0
   70.1488   49.0514   58.1889 C   0  0  0  0  0  0  0  0  0  0  0  0
   71.1665   48.0998   58.6619 C   0  0  0  0  0  0  0  0  0  0  0  0
   72.0990   48.4830   59.4122 O   0  0  0  0  0  0  0  0  0  0  0  0
   68.0128   46.7649   56.1155 N   0  0  0  0  0  0  0  0  0  0  0  0
   68.2712   46.7641   54.7200 C   0  0  0  0  0  0  0  0  0  0  0  0
   67.6637   45.8057   53.8998 C   0  0  0  0  0  0  0  0  0  0  0  0
   67.9218   45.8231   52.5270 C   0  0  0  0  0  0  0  0  0  0  0  0
   68.7581   46.7602   51.9823 C   0  0  0  0  0  0  0  0  0  0  0  0
   69.3761   47.7238   52.7667 C   0  0  0  0  0  0  0  0  0  0  0  0
   69.0887   47.6649   54.1198 C   0  0  0  0  0  0  0  0  0  0  0  0
   70.2618   48.7296   52.1969 C   0  0  0  0  0  0  0  0  0  0  0  0
   71.3037   49.0622   52.8267 O   0  0  0  0  0  0  0  0  0  0  0  0
   70.0066   49.3336   50.9940 O   0  0  0  0  0  0  0  0  0  0  0  0
  1  2  2  0
  2  3  1  0
  2 11  1  0
  3  4  2  0
  4 13  1  0
  4  5  1  0
 13 14  1  0
 14 15  2  0
 14 19  1  0
 15 16  1  0
 16 17  2  0
 17 18  1  0
 18 20  1  0
 18 19  2  0
 20 21  2  0
 20 22  1  0
  5  6  1  0
  5 10  2  0
  6  7  2  0
  7  8  1  0
  8  9  2  0
  9 10  1  0
 10 11  1  0
 11 12  2  0
M  END
>  <minimizedAffinity>  (503) 
-8.55564

$$$$
data/200k_reference_output/data/smiles/43187.pdb
     RDKit          3D

 25 27  0  0  0  0  0  0  0  0999 V2000
   67.1921   41.6137   56.2279 C   0  0  0  0  0  0  0  0  0  0  0  0
   68.2361   42.5749   56.6422 C   0  0  0  0  0  0  0  0  0  0  0  0
   69.2714   42.1089   57.3229 C   0  0  0  0  0  0  0  0  0  0  0  0
   70.3017   43.0783   57.7283 C   0  0  0  0  0  0  0  0  0  0  0  0
   70.1666   44.2927   57.4222 O   0  0  0  0  0  0  0  0  0  0  0  0
   71.4061   42.5778   58.4534 N   0  0  0  0  0  0  0  0  0  0  0  0
   71.5760   41.2106   58.8088 C   0  0  0  0  0  0  0  0  0  0  0  0
   72.6060   40.8419   59.4668 O   0  0  0  0  0  0  0  0  0  0  0  0
   70.5943   40.2547   58.4277 N   0  0  0  0  0  0  0  0  0  0  0  0
   69.4589   40.7151   57.6917 C   0  0  0  0  0  0  0  0  0  0  0  0
   68.5647   39.8758   57.3401 O   0  0  0  0  0  0  0  0  0  0  0  0
   70.7194   38.8779   58.7591 C   0  0  0  0  0  0  0  0  0  0  0  0
   71.5778   38.0673   58.0620 C   0  0  0  0  0  0  0  0  0  0  0  0
   71.7056   36.7306   58.3771 C   0  0  0  0  0  0  0  0  0  0  0  0
   70.9693   36.1607   59.4105 C   0  0  0  0  0  0  0  0  0  0  0  0
   70.1138   36.9814   60.1008 C   0  0  0  0  0  0  0  0  0  0  0  0
   69.9879   38.3145   59.7847 C   0  0  0  0  0  0  0  0  0  0  0  0
   68.1399   43.9783   56.3235 N   0  0  0  0  0  0  0  0  0  0  0  0
   67.6327   44.3252   55.0715 N   0  0  0  0  0  0  0  0  0  0  0  0
   68.0744   45.4570   54.3450 C   0  0  0  0  0  0  0  0  0  0  0  0
   67.9337   45.5082   52.9658 C   0  0  0  0  0  0  0  0  0  0  0  0
   68.3523   46.5919   52.2249 C   0  0  0  0  0  0  0  0  0  0  0  0
   68.9358   47.6773   52.8646 C   0  0  0  0  0  0  0  0  0  0  0  0
   69.0714   47.6154   54.2335 C   0  0  0  0  0  0  0  0  0  0  0  0
   68.6583   46.5410   54.9866 C   0  0  0  0  0  0  0  0  0  0  0  0
  1  2  1  0
  2 18  1  0
  2  3  2  0
 18 19  1  0
 19 20  1  0
 20 21  2  0
 20 25  1  0
 21 22  1  0
 22 23  2  0
 23 24  1  0
 24 25  2  0
  3  4  1  0
  3 10  1  0
  4  5  2  0
  4  6  1  0
  6  7  1  0
  7  8  2  0
  7  9  1  0
  9 12  1  0
  9 10  1  0
 12 13  2  0
 12 17  1  0
 13 14  1  0
 14 15  2  0
 15 16  1  0
 16 17  2  0
 10 11  2  0
M  END
>  <minimizedAffinity>  (504) 
-8.51279

$$$$
data/200k_reference_output/data/smiles/43208.pdb
     RDKit          3D

 25 27  0  0  0  0  0  0  0  0999 V2000
   69.6384   48.4638   54.1924 C   0  0  0  0  0  0  0  0  0  0  0  0
   69.7811   48.2704   55.5710 C   0  0  0  0  0  0  0  0  0  0  0  0
   70.4798   49.2899   56.2409 O   0  0  0  0  0  0  0  0  0  0  0  0
   69.3266   47.2362   56.2565 N   0  0  0  0  0  0  0  0  0  0  0  0
   68.6609   46.2637   55.5856 C   0  0  0  0  0  0  0  0  0  0  0  0
   68.2012   45.2523   56.1528 O   0  0  0  0  0  0  0  0  0  0  0  0
   68.4651   46.3564   54.2269 C   0  0  0  0  0  0  0  0  0  0  0  0
   67.7814   45.3547   53.5472 C   0  0  0  0  0  0  0  0  0  0  0  0
   67.5926   45.4536   52.1973 C   0  0  0  0  0  0  0  0  0  0  0  0
   68.0692   46.5305   51.5046 C   0  0  0  0  0  0  0  0  0  0  0  0
   68.7486   47.5207   52.2021 C   0  0  0  0  0  0  0  0  0  0  0  0
   68.9477   47.4418   53.5466 C   0  0  0  0  0  0  0  0  0  0  0  0
   70.2952   49.8458   53.4138 S   0  0  0  0  0  0  0  0  0  0  0  0
   71.8277   49.6930   53.5588 O   0  0  0  0  0  0  0  0  0  0  0  0
   70.1616   49.8597   51.9171 O   0  0  0  0  0  0  0  0  0  0  0  0
   69.9763   51.3846   54.1553 C   0  0  0  0  0  0  0  0  0  0  0  0
   68.2659   51.7907   55.9648 C   0  0  0  0  0  0  0  0  0  0  0  0
   68.5919   51.7508   54.4904 C   0  0  0  0  0  0  0  0  0  0  0  0
   69.5143   47.1043   57.6884 C   0  0  0  0  0  0  0  0  0  0  0  0
   70.7915   46.4264   57.9832 C   0  0  0  0  0  0  0  0  0  0  0  0
   71.9090   47.1338   58.3423 C   0  0  0  0  0  0  0  0  0  0  0  0
   73.1056   46.5031   58.6238 C   0  0  0  0  0  0  0  0  0  0  0  0
   73.1981   45.1246   58.5478 C   0  0  0  0  0  0  0  0  0  0  0  0
   72.1016   44.3920   58.1941 C   0  0  0  0  0  0  0  0  0  0  0  0
   70.9153   45.0343   57.9168 C   0  0  0  0  0  0  0  0  0  0  0  0
 17 18  1  0
 18 16  1  0
 16 13  1  0
 13 14  2  0
 13 15  2  0
 13  1  1  0
  1  2  2  0
  1 12  1  0
  2  3  1  0
  2  4  1  0
  4 19  1  0
  4  5  1  0
 19 20  1  0
 20 21  2  0
 20 25  1  0
 21 22  1  0
 22 23  2  0
 23 24  1  0
 24 25  2  0
  5  6  2  0
  5  7  1  0
  7  8  1  0
  7 12  2  0
  8  9  2  0
  9 10  1  0
 10 11  2  0
 11 12  1  0
M  END
>  <minimizedAffinity>  (505) 
-8.66226

$$$$
data/200k_reference_output/data/smiles/43248.pdb
     RDKit          3D

 26 28  0  0  0  0  0  0  0  0999 V2000
   70.6390   51.0538   56.3625 C   0  0  2  0  0  0  0  0  0  0  0  0
   70.1005   49.9921   55.5338 N   0  0  0  0  0  0  0  0  0  0  0  0
   70.5279   49.8745   54.2052 C   0  0  0  0  0  0  0  0  0  0  0  0
   71.4105   50.7715   53.8213 O   0  0  0  0  0  0  0  0  0  0  0  0
   70.1461   48.9336   53.2301 N   0  0  0  0  0  0  0  0  0  0  0  0
   70.6628   48.9646   51.9840 N   0  0  0  0  0  0  0  0  0  0  0  0
   70.1831   48.0136   51.2335 N   0  0  0  0  0  0  0  0  0  0  0  0
   69.3059   47.2823   51.9487 C   0  0  0  0  0  0  0  0  0  0  0  0
   68.5338   46.1849   51.6398 C   0  0  0  0  0  0  0  0  0  0  0  0
   67.7274   45.6760   52.6335 C   0  0  0  0  0  0  0  0  0  0  0  0
   67.7143   46.2663   53.8858 C   0  0  0  0  0  0  0  0  0  0  0  0
   68.4984   47.3634   54.1641 C   0  0  0  0  0  0  0  0  0  0  0  0
   69.3102   47.8995   53.2122 C   0  0  0  0  0  0  0  0  0  0  0  0
   71.1559   50.4389   57.6126 C   0  0  0  0  0  0  0  0  0  0  0  0
   71.4562   51.1310   58.6283 O   0  0  0  0  0  0  0  0  0  0  0  0
   71.3444   49.0342   57.7350 N   0  0  0  0  0  0  0  0  0  0  0  0
   71.8460   48.3932   58.9342 C   0  0  0  0  0  0  0  0  0  0  0  0
   71.3850   46.9374   58.8705 C   0  0  0  0  0  0  0  0  0  0  0  0
   72.1532   46.1275   59.8611 C   0  0  0  0  0  0  0  0  0  0  0  0
   72.7776   47.0292   60.9024 C   0  0  0  0  0  0  0  0  0  0  0  0
   73.8110   47.9451   60.3334 C   0  0  0  0  0  0  0  0  0  0  0  0
   73.3742   48.3382   58.9279 C   0  0  0  0  0  0  0  0  0  0  0  0
   69.6128   52.0966   56.7059 C   0  0  1  0  0  0  0  0  0  0  0  0
   70.0419   53.4714   56.2430 C   0  0  0  0  0  0  0  0  0  0  0  0
   67.4638   51.1457   57.3610 C   0  0  0  0  0  0  0  0  0  0  0  0
   68.2407   51.7738   56.2225 C   0  0  0  0  0  0  0  0  0  0  0  0
 25 26  1  0
 26 23  1  0
 23 24  1  6
 23  1  1  0
  1  2  1  6
  1 14  1  0
  2  3  1  0
  3  4  2  0
  3  5  1  0
  5  6  1  0
  5 13  1  0
  6  7  2  0
  7  8  1  0
  8  9  1  0
  8 13  2  0
  9 10  2  0
 10 11  1  0
 11 12  2  0
 12 13  1  0
 14 15  2  0
 14 16  1  0
 16 17  1  0
 17 18  1  0
 17 22  1  0
 18 19  1  0
 19 20  1  0
 20 21  1  0
 21 22  1  0
M  END
>  <minimizedAffinity>  (506) 
-8.62227

$$$$
data/200k_reference_output/data/smiles/43315.pdb
     RDKit          3D

 29 33  0  0  0  0  0  0  0  0999 V2000
   74.1790   33.9314   53.7690 C   0  0  0  0  0  0  0  0  0  0  0  0
   73.3945   33.9890   52.6784 N   0  0  0  0  0  0  0  0  0  0  0  0
   72.5488   35.0621   52.8193 C   0  0  0  0  0  0  0  0  0  0  0  0
   72.8337   35.6627   54.0239 C   0  0  0  0  0  0  0  0  0  0  0  0
   73.8337   34.9451   54.5763 N   0  0  0  0  0  0  0  0  0  0  0  0
   76.6084   33.3159   53.6941 C   0  0  0  0  0  0  0  0  0  0  0  0
   75.2173   32.9376   54.0553 C   0  0  0  0  0  0  0  0  0  0  0  0
   73.3780   33.1293   51.5395 C   0  0  0  0  0  0  0  0  0  0  0  0
   74.3714   33.5070   50.4860 C   0  0  0  0  0  0  0  0  0  0  0  0
   74.2016   33.0020   49.2259 C   0  0  0  0  0  0  0  0  0  0  0  0
   75.0758   33.2947   48.2030 C   0  0  0  0  0  0  0  0  0  0  0  0
   76.1505   34.1264   48.4749 C   0  0  0  0  0  0  0  0  0  0  0  0
   77.0500   34.4438   47.4731 C   0  0  0  0  0  0  0  0  0  0  0  0
   78.1244   35.2703   47.7266 C   0  0  0  0  0  0  0  0  0  0  0  0
   78.2634   35.7604   49.0038 C   0  0  0  0  0  0  0  0  0  0  0  0
   77.3728   35.4501   50.0093 C   0  0  0  0  0  0  0  0  0  0  0  0
   76.2795   34.6123   49.7626 C   0  0  0  0  0  0  0  0  0  0  0  0
   75.4078   34.3057   50.7346 N   0  0  0  0  0  0  0  0  0  0  0  0
   74.4128   35.2768   55.8513 C   0  0  0  0  0  0  0  0  0  0  0  0
   73.3729   35.4432   56.9204 C   0  0  0  0  0  0  0  0  0  0  0  0
   72.9680   34.3639   57.6778 C   0  0  0  0  0  0  0  0  0  0  0  0
   72.0227   34.5044   58.6628 C   0  0  0  0  0  0  0  0  0  0  0  0
   71.4914   35.7659   58.8660 C   0  0  0  0  0  0  0  0  0  0  0  0
   70.5343   35.9513   59.8494 C   0  0  0  0  0  0  0  0  0  0  0  0
   69.9795   37.2016   60.0817 C   0  0  0  0  0  0  0  0  0  0  0  0
   70.3995   38.2671   59.3105 C   0  0  0  0  0  0  0  0  0  0  0  0
   71.3516   38.0738   58.3351 C   0  0  0  0  0  0  0  0  0  0  0  0
   71.9171   36.8185   58.0924 C   0  0  0  0  0  0  0  0  0  0  0  0
   72.8350   36.6320   57.1525 N   0  0  0  0  0  0  0  0  0  0  0  0
  6  7  1  0
  7  1  1  0
  1  2  1  0
  1  5  2  0
  2  8  1  0
  2  3  1  0
  8  9  1  0
  9 10  2  0
  9 18  1  0
 10 11  1  0
 11 12  2  0
 12 13  1  0
 12 17  1  0
 13 14  2  0
 14 15  1  0
 15 16  2  0
 16 17  1  0
 17 18  2  0
  3  4  2  0
  4  5  1  0
  5 19  1  0
 19 20  1  0
 20 21  2  0
 20 29  1  0
 21 22  1  0
 22 23  2  0
 23 24  1  0
 23 28  1  0
 24 25  2  0
 25 26  1  0
 26 27  2  0
 27 28  1  0
 28 29  2  0
M  CHG  1   5   1
M  END
>  <minimizedAffinity>  (507) 
-8.73047

$$$$
data/200k_reference_output/data/smiles/43457.pdb
     RDKit          3D

 31 35  0  0  0  0  0  0  0  0999 V2000
   71.0299   50.2830   55.5319 N   0  0  0  0  0  0  0  0  0  0  0  0
   72.3907   50.7097   55.5682 C   0  0  0  0  0  0  0  0  0  0  0  0
   73.0936   49.8865   56.6112 C   0  0  0  0  0  0  0  0  0  0  0  0
   72.1852   49.7463   57.8321 C   0  0  0  0  0  0  0  0  0  0  0  0
   71.1250   50.8258   57.8770 C   0  0  0  0  0  0  0  0  0  0  0  0
   70.2199   50.6495   56.6780 C   0  0  0  0  0  0  0  0  0  0  0  0
   71.5818   48.3870   57.9160 C   0  0  0  0  0  0  0  0  0  0  0  0
   72.1474   47.7834   59.0869 N   0  0  0  0  0  0  0  0  0  0  0  0
   73.0487   48.6776   59.7161 C   0  0  0  0  0  0  0  0  0  0  0  0
   73.8142   48.4941   60.8773 C   0  0  0  0  0  0  0  0  0  0  0  0
   74.6403   49.4964   61.3329 C   0  0  0  0  0  0  0  0  0  0  0  0
   75.3928   49.3429   62.4562 F   0  0  0  0  0  0  0  0  0  0  0  0
   74.6798   50.6712   60.6050 C   0  0  0  0  0  0  0  0  0  0  0  0
   73.9260   50.8449   59.4671 C   0  0  0  0  0  0  0  0  0  0  0  0
   73.9585   51.9878   58.7513 F   0  0  0  0  0  0  0  0  0  0  0  0
   73.0871   49.8329   59.0010 C   0  0  0  0  0  0  0  0  0  0  0  0
   68.4304   46.1085   55.5842 C   0  0  0  0  0  0  0  0  0  0  0  0
   68.4865   46.4740   54.1364 C   0  0  0  0  0  0  0  0  0  0  0  0
   67.8777   45.6846   53.1852 C   0  0  0  0  0  0  0  0  0  0  0  0
   67.9471   46.0481   51.8536 C   0  0  0  0  0  0  0  0  0  0  0  0
   68.6315   47.2005   51.5307 C   0  0  0  0  0  0  0  0  0  0  0  0
   69.2365   47.9839   52.4900 C   0  0  0  0  0  0  0  0  0  0  0  0
   69.9239   49.1374   52.1912 C   0  0  0  0  0  0  0  0  0  0  0  0
   69.9995   49.4871   50.9882 O   0  0  0  0  0  0  0  0  0  0  0  0
   70.5044   49.8782   53.1824 N   0  0  0  0  0  0  0  0  0  0  0  0
   70.4497   49.5449   54.4816 C   0  0  0  0  0  0  0  0  0  0  0  0
   69.7608   48.3899   54.7649 N   0  0  0  0  0  0  0  0  0  0  0  0
   69.1805   47.6419   53.8225 C   0  0  0  0  0  0  0  0  0  0  0  0
   71.8381   46.4305   59.5712 C   0  0  0  0  0  0  0  0  0  0  0  0
   70.9051   45.8153   58.5314 C   0  0  0  0  0  0  0  0  0  0  0  0
   69.7906   45.2289   59.1278 O   0  0  0  0  0  0  0  0  0  0  0  0
 17 18  1  0
 18 19  2  0
 18 28  1  0
 19 20  1  0
 20 21  2  0
 21 22  1  0
 22 23  1  0
 22 28  2  0
 23 24  2  0
 23 25  1  0
 25 26  1  0
 26  1  1  0
 26 27  2  0
  1  2  1  0
  1  6  1  0
  2  3  1  0
  3  4  1  0
  4  5  1  0
  4  7  1  0
  4 16  1  0
  5  6  1  0
  7  8  1  0
  8 29  1  0
  8  9  1  0
 29 30  1  0
 30 31  1  0
  9 10  1  0
  9 16  2  0
 10 11  2  0
 11 12  1  0
 11 13  1  0
 13 14  2  0
 14 15  1  0
 14 16  1  0
 27 28  1  0
M  END
>  <minimizedAffinity>  (508) 
-9.18518

$$$$
data/200k_reference_output/data/smiles/43486.pdb
     RDKit          3D

 26 29  0  0  0  0  0  0  0  0999 V2000
   69.2577   47.0952   56.4515 C   0  0  0  0  0  0  0  0  0  0  0  0
   68.3688   47.2645   57.2981 O   0  0  0  0  0  0  0  0  0  0  0  0
   70.3321   46.2611   56.8912 N   0  0  0  0  0  0  0  0  0  0  0  0
   70.8179   50.5635   53.4863 N   0  0  0  0  0  0  0  0  0  0  0  0
   70.0987   49.3442   53.6409 C   0  0  0  0  0  0  0  0  0  0  0  0
   69.9984   48.8004   54.8627 N   0  0  0  0  0  0  0  0  0  0  0  0
   69.3277   47.6314   55.1053 C   0  0  0  0  0  0  0  0  0  0  0  0
   68.7614   47.0570   53.9973 C   0  0  0  0  0  0  0  0  0  0  0  0
   68.0681   45.8952   54.1019 C   0  0  0  0  0  0  0  0  0  0  0  0
   67.4998   45.3217   52.9725 C   0  0  0  0  0  0  0  0  0  0  0  0
   67.6013   45.8739   51.7327 C   0  0  0  0  0  0  0  0  0  0  0  0
   67.0451   45.3116   50.6338 F   0  0  0  0  0  0  0  0  0  0  0  0
   68.2969   47.0476   51.6036 C   0  0  0  0  0  0  0  0  0  0  0  0
   68.8666   47.6241   52.7286 C   0  0  0  0  0  0  0  0  0  0  0  0
   69.5415   48.7722   52.5724 N   0  0  0  0  0  0  0  0  0  0  0  0
   70.3517   45.6898   58.1901 C   0  0  0  0  0  0  0  0  0  0  0  0
   70.7438   44.2636   58.0916 C   0  0  0  0  0  0  0  0  0  0  0  0
   69.8609   43.2344   57.9745 C   0  0  0  0  0  0  0  0  0  0  0  0
   70.2708   41.9080   57.8994 C   0  0  0  0  0  0  0  0  0  0  0  0
   71.6252   41.6519   57.9476 C   0  0  0  0  0  0  0  0  0  0  0  0
   72.5575   42.6683   58.0668 C   0  0  0  0  0  0  0  0  0  0  0  0
   73.9069   42.3708   58.1120 C   0  0  0  0  0  0  0  0  0  0  0  0
   74.8046   43.4040   58.2303 C   0  0  0  0  0  0  0  0  0  0  0  0
   74.3609   44.6972   58.3011 C   0  0  0  0  0  0  0  0  0  0  0  0
   73.0378   44.9264   58.2529 N   0  0  0  0  0  0  0  0  0  0  0  0
   72.1089   43.9722   58.1382 C   0  0  0  0  0  0  0  0  0  0  0  0
  4  5  1  0
  5  6  2  0
  5 15  1  0
  6  7  1  0
  7  1  1  0
  7  8  2  0
  1  2  2  0
  1  3  1  0
  3 16  1  0
 16 17  1  0
 17 18  2  0
 17 26  1  0
 18 19  1  0
 19 20  2  0
 20 21  1  0
 21 22  1  0
 21 26  2  0
 22 23  2  0
 23 24  1  0
 24 25  2  0
 25 26  1  0
  8  9  1  0
  8 14  1  0
  9 10  2  0
 10 11  1  0
 11 12  1  0
 11 13  2  0
 13 14  1  0
 14 15  2  0
M  END
>  <minimizedAffinity>  (509) 
-8.52629

$$$$
data/200k_reference_output/data/smiles/43506.pdb
     RDKit          3D

 27 30  0  0  0  0  0  0  0  0999 V2000
   71.6642   43.2604   57.9977 C   0  0  0  0  0  0  0  0  0  0  0  0
   72.8760   42.6681   58.3877 C   0  0  0  0  0  0  0  0  0  0  0  0
   72.9756   41.3340   58.7002 C   0  0  0  0  0  0  0  0  0  0  0  0
   71.8229   40.5856   58.6139 C   0  0  0  0  0  0  0  0  0  0  0  0
   71.8030   39.2395   58.9040 C   0  0  0  0  0  0  0  0  0  0  0  0
   70.6267   38.5107   58.8083 C   0  0  0  0  0  0  0  0  0  0  0  0
   69.4729   39.1524   58.4183 C   0  0  0  0  0  0  0  0  0  0  0  0
   68.4108   38.4784   58.3352 O   0  0  0  0  0  0  0  0  0  0  0  0
   69.5133   40.4446   58.1460 O   0  0  0  0  0  0  0  0  0  0  0  0
   70.6290   41.1598   58.2305 C   0  0  0  0  0  0  0  0  0  0  0  0
   70.5183   42.5038   57.9143 C   0  0  0  0  0  0  0  0  0  0  0  0
   70.7116   37.0628   59.1380 C   0  0  0  0  0  0  0  0  0  0  0  0
   71.8587   36.5158   58.3063 C   0  0  0  0  0  0  0  0  0  0  0  0
   73.1439   37.2400   58.4635 C   0  0  0  0  0  0  0  0  0  0  0  0
   72.9899   38.4738   59.3305 C   0  0  0  0  0  0  0  0  0  0  0  0
   71.6208   44.6030   57.6939 O   0  0  0  0  0  0  0  0  0  0  0  0
   71.1286   45.6452   58.4517 C   0  0  0  0  0  0  0  0  0  0  0  0
   70.2841   47.8150   57.9963 O   0  0  0  0  0  0  0  0  0  0  0  0
   70.2380   46.5925   57.7216 C   0  0  0  0  0  0  0  0  0  0  0  0
   69.3394   46.1682   56.7264 N   0  0  0  0  0  0  0  0  0  0  0  0
   68.4791   47.0798   56.0244 C   0  0  0  0  0  0  0  0  0  0  0  0
   68.5592   46.9965   54.5527 C   0  0  0  0  0  0  0  0  0  0  0  0
   67.8993   46.0201   53.8570 C   0  0  0  0  0  0  0  0  0  0  0  0
   67.9741   45.9182   52.4719 C   0  0  0  0  0  0  0  0  0  0  0  0
   68.7345   46.8253   51.7769 C   0  0  0  0  0  0  0  0  0  0  0  0
   69.3911   47.8021   52.4978 C   0  0  0  0  0  0  0  0  0  0  0  0
   69.2955   47.8695   53.8391 N   0  0  0  0  0  0  0  0  0  0  0  0
 18 19  2  0
 19 17  1  0
 19 20  1  0
 17 16  1  0
 16  1  1  0
  1  2  2  0
  1 11  1  0
  2  3  1  0
  3  4  2  0
  4  5  1  0
  4 10  1  0
  5  6  2  0
  5 15  1  0
  6  7  1  0
  6 12  1  0
  7  8  2  0
  7  9  1  0
  9 10  1  0
 10 11  2  0
 12 13  1  0
 13 14  1  0
 14 15  1  0
 20 21  1  0
 21 22  1  0
 22 23  2  0
 22 27  1  0
 23 24  1  0
 24 25  2  0
 25 26  1  0
 26 27  2  0
M  END
>  <minimizedAffinity>  (510) 
-8.53301

$$$$
data/200k_reference_output/data/smiles/43525.pdb
     RDKit          3D

 23 25  0  0  0  0  0  0  0  0999 V2000
   70.1898   51.1932   52.8293 O   0  0  0  0  0  0  0  0  0  0  0  0
   70.6435   50.0788   53.1637 C   0  0  0  0  0  0  0  0  0  0  0  0
   71.7105   50.0402   54.0847 N   0  0  0  0  0  0  0  0  0  0  0  0
   70.0585   48.8683   52.5962 C   0  0  0  0  0  0  0  0  0  0  0  0
   70.1434   48.3759   51.3107 C   0  0  0  0  0  0  0  0  0  0  0  0
   69.4784   47.1996   51.2680 N   0  0  0  0  0  0  0  0  0  0  0  0
   68.9552   46.8811   52.4487 C   0  0  0  0  0  0  0  0  0  0  0  0
   68.2066   45.7942   52.9036 C   0  0  0  0  0  0  0  0  0  0  0  0
   67.8149   45.7591   54.2178 C   0  0  0  0  0  0  0  0  0  0  0  0
   68.1658   46.7944   55.0510 C   0  0  0  0  0  0  0  0  0  0  0  0
   68.9146   47.8834   54.6046 C   0  0  0  0  0  0  0  0  0  0  0  0
   69.3132   47.9258   53.2935 C   0  0  0  0  0  0  0  0  0  0  0  0
   72.4615   51.4077   54.8052 S   0  0  0  0  0  0  0  0  0  0  0  0
   73.5674   50.9542   55.7424 O   0  0  0  0  0  0  0  0  0  0  0  0
   73.1345   52.2269   53.7540 O   0  0  0  0  0  0  0  0  0  0  0  0
   71.3308   52.3954   55.6376 N   0  0  0  0  0  0  0  0  0  0  0  0
   70.2192   51.7544   56.2653 C   0  0  0  0  0  0  0  0  0  0  0  0
   70.4129   50.7703   57.2156 C   0  0  0  0  0  0  0  0  0  0  0  0
   69.2888   50.1731   57.7961 C   0  0  0  0  0  0  0  0  0  0  0  0
   68.0252   50.5437   57.4425 C   0  0  0  0  0  0  0  0  0  0  0  0
   66.5936   49.8138   58.1505 Cl  0  0  0  0  0  0  0  0  0  0  0  0
   67.8440   51.5135   56.5037 C   0  0  0  0  0  0  0  0  0  0  0  0
   68.9350   52.1139   55.9206 C   0  0  0  0  0  0  0  0  0  0  0  0
  1  2  2  0
  2  3  1  0
  2  4  1  0
  3 13  1  0
 13 14  2  0
 13 15  2  0
 13 16  1  0
 16 17  1  0
 17 18  2  0
 17 23  1  0
 18 19  1  0
 19 20  2  0
 20 21  1  0
 20 22  1  0
 22 23  2  0
  4  5  2  0
  4 12  1  0
  5  6  1  0
  6  7  1  0
  7  8  1  0
  7 12  2  0
  8  9  2  0
  9 10  1  0
 10 11  2  0
 11 12  1  0
M  END
>  <minimizedAffinity>  (511) 
-8.51779

$$$$
data/200k_reference_output/data/smiles/43552.pdb
     RDKit          3D

 25 27  0  0  0  0  0  0  0  0999 V2000
   68.3548   41.3628   58.7337 O   0  0  0  0  0  0  0  0  0  0  0  0
   69.3892   40.4470   58.6426 C   0  0  0  0  0  0  0  0  0  0  0  0
   70.7167   40.8102   58.5191 C   0  0  0  0  0  0  0  0  0  0  0  0
   71.7269   39.8766   58.4311 C   0  0  0  0  0  0  0  0  0  0  0  0
   71.4441   38.5160   58.4627 C   0  0  0  0  0  0  0  0  0  0  0  0
   70.1201   38.1468   58.5852 C   0  0  0  0  0  0  0  0  0  0  0  0
   69.1358   39.0778   58.6715 C   0  0  0  0  0  0  0  0  0  0  0  0
   72.4881   37.5207   58.3708 C   0  0  0  0  0  0  0  0  0  0  0  0
   73.5265   37.5615   59.2726 C   0  0  0  0  0  0  0  0  0  0  0  0
   74.5416   36.6019   59.1901 C   0  0  0  0  0  0  0  0  0  0  0  0
   74.5111   35.6247   58.2205 C   0  0  0  0  0  0  0  0  0  0  0  0
   73.4728   35.5826   57.3171 C   0  0  0  0  0  0  0  0  0  0  0  0
   72.4601   36.5425   57.4033 C   0  0  0  0  0  0  0  0  0  0  0  0
   67.2554   41.4526   57.8981 C   0  0  0  0  0  0  0  0  0  0  0  0
   67.1895   41.5188   55.5750 O   0  0  0  0  0  0  0  0  0  0  0  0
   67.4316   42.1874   56.6396 C   0  0  0  0  0  0  0  0  0  0  0  0
   67.8289   43.5135   56.4553 N   0  0  0  0  0  0  0  0  0  0  0  0
   67.9653   44.1361   55.2050 N   0  0  0  0  0  0  0  0  0  0  0  0
   68.2316   45.5105   55.0686 C   0  0  0  0  0  0  0  0  0  0  0  0
   68.3503   46.1959   56.1260 O   0  0  0  0  0  0  0  0  0  0  0  0
   68.3704   46.1378   53.7416 C   0  0  0  0  0  0  0  0  0  0  0  0
   67.6946   45.7144   52.6166 C   0  0  0  0  0  0  0  0  0  0  0  0
   68.0904   46.5464   51.5936 C   0  0  0  0  0  0  0  0  0  0  0  0
   68.9853   47.4334   52.1455 C   0  0  0  0  0  0  0  0  0  0  0  0
   69.1216   47.1563   53.4185 O   0  0  0  0  0  0  0  0  0  0  0  0
 15 16  2  0
 16 14  1  0
 16 17  1  0
 14  1  1  0
  1  2  1  0
  2  3  2  0
  2  7  1  0
  3  4  1  0
  4  5  2  0
  5  8  1  0
  5  6  1  0
  8  9  2  0
  8 13  1  0
  9 10  1  0
 10 11  2  0
 11 12  1  0
 12 13  2  0
  6  7  2  0
 17 18  1  0
 18 19  1  0
 19 20  2  0
 19 21  1  0
 21 22  2  0
 21 25  1  0
 22 23  1  0
 23 24  2  0
 24 25  1  0
M  END
>  <minimizedAffinity>  (512) 
-8.86683

$$$$
data/200k_reference_output/data/smiles/43601.pdb
     RDKit          3D

 26 28  0  0  0  0  0  0  0  0999 V2000
   69.6416   48.4957   56.1143 N   0  0  0  0  0  0  0  0  0  0  0  0
   68.8696   47.3177   55.9739 C   0  0  0  0  0  0  0  0  0  0  0  0
   68.4090   46.6087   56.9199 O   0  0  0  0  0  0  0  0  0  0  0  0
   68.6764   47.0243   54.5413 C   0  0  0  0  0  0  0  0  0  0  0  0
   68.0098   46.0027   53.9015 C   0  0  0  0  0  0  0  0  0  0  0  0
   67.9766   45.9461   52.5294 C   0  0  0  0  0  0  0  0  0  0  0  0
   68.6136   46.9165   51.7697 C   0  0  0  0  0  0  0  0  0  0  0  0
   69.2753   47.9310   52.4278 C   0  0  0  0  0  0  0  0  0  0  0  0
   69.3258   48.0127   53.8058 C   0  0  0  0  0  0  0  0  0  0  0  0
   69.9211   48.9207   54.7697 C   0  0  0  0  0  0  0  0  0  0  0  0
   70.6043   49.9593   54.4856 O   0  0  0  0  0  0  0  0  0  0  0  0
   69.9203   48.9075   51.6412 N   0  0  0  0  0  0  0  0  0  0  0  0
   70.7576   48.4917   50.7834 O   0  0  0  0  0  0  0  0  0  0  0  0
   69.7469   50.2474   51.7022 O   0  0  0  0  0  0  0  0  0  0  0  0
   70.0904   49.2355   57.2561 C   0  0  0  0  0  0  0  0  0  0  0  0
   71.3684   48.8490   57.8635 C   0  0  0  0  0  0  0  0  0  0  0  0
   71.3848   47.8743   60.0189 O   0  0  0  0  0  0  0  0  0  0  0  0
   71.4296   47.7345   58.7905 C   0  0  0  0  0  0  0  0  0  0  0  0
   71.5486   46.3797   58.2913 N   0  0  0  0  0  0  0  0  0  0  0  0
   71.6084   45.2783   59.2025 C   0  0  0  0  0  0  0  0  0  0  0  0
   72.9656   44.6082   59.2473 C   0  0  0  0  0  0  0  0  0  0  0  0
   73.5081   44.2267   57.9170 C   0  0  0  0  0  0  0  0  0  0  0  0
   73.2568   42.7842   57.5456 C   0  0  0  0  0  0  0  0  0  0  0  0
   71.8632   42.3378   57.9254 C   0  0  0  0  0  0  0  0  0  0  0  0
   70.9017   43.4764   57.6627 C   0  0  0  0  0  0  0  0  0  0  0  0
   70.5889   44.2079   58.9264 C   0  0  0  0  0  0  0  0  0  0  0  0
 17 18  2  0
 18 16  1  0
 18 19  1  0
 16 15  1  0
 15  1  1  0
  1  2  1  0
  1 10  1  0
  2  3  2  0
  2  4  1  0
  4  5  1  0
  4  9  2  0
  5  6  2  0
  6  7  1  0
  7  8  2  0
  8 12  1  0
  8  9  1  0
 12 13  2  0
 12 14  1  0
  9 10  1  0
 10 11  2  0
 19 20  1  0
 20 21  1  0
 20 26  1  0
 21 22  1  0
 22 23  1  0
 23 24  1  0
 24 25  1  0
 25 26  1  0
M  CHG  2  12   1  14  -1
M  END
>  <minimizedAffinity>  (513) 
-8.64470

$$$$
data/200k_reference_output/data/smiles/43752.pdb
     RDKit          3D

 24 26  0  0  0  0  0  0  0  0999 V2000
   70.4088   49.6573   53.7668 S   0  0  0  0  0  0  0  0  0  0  0  0
   71.7897   49.3656   53.2456 O   0  0  0  0  0  0  0  0  0  0  0  0
   69.9068   50.8469   52.9674 O   0  0  0  0  0  0  0  0  0  0  0  0
   69.4394   48.2544   53.4817 C   0  0  0  0  0  0  0  0  0  0  0  0
   69.1067   47.3937   54.5301 C   0  0  0  0  0  0  0  0  0  0  0  0
   68.3375   46.2807   54.3047 C   0  0  0  0  0  0  0  0  0  0  0  0
   67.8664   45.9696   53.0497 C   0  0  0  0  0  0  0  0  0  0  0  0
   67.1134   44.9695   52.5532 N   0  0  0  0  0  0  0  0  0  0  0  0
   66.9641   45.1765   51.2383 C   0  0  0  0  0  0  0  0  0  0  0  0
   66.3027   44.4104   50.4691 O   0  0  0  0  0  0  0  0  0  0  0  0
   67.6094   46.2717   50.9389 O   0  0  0  0  0  0  0  0  0  0  0  0
   68.1816   46.8022   52.0027 C   0  0  0  0  0  0  0  0  0  0  0  0
   68.9560   47.9258   52.2221 C   0  0  0  0  0  0  0  0  0  0  0  0
   71.7552   50.3305   56.0303 C   0  0  0  0  0  0  0  0  0  0  0  0
   70.4540   50.1094   55.4286 N   0  0  0  0  0  0  0  0  0  0  0  0
   69.2571   50.2352   56.1418 C   0  0  0  0  0  0  0  0  0  0  0  0
   68.7284   49.1179   56.7938 C   0  0  0  0  0  0  0  0  0  0  0  0
   67.5986   49.2306   57.5655 C   0  0  0  0  0  0  0  0  0  0  0  0
   66.9473   50.4297   57.7286 C   0  0  0  0  0  0  0  0  0  0  0  0
   67.4596   51.5324   57.0893 C   0  0  0  0  0  0  0  0  0  0  0  0
   68.6186   51.4337   56.2908 C   0  0  0  0  0  0  0  0  0  0  0  0
   69.0569   52.6197   55.5721 C   0  0  0  0  0  0  0  0  0  0  0  0
   69.9637   53.3240   56.0568 O   0  0  0  0  0  0  0  0  0  0  0  0
   68.5061   53.0080   54.3607 O   0  0  0  0  0  0  0  0  0  0  0  0
 14 15  1  0
 15 16  1  0
 15  1  1  0
 16 17  2  0
 16 21  1  0
 17 18  1  0
 18 19  2  0
 19 20  1  0
 20 21  2  0
 21 22  1  0
 22 23  2  0
 22 24  1  0
  1  2  2  0
  1  3  2  0
  1  4  1  0
  4  5  2  0
  4 13  1  0
  5  6  1  0
  6  7  2  0
  7  8  1  0
  7 12  1  0
  8  9  1  0
  9 10  2  0
  9 11  1  0
 11 12  1  0
 12 13  2  0
M  END
>  <minimizedAffinity>  (514) 
-8.96816

$$$$
data/200k_reference_output/data/smiles/43801.pdb
     RDKit          3D

 27 30  0  0  0  0  0  0  0  0999 V2000
   69.5127   42.4891   57.8243 C   0  0  0  0  0  0  0  0  0  0  0  0
   68.4135   41.6235   57.6788 C   0  0  0  0  0  0  0  0  0  0  0  0
   68.5392   40.2701   57.8522 C   0  0  0  0  0  0  0  0  0  0  0  0
   69.7475   39.6795   58.1770 C   0  0  0  0  0  0  0  0  0  0  0  0
   69.8951   38.3545   58.3551 N   0  0  0  0  0  0  0  0  0  0  0  0
   71.1104   37.8164   58.6802 C   0  0  0  0  0  0  0  0  0  0  0  0
   72.1997   38.5894   58.8321 N   0  0  0  0  0  0  0  0  0  0  0  0
   72.0434   39.9177   58.6526 C   0  0  0  0  0  0  0  0  0  0  0  0
   73.0394   40.6791   58.7858 O   0  0  0  0  0  0  0  0  0  0  0  0
   70.8413   40.4966   58.3259 C   0  0  0  0  0  0  0  0  0  0  0  0
   70.7009   41.8809   58.1472 C   0  0  0  0  0  0  0  0  0  0  0  0
   73.3460   37.7498   59.1752 C   0  0  0  0  0  0  0  0  0  0  0  0
   72.9444   36.3749   58.7544 C   0  0  0  0  0  0  0  0  0  0  0  0
   71.4446   36.3890   58.9190 C   0  0  0  0  0  0  0  0  0  0  0  0
   70.2467   44.9182   57.7521 C   0  0  0  0  0  0  0  0  0  0  0  0
   71.4453   44.5873   58.0724 O   0  0  0  0  0  0  0  0  0  0  0  0
   69.3135   43.8815   57.6386 N   0  0  0  0  0  0  0  0  0  0  0  0
   70.0506   46.3515   57.5594 C   0  0  0  0  0  0  0  0  0  0  0  0
   68.9443   46.8164   56.8349 N   0  0  0  0  0  0  0  0  0  0  0  0
   69.1582   47.7309   55.7673 C   0  0  0  0  0  0  0  0  0  0  0  0
   70.0264   49.0311   53.2785 C   0  0  0  0  0  0  0  0  0  0  0  0
   69.2072   47.7850   53.2924 C   0  0  0  0  0  0  0  0  0  0  0  0
   68.8374   47.2143   52.0744 C   0  0  0  0  0  0  0  0  0  0  0  0
   68.0829   46.0649   52.0022 C   0  0  0  0  0  0  0  0  0  0  0  0
   67.6808   45.4598   53.1640 C   0  0  0  0  0  0  0  0  0  0  0  0
   68.0490   46.0282   54.3878 C   0  0  0  0  0  0  0  0  0  0  0  0
   68.8007   47.1746   54.4415 C   0  0  0  0  0  0  0  0  0  0  0  0
 21 22  1  0
 22 23  2  0
 22 27  1  0
 23 24  1  0
 24 25  2  0
 25 26  1  0
 26 27  2  0
 27 20  1  0
 20 19  1  0
 19 18  1  0
 18 15  1  0
 15 16  2  0
 15 17  1  0
 17  1  1  0
  1  2  2  0
  1 11  1  0
  2  3  1  0
  3  4  2  0
  4  5  1  0
  4 10  1  0
  5  6  2  0
  6  7  1  0
  6 14  1  0
  7  8  1  0
  7 12  1  0
  8  9  2  0
  8 10  1  0
 10 11  2  0
 12 13  1  0
 13 14  1  0
M  CHG  1  19   1
M  END
>  <minimizedAffinity>  (515) 
-8.69562

$$$$
data/200k_reference_output/data/smiles/43816.pdb
     RDKit          3D

 24 26  0  0  0  0  0  0  0  0999 V2000
   67.7901   44.9428   55.2617 N   0  0  0  0  0  0  0  0  0  0  0  0
   68.2998   46.2740   55.3292 C   0  0  0  0  0  0  0  0  0  0  0  0
   68.3734   46.9041   56.4349 N   0  0  0  0  0  0  0  0  0  0  0  0
   68.8489   48.2205   56.6787 C   0  0  0  0  0  0  0  0  0  0  0  0
   70.0389   48.1289   57.6525 C   0  0  0  0  0  0  0  0  0  0  0  0
   67.8088   49.0465   57.4495 C   0  0  0  0  0  0  0  0  0  0  0  0
   69.3256   48.9913   55.5008 C   0  0  0  0  0  0  0  0  0  0  0  0
   69.2420   48.2542   54.2188 C   0  0  0  0  0  0  0  0  0  0  0  0
   69.6890   48.9534   53.0950 C   0  0  0  0  0  0  0  0  0  0  0  0
   69.6395   48.3321   51.8692 C   0  0  0  0  0  0  0  0  0  0  0  0
   69.1512   47.0304   51.7614 C   0  0  0  0  0  0  0  0  0  0  0  0
   68.7121   46.3492   52.8771 C   0  0  0  0  0  0  0  0  0  0  0  0
   68.7577   46.9629   54.1069 C   0  0  0  0  0  0  0  0  0  0  0  0
   67.8445   42.6513   56.2013 C   0  0  0  0  0  0  0  0  0  0  0  0
   66.7429   42.4292   55.6178 O   0  0  0  0  0  0  0  0  0  0  0  0
   68.4060   43.9327   56.0361 N   0  0  0  0  0  0  0  0  0  0  0  0
   69.5481   39.4489   58.5036 C   0  0  0  0  0  0  0  0  0  0  0  0
   70.1428   40.6902   58.4460 C   0  0  0  0  0  0  0  0  0  0  0  0
   69.5951   41.7352   57.6993 C   0  0  0  0  0  0  0  0  0  0  0  0
   68.4274   41.5665   56.9853 C   0  0  0  0  0  0  0  0  0  0  0  0
   67.8404   40.3182   57.0507 C   0  0  0  0  0  0  0  0  0  0  0  0
   68.3820   39.2873   57.7879 C   0  0  0  0  0  0  0  0  0  0  0  0
   71.1729   37.6452   58.7283 C   0  0  0  0  0  0  0  0  0  0  0  0
   70.1025   38.4084   59.2531 O   0  0  0  0  0  0  0  0  0  0  0  0
 23 24  1  0
 24 17  1  0
 17 18  2  0
 17 22  1  0
 18 19  1  0
 19 20  2  0
 20 14  1  0
 20 21  1  0
 14 15  2  0
 14 16  1  0
 16  1  1  0
  1  2  1  0
  2  3  2  0
  2 13  1  0
  3  4  1  0
  4  5  1  0
  4  6  1  0
  4  7  1  0
  7  8  1  0
  8  9  2  0
  8 13  1  0
  9 10  1  0
 10 11  2  0
 11 12  1  0
 12 13  2  0
 21 22  2  0
M  CHG  1   3   1
M  END
>  <minimizedAffinity>  (516) 
-8.74883

$$$$
data/200k_reference_output/data/smiles/43822.pdb
     RDKit          3D

 27 29  0  0  0  0  0  0  0  0999 V2000
   70.3534   46.0629   58.9655 O   0  0  0  0  0  0  0  0  0  0  0  0
   69.9365   46.3043   57.7779 C   0  0  0  0  0  0  0  0  0  0  0  0
   69.5633   45.1720   57.0180 N   0  0  0  0  0  0  0  0  0  0  0  0
   69.6603   43.9077   57.5923 N   0  0  0  0  0  0  0  0  0  0  0  0
   68.9072   42.7905   57.2187 C   0  0  0  0  0  0  0  0  0  0  0  0
   68.0654   42.9064   56.2917 O   0  0  0  0  0  0  0  0  0  0  0  0
   69.0623   41.4723   57.8741 C   0  0  2  0  0  0  0  0  0  0  0  0
   68.0064   40.4878   57.4139 C   0  0  0  0  0  0  0  0  0  0  0  0
   68.4257   39.1339   57.9537 C   0  0  0  0  0  0  0  0  0  0  0  0
   68.3049   39.2133   59.4629 C   0  0  0  0  0  0  0  0  0  0  0  0
   69.3390   40.2058   59.9526 C   0  0  0  0  0  0  0  0  0  0  0  0
   69.1609   41.5686   59.3644 C   0  0  2  0  0  0  0  0  0  0  0  0
   68.0709   42.3154   59.9935 C   0  0  0  0  0  0  0  0  0  0  0  0
   66.8709   41.9443   60.0577 O   0  0  0  0  0  0  0  0  0  0  0  0
   68.3751   43.5406   60.5738 O   0  0  0  0  0  0  0  0  0  0  0  0
   69.8960   47.7007   57.3424 C   0  0  0  0  0  0  0  0  0  0  0  0
   68.9936   48.0021   56.3160 O   0  0  0  0  0  0  0  0  0  0  0  0
   69.3426   48.3225   55.0285 C   0  0  0  0  0  0  0  0  0  0  0  0
   70.1326   49.3995   54.6871 C   0  0  0  0  0  0  0  0  0  0  0  0
   70.4093   49.6068   53.3543 C   0  0  0  0  0  0  0  0  0  0  0  0
   69.9313   48.7864   52.3611 C   0  0  0  0  0  0  0  0  0  0  0  0
   69.1440   47.7143   52.7125 C   0  0  0  0  0  0  0  0  0  0  0  0
   68.6369   46.8563   51.7373 C   0  0  0  0  0  0  0  0  0  0  0  0
   67.8441   45.7687   52.0404 C   0  0  0  0  0  0  0  0  0  0  0  0
   67.5614   45.5533   53.3732 C   0  0  0  0  0  0  0  0  0  0  0  0
   68.0442   46.3805   54.3633 C   0  0  0  0  0  0  0  0  0  0  0  0
   68.8359   47.4629   54.0424 C   0  0  0  0  0  0  0  0  0  0  0  0
  1  2  2  0
  2 16  1  0
  2  3  1  0
 16 17  1  0
 17 18  1  0
 18 19  2  0
 18 27  1  0
 19 20  1  0
 20 21  2  0
 21 22  1  0
 22 23  1  0
 22 27  2  0
 23 24  2  0
 24 25  1  0
 25 26  2  0
 26 27  1  0
  3  4  1  0
  4  5  1  0
  5  6  2  0
  7  5  1  6
  7  8  1  0
  7 12  1  0
  8  9  1  0
  9 10  1  0
 10 11  1  0
 11 12  1  0
 12 13  1  1
 13 14  2  0
 13 15  1  0
M  END
>  <minimizedAffinity>  (517) 
-8.99577

$$$$
data/200k_reference_output/data/smiles/43841.pdb
     RDKit          3D

 24 26  0  0  0  0  0  0  0  0999 V2000
   69.3046   46.1055   57.5299 O   0  0  0  0  0  0  0  0  0  0  0  0
   70.3511   46.7895   57.6497 C   0  0  0  0  0  0  0  0  0  0  0  0
   70.4436   48.1061   57.0636 N   0  0  0  0  0  0  0  0  0  0  0  0
   71.4827   46.2076   58.4083 C   0  0  0  0  0  0  0  0  0  0  0  0
   71.6579   44.8762   58.0094 O   0  0  0  0  0  0  0  0  0  0  0  0
   72.9012   44.2836   58.0822 C   0  0  0  0  0  0  0  0  0  0  0  0
   74.0133   44.9896   58.5529 C   0  0  0  0  0  0  0  0  0  0  0  0
   75.2696   44.4572   58.6457 C   0  0  0  0  0  0  0  0  0  0  0  0
   75.4398   43.1294   58.2427 C   0  0  0  0  0  0  0  0  0  0  0  0
   77.0527   42.4364   58.3579 Cl  0  0  0  0  0  0  0  0  0  0  0  0
   74.3806   42.3956   57.7736 C   0  0  0  0  0  0  0  0  0  0  0  0
   73.1174   42.9839   57.6971 C   0  0  0  0  0  0  0  0  0  0  0  0
   69.3020   48.6154   56.3356 C   0  0  0  0  0  0  0  0  0  0  0  0
   69.6204   48.6537   54.8738 C   0  0  0  0  0  0  0  0  0  0  0  0
   70.4641   49.5737   54.3539 N   0  0  0  0  0  0  0  0  0  0  0  0
   70.7365   49.6015   53.0653 N   0  0  0  0  0  0  0  0  0  0  0  0
   70.2106   48.7398   52.1793 C   0  0  0  0  0  0  0  0  0  0  0  0
   70.4740   48.7716   50.9496 O   0  0  0  0  0  0  0  0  0  0  0  0
   69.3316   47.7623   52.6366 C   0  0  0  0  0  0  0  0  0  0  0  0
   68.7509   46.8407   51.7937 C   0  0  0  0  0  0  0  0  0  0  0  0
   67.8873   45.8884   52.2895 C   0  0  0  0  0  0  0  0  0  0  0  0
   67.6019   45.8568   53.6348 C   0  0  0  0  0  0  0  0  0  0  0  0
   68.1852   46.7802   54.4714 C   0  0  0  0  0  0  0  0  0  0  0  0
   69.0615   47.7526   53.9950 C   0  0  0  0  0  0  0  0  0  0  0  0
  1  2  2  0
  2  4  1  0
  2  3  1  0
  4  5  1  0
  5  6  1  0
  6  7  2  0
  6 12  1  0
  7  8  1  0
  8  9  2  0
  9 10  1  0
  9 11  1  0
 11 12  2  0
  3 13  1  0
 13 14  1  0
 14 15  2  0
 14 24  1  0
 15 16  1  0
 16 17  1  0
 17 18  2  0
 17 19  1  0
 19 20  1  0
 19 24  2  0
 20 21  2  0
 21 22  1  0
 22 23  2  0
 23 24  1  0
M  END
>  <minimizedAffinity>  (518) 
-8.73015

$$$$
data/200k_reference_output/data/smiles/43845.pdb
     RDKit          3D

 22 24  0  0  0  0  0  0  0  0999 V2000
   68.2929   44.5661   55.8695 N   0  0  0  0  0  0  0  0  0  0  0  0
   67.9455   45.0099   54.7338 C   0  0  0  0  0  0  0  0  0  0  0  0
   68.4573   46.2221   54.1138 C   0  0  0  0  0  0  0  0  0  0  0  0
   68.4856   47.4119   54.8055 C   0  0  0  0  0  0  0  0  0  0  0  0
   68.9605   48.5867   54.2593 C   0  0  0  0  0  0  0  0  0  0  0  0
   69.4371   48.6043   52.9667 C   0  0  0  0  0  0  0  0  0  0  0  0
   69.4180   47.4212   52.2530 C   0  0  0  0  0  0  0  0  0  0  0  0
   68.9371   46.2483   52.8143 C   0  0  0  0  0  0  0  0  0  0  0  0
   69.9324   47.7325   51.0436 N   0  0  0  0  0  0  0  0  0  0  0  0
   70.2360   48.9955   51.0281 O   0  0  0  0  0  0  0  0  0  0  0  0
   69.9521   49.5563   52.1665 N   0  0  0  0  0  0  0  0  0  0  0  0
   70.1430   50.8940   52.5084 O   0  0  0  0  0  0  0  0  0  0  0  0
   69.8495   42.8104   57.2197 O   0  0  0  0  0  0  0  0  0  0  0  0
   68.6120   42.4825   57.1744 C   0  0  0  0  0  0  0  0  0  0  0  0
   67.8033   43.4034   56.4663 N   0  0  0  0  0  0  0  0  0  0  0  0
   68.1344   41.2672   57.8060 C   0  0  0  0  0  0  0  0  0  0  0  0
   67.1924   41.3566   58.8046 C   0  0  0  0  0  0  0  0  0  0  0  0
   66.6980   40.2131   59.4468 C   0  0  0  0  0  0  0  0  0  0  0  0
   67.1695   38.9843   59.0648 C   0  0  0  0  0  0  0  0  0  0  0  0
   66.6790   37.8713   59.7000 F   0  0  0  0  0  0  0  0  0  0  0  0
   68.1018   38.8760   58.0789 C   0  0  0  0  0  0  0  0  0  0  0  0
   68.5885   40.0322   57.4437 C   0  0  0  0  0  0  0  0  0  0  0  0
 13 14  2  0
 14 15  1  0
 14 16  1  0
 15  1  1  0
  1  2  2  0
  2  3  1  0
  3  4  1  0
  3  8  2  0
  4  5  2  0
  5  6  1  0
  6  7  1  0
  6 11  2  0
  7  8  1  0
  7  9  2  0
  9 10  1  0
 10 11  1  0
 11 12  1  0
 16 17  2  0
 16 22  1  0
 17 18  1  0
 18 19  2  0
 19 20  1  0
 19 21  1  0
 21 22  2  0
M  CHG  2  11   1  12  -1
M  END
>  <minimizedAffinity>  (519) 
-8.60158

$$$$
data/200k_reference_output/data/smiles/43862.pdb
     RDKit          3D

 24 26  0  0  0  0  0  0  0  0999 V2000
   68.7980   42.9004   56.8809 C   0  0  0  0  0  0  0  0  0  0  0  0
   68.5177   41.4387   57.5805 S   0  0  0  0  0  0  0  0  0  0  0  0
   69.6881   44.4531   59.0373 O   0  0  0  0  0  0  0  0  0  0  0  0
   70.5058   44.2450   58.1031 C   0  0  0  0  0  0  0  0  0  0  0  0
   70.1068   43.4658   56.9935 N   0  0  0  0  0  0  0  0  0  0  0  0
   71.8408   44.8244   58.2060 C   0  0  0  0  0  0  0  0  0  0  0  0
   71.8506   46.1865   58.5424 C   0  0  0  0  0  0  0  0  0  0  0  0
   73.0399   46.8601   58.6620 C   0  0  0  0  0  0  0  0  0  0  0  0
   74.1898   46.1402   58.4383 C   0  0  0  0  0  0  0  0  0  0  0  0
   74.2065   44.8204   58.1128 C   0  0  0  0  0  0  0  0  0  0  0  0
   72.9909   44.1482   57.9939 C   0  0  0  0  0  0  0  0  0  0  0  0
   72.9470   42.4508   57.5849 Cl  0  0  0  0  0  0  0  0  0  0  0  0
   67.7618   43.5443   56.1972 N   0  0  0  0  0  0  0  0  0  0  0  0
   67.8702   44.5273   55.2344 N   0  0  0  0  0  0  0  0  0  0  0  0
   68.3324   45.8380   55.4183 C   0  0  0  0  0  0  0  0  0  0  0  0
   68.4910   46.4666   56.5896 N   0  0  0  0  0  0  0  0  0  0  0  0
   68.9284   47.7409   56.6820 C   0  0  0  0  0  0  0  0  0  0  0  0
   69.2285   48.4400   55.5668 N   0  0  0  0  0  0  0  0  0  0  0  0
   69.0950   47.8735   54.3270 C   0  0  0  0  0  0  0  0  0  0  0  0
   69.4034   48.5793   53.1870 C   0  0  0  0  0  0  0  0  0  0  0  0
   69.2783   48.0215   51.9304 C   0  0  0  0  0  0  0  0  0  0  0  0
   68.8279   46.7196   51.8863 C   0  0  0  0  0  0  0  0  0  0  0  0
   68.5157   45.9995   53.0164 C   0  0  0  0  0  0  0  0  0  0  0  0
   68.6476   46.5777   54.2703 C   0  0  0  0  0  0  0  0  0  0  0  0
  3  4  2  0
  4  5  1  0
  4  6  1  0
  5  1  1  0
  1  2  2  0
  1 13  1  0
 13 14  1  0
 14 15  1  0
 15 16  2  0
 15 24  1  0
 16 17  1  0
 17 18  2  0
 18 19  1  0
 19 20  1  0
 19 24  2  0
 20 21  2  0
 21 22  1  0
 22 23  2  0
 23 24  1  0
  6  7  2  0
  6 11  1  0
  7  8  1  0
  8  9  2  0
  9 10  1  0
 10 11  2  0
 11 12  1  0
M  END
>  <minimizedAffinity>  (520) 
-8.66608

$$$$
data/200k_reference_output/data/smiles/43924.pdb
     RDKit          3D

 26 28  0  0  0  0  0  0  0  0999 V2000
   70.7439   49.3819   57.5483 C   0  0  0  0  0  0  0  0  0  0  0  0
   70.0671   48.4428   56.6096 C   0  0  0  0  0  0  0  0  0  0  0  0
   69.8021   48.7880   55.2797 C   0  0  0  0  0  0  0  0  0  0  0  0
   69.1818   47.6664   54.7590 C   0  0  0  0  0  0  0  0  0  0  0  0
   68.6996   47.4357   53.4890 C   0  0  0  0  0  0  0  0  0  0  0  0
   68.1062   46.2155   53.1850 C   0  0  0  0  0  0  0  0  0  0  0  0
   68.0083   45.2550   54.1498 C   0  0  0  0  0  0  0  0  0  0  0  0
   68.5050   45.5063   55.4395 C   0  0  0  0  0  0  0  0  0  0  0  0
   69.0892   46.7067   55.7442 C   0  0  0  0  0  0  0  0  0  0  0  0
   69.6288   47.1857   56.8638 N   0  0  0  0  0  0  0  0  0  0  0  0
   67.5971   45.9875   51.8280 C   0  0  0  0  0  0  0  0  0  0  0  0
   68.0006   46.7325   50.9007 O   0  0  0  0  0  0  0  0  0  0  0  0
   66.6999   44.9884   51.5552 O   0  0  0  0  0  0  0  0  0  0  0  0
   70.1200   50.0704   54.5971 C   0  0  0  0  0  0  0  0  0  0  0  0
   71.4125   49.9062   53.8872 C   0  0  0  0  0  0  0  0  0  0  0  0
   71.4068   49.1756   52.8611 O   0  0  0  0  0  0  0  0  0  0  0  0
   72.6135   50.5071   54.2893 N   0  0  0  0  0  0  0  0  0  0  0  0
   73.8332   50.3472   53.6124 N   0  0  0  0  0  0  0  0  0  0  0  0
   69.7487   46.5133   58.1638 C   0  0  0  0  0  0  0  0  0  0  0  0
   70.8548   45.5152   58.1753 C   0  0  0  0  0  0  0  0  0  0  0  0
   72.1451   45.9532   58.3521 C   0  0  0  0  0  0  0  0  0  0  0  0
   73.1840   45.0402   58.3640 C   0  0  0  0  0  0  0  0  0  0  0  0
   72.9937   43.6851   58.2061 C   0  0  0  0  0  0  0  0  0  0  0  0
   71.6873   43.2774   58.0311 C   0  0  0  0  0  0  0  0  0  0  0  0
   71.3857   41.5612   57.8240 Cl  0  0  0  0  0  0  0  0  0  0  0  0
   70.6320   44.1650   58.0139 C   0  0  0  0  0  0  0  0  0  0  0  0
  1  2  1  0
  2  3  2  0
  2 10  1  0
  3 14  1  0
  3  4  1  0
 14 15  1  0
 15 16  2  0
 15 17  1  0
 17 18  1  0
  4  5  2  0
  4  9  1  0
  5  6  1  0
  6 11  1  0
  6  7  2  0
 11 12  2  0
 11 13  1  0
  7  8  1  0
  8  9  2  0
  9 10  1  0
 10 19  1  0
 19 20  1  0
 20 21  2  0
 20 26  1  0
 21 22  1  0
 22 23  2  0
 23 24  1  0
 24 25  1  0
 24 26  2  0
M  END
>  <minimizedAffinity>  (521) 
-8.54505

$$$$
data/200k_reference_output/data/smiles/44053.pdb
     RDKit          3D

 26 30  0  0  0  0  0  0  0  0999 V2000
   71.9609   47.3429   59.5448 C   0  0  0  0  0  0  0  0  0  0  0  0
   70.8871   47.3288   58.5996 N   0  0  0  0  0  0  0  0  0  0  0  0
   70.2476   48.4654   58.2400 C   0  0  0  0  0  0  0  0  0  0  0  0
   70.5725   49.6989   58.7668 C   0  0  0  0  0  0  0  0  0  0  0  0
   69.8954   50.8693   58.3832 C   0  0  0  0  0  0  0  0  0  0  0  0
   68.8815   50.7909   57.4617 C   0  0  0  0  0  0  0  0  0  0  0  0
   68.2026   51.9111   57.0664 F   0  0  0  0  0  0  0  0  0  0  0  0
   68.5752   49.5678   56.9536 C   0  0  0  0  0  0  0  0  0  0  0  0
   69.2228   48.3812   57.3078 C   0  0  0  0  0  0  0  0  0  0  0  0
   68.8318   47.1920   56.7352 C   0  0  0  0  0  0  0  0  0  0  0  0
   69.5132   46.0637   57.1331 C   0  0  0  0  0  0  0  0  0  0  0  0
   69.3804   44.7579   56.7738 N   0  0  0  0  0  0  0  0  0  0  0  0
   70.2675   44.0147   57.4301 C   0  0  0  0  0  0  0  0  0  0  0  0
   70.5270   42.6631   57.4155 C   0  0  0  0  0  0  0  0  0  0  0  0
   71.5102   42.0751   58.1902 C   0  0  0  0  0  0  0  0  0  0  0  0
   72.2453   42.9246   59.0057 C   0  0  0  0  0  0  0  0  0  0  0  0
   72.0168   44.2807   59.0491 C   0  0  0  0  0  0  0  0  0  0  0  0
   71.0353   44.8375   58.2702 C   0  0  0  0  0  0  0  0  0  0  0  0
   70.5381   46.1146   58.0597 C   0  0  0  0  0  0  0  0  0  0  0  0
   67.7833   47.1174   55.7826 N   0  0  0  0  0  0  0  0  0  0  0  0
   68.1007   46.9668   54.3803 C   0  0  0  0  0  0  0  0  0  0  0  0
   67.5630   45.9448   53.6417 C   0  0  0  0  0  0  0  0  0  0  0  0
   67.8787   45.8229   52.3166 C   0  0  0  0  0  0  0  0  0  0  0  0
   68.7319   46.7186   51.7172 C   0  0  0  0  0  0  0  0  0  0  0  0
   69.2825   47.7556   52.4474 C   0  0  0  0  0  0  0  0  0  0  0  0
   68.9563   47.8664   53.7831 C   0  0  0  0  0  0  0  0  0  0  0  0
  1  2  1  0
  2  3  2  0
  2 19  1  0
  3  4  1  0
  3  9  1  0
  4  5  2  0
  5  6  1  0
  6  7  1  0
  6  8  2  0
  8  9  1  0
  9 10  2  0
 10 20  1  0
 10 11  1  0
 20 21  1  0
 21 22  2  0
 21 26  1  0
 22 23  1  0
 23 24  2  0
 24 25  1  0
 25 26  2  0
 11 12  1  0
 11 19  2  0
 12 13  1  0
 13 14  1  0
 13 18  2  0
 14 15  2  0
 15 16  1  0
 16 17  2  0
 17 18  1  0
 18 19  1  0
M  CHG  1   2   1
M  END
>  <minimizedAffinity>  (522) 
-8.87407

$$$$
data/200k_reference_output/data/smiles/44221.pdb
     RDKit          3D

 27 30  0  0  0  0  0  0  0  0999 V2000
   69.9402   49.2326   54.2806 C   0  0  0  0  0  0  0  0  0  0  0  0
   71.1994   49.3337   54.1293 O   0  0  0  0  0  0  0  0  0  0  0  0
   69.1816   50.3573   53.9474 N   0  0  0  0  0  0  0  0  0  0  0  0
   69.5048   46.4320   58.0694 N   0  0  0  0  0  0  0  0  0  0  0  0
   69.2235   46.6188   56.6700 C   0  0  0  0  0  0  0  0  0  0  0  0
   69.6558   47.7496   56.1082 N   0  0  0  0  0  0  0  0  0  0  0  0
   69.4213   47.9899   54.7828 C   0  0  0  0  0  0  0  0  0  0  0  0
   68.7431   47.0355   54.0807 C   0  0  0  0  0  0  0  0  0  0  0  0
   68.5025   47.1862   52.7330 C   0  0  0  0  0  0  0  0  0  0  0  0
   67.8395   46.2116   52.0088 C   0  0  0  0  0  0  0  0  0  0  0  0
   67.6135   46.3823   50.6899 F   0  0  0  0  0  0  0  0  0  0  0  0
   67.4024   45.0608   52.6157 C   0  0  0  0  0  0  0  0  0  0  0  0
   66.7428   44.1032   51.8774 F   0  0  0  0  0  0  0  0  0  0  0  0
   67.6308   44.8794   53.9610 C   0  0  0  0  0  0  0  0  0  0  0  0
   68.2899   45.8511   54.6713 C   0  0  0  0  0  0  0  0  0  0  0  0
   68.5546   45.6874   55.9739 N   0  0  0  0  0  0  0  0  0  0  0  0
   69.7718   51.5841   53.4287 C   0  0  0  0  0  0  0  0  0  0  0  0
   70.1976   52.4148   54.5751 C   0  0  0  0  0  0  0  0  0  0  0  0
   69.2574   52.8553   55.4838 C   0  0  0  0  0  0  0  0  0  0  0  0
   69.6180   53.6403   56.5773 C   0  0  0  0  0  0  0  0  0  0  0  0
   70.9419   53.9846   56.7585 C   0  0  0  0  0  0  0  0  0  0  0  0
   71.9067   53.5608   55.8694 C   0  0  0  0  0  0  0  0  0  0  0  0
   73.2225   53.9000   56.0466 C   0  0  0  0  0  0  0  0  0  0  0  0
   74.1532   53.4579   55.1424 C   0  0  0  0  0  0  0  0  0  0  0  0
   73.7265   52.6814   54.0786 C   0  0  0  0  0  0  0  0  0  0  0  0
   72.4311   52.3588   53.9208 N   0  0  0  0  0  0  0  0  0  0  0  0
   71.4990   52.7831   54.7989 C   0  0  0  0  0  0  0  0  0  0  0  0
  4  5  1  0
  5  6  2  0
  5 16  1  0
  6  7  1  0
  7  1  1  0
  7  8  2  0
  1  2  2  0
  1  3  1  0
  3 17  1  0
 17 18  1  0
 18 19  2  0
 18 27  1  0
 19 20  1  0
 20 21  2  0
 21 22  1  0
 22 23  1  0
 22 27  2  0
 23 24  2  0
 24 25  1  0
 25 26  2  0
 26 27  1  0
  8  9  1  0
  8 15  1  0
  9 10  2  0
 10 11  1  0
 10 12  1  0
 12 13  1  0
 12 14  2  0
 14 15  1  0
 15 16  2  0
M  END
>  <minimizedAffinity>  (523) 
-8.84807

$$$$
data/200k_reference_output/data/smiles/44279.pdb
     RDKit          3D

 26 29  0  0  0  0  0  0  0  0999 V2000
   69.2433   47.5762   56.0176 N   0  0  0  0  0  0  0  0  0  0  0  0
   69.6622   48.5580   55.2028 C   0  0  0  0  0  0  0  0  0  0  0  0
   69.4484   48.4973   53.8187 C   0  0  0  0  0  0  0  0  0  0  0  0
   68.7986   47.4258   53.2364 C   0  0  0  0  0  0  0  0  0  0  0  0
   68.5766   47.3439   51.8706 C   0  0  0  0  0  0  0  0  0  0  0  0
   67.9269   46.2704   51.2975 C   0  0  0  0  0  0  0  0  0  0  0  0
   67.5037   45.2709   52.1495 C   0  0  0  0  0  0  0  0  0  0  0  0
   67.7239   45.3511   53.5099 C   0  0  0  0  0  0  0  0  0  0  0  0
   68.3734   46.4260   54.0830 C   0  0  0  0  0  0  0  0  0  0  0  0
   68.6017   46.5217   55.4372 C   0  0  0  0  0  0  0  0  0  0  0  0
   68.2001   45.5979   56.1934 O   0  0  0  0  0  0  0  0  0  0  0  0
   69.9948   49.6804   53.1695 C   0  0  0  0  0  0  0  0  0  0  0  0
   70.0105   50.0062   51.9619 O   0  0  0  0  0  0  0  0  0  0  0  0
   70.5584   50.4733   54.2448 C   0  0  0  0  0  0  0  0  0  0  0  0
   71.2056   51.6869   54.2429 C   0  0  0  0  0  0  0  0  0  0  0  0
   71.6607   52.2559   55.4113 C   0  0  0  0  0  0  0  0  0  0  0  0
   71.4845   51.6258   56.6261 C   0  0  0  0  0  0  0  0  0  0  0  0
   70.8300   50.3976   56.6261 C   0  0  0  0  0  0  0  0  0  0  0  0
   70.3711   49.8188   55.4783 C   0  0  0  0  0  0  0  0  0  0  0  0
   69.4100   47.5982   57.4624 C   0  0  0  0  0  0  0  0  0  0  0  0
   70.4340   46.6846   58.0075 C   0  0  0  0  0  0  0  0  0  0  0  0
   70.4694   44.3381   58.6254 C   0  0  0  0  0  0  0  0  0  0  0  0
   71.1492   44.1032   57.5959 O   0  0  0  0  0  0  0  0  0  0  0  0
   70.0360   45.6899   58.9355 N   0  0  0  0  0  0  0  0  0  0  0  0
   68.9236   43.4967   60.2547 N   0  0  0  0  0  0  0  0  0  0  0  0
   70.1193   43.2142   59.5108 C   0  0  0  0  0  0  0  0  0  0  0  0
 25 26  1  0
 26 22  1  0
 22 23  2  0
 22 24  1  0
 24 21  1  0
 21 20  1  0
 20  1  1  0
  1  2  1  0
  1 10  1  0
  2  3  2  0
  2 19  1  0
  3  4  1  0
  3 12  1  0
  4  5  1  0
  4  9  2  0
  5  6  2  0
  6  7  1  0
  7  8  2  0
  8  9  1  0
  9 10  1  0
 10 11  2  0
 12 13  2  0
 12 14  1  0
 14 15  1  0
 14 19  2  0
 15 16  2  0
 16 17  1  0
 17 18  2  0
 18 19  1  0
M  CHG  1  25   1
M  END
>  <minimizedAffinity>  (524) 
-8.59365

$$$$
data/200k_reference_output/data/smiles/44301.pdb
     RDKit          3D

 27 29  0  0  0  0  0  0  0  0999 V2000
   69.7039   43.6811   57.3520 N   0  0  0  0  0  0  0  0  0  0  0  0
   69.1801   42.5321   57.3896 C   0  0  0  0  0  0  0  0  0  0  0  0
   67.8371   42.2244   56.9287 C   0  0  0  0  0  0  0  0  0  0  0  0
   66.9647   42.9919   56.4632 O   0  0  0  0  0  0  0  0  0  0  0  0
   67.6862   40.8074   57.1218 N   0  0  0  0  0  0  0  0  0  0  0  0
   68.8791   40.2512   57.6802 C   0  0  0  0  0  0  0  0  0  0  0  0
   69.1958   38.9503   58.0453 C   0  0  0  0  0  0  0  0  0  0  0  0
   70.4378   38.6742   58.5874 C   0  0  0  0  0  0  0  0  0  0  0  0
   71.3834   39.6749   58.7795 C   0  0  0  0  0  0  0  0  0  0  0  0
   71.0207   40.9460   58.3984 C   0  0  0  0  0  0  0  0  0  0  0  0
   72.1583   42.2459   58.6108 Cl  0  0  0  0  0  0  0  0  0  0  0  0
   69.7936   41.2691   57.8528 C   0  0  0  0  0  0  0  0  0  0  0  0
   70.6928   46.3584   57.6741 O   0  0  0  0  0  0  0  0  0  0  0  0
   69.6434   46.1626   57.0503 C   0  0  0  0  0  0  0  0  0  0  0  0
   69.1502   44.8642   56.8826 N   0  0  0  0  0  0  0  0  0  0  0  0
   68.8834   47.3051   56.4578 C   0  0  0  0  0  0  0  0  0  0  0  0
   68.7112   47.1219   54.9679 C   0  0  0  0  0  0  0  0  0  0  0  0
   68.0286   46.0660   54.4330 C   0  0  0  0  0  0  0  0  0  0  0  0
   67.9306   45.9266   53.0650 C   0  0  0  0  0  0  0  0  0  0  0  0
   68.5305   46.8655   52.2167 C   0  0  0  0  0  0  0  0  0  0  0  0
   68.4375   46.7308   50.8310 O   0  0  0  0  0  0  0  0  0  0  0  0
   69.2094   47.9185   52.7802 C   0  0  0  0  0  0  0  0  0  0  0  0
   69.9938   49.1289   51.7260 Cl  0  0  0  0  0  0  0  0  0  0  0  0
   69.2974   48.0426   54.1255 C   0  0  0  0  0  0  0  0  0  0  0  0
   72.6795   39.3744   59.3833 C   0  0  0  0  0  0  0  0  0  0  0  0
   73.1811   39.9948   60.3331 O   0  0  0  0  0  0  0  0  0  0  0  0
   73.4213   38.3122   58.8645 O   0  0  0  0  0  0  0  0  0  0  0  0
 13 14  2  0
 14 16  1  0
 14 15  1  0
 16 17  1  0
 17 18  2  0
 17 24  1  0
 18 19  1  0
 19 20  2  0
 20 21  1  0
 20 22  1  0
 22 23  1  0
 22 24  2  0
 15  1  1  0
  1  2  2  0
  2  3  1  0
  2 12  1  0
  3  4  2  0
  3  5  1  0
  5  6  1  0
  6  7  1  0
  6 12  2  0
  7  8  2  0
  8  9  1  0
  9 25  1  0
  9 10  2  0
 25 26  2  0
 25 27  1  0
 10 11  1  0
 10 12  1  0
M  END
>  <minimizedAffinity>  (525) 
-8.72435

$$$$
data/200k_reference_output/data/smiles/44411.pdb
     RDKit          3D

 26 29  0  0  0  0  0  0  0  0999 V2000
   69.3465   45.0434   56.7336 C   0  0  0  0  0  0  0  0  0  0  0  0
   70.3625   44.4953   57.4242 N   0  0  0  0  0  0  0  0  0  0  0  0
   70.4429   43.1853   57.7178 C   0  0  0  0  0  0  0  0  0  0  0  0
   71.4931   42.6384   58.4269 C   0  0  0  0  0  0  0  0  0  0  0  0
   71.5659   41.2891   58.7245 C   0  0  0  0  0  0  0  0  0  0  0  0
   70.5656   40.4346   58.3093 C   0  0  0  0  0  0  0  0  0  0  0  0
   69.5179   40.9854   57.6005 C   0  0  0  0  0  0  0  0  0  0  0  0
   69.4423   42.3317   57.3025 C   0  0  0  0  0  0  0  0  0  0  0  0
   68.3997   42.8934   56.5943 C   0  0  0  0  0  0  0  0  0  0  0  0
   67.4653   42.1516   56.1961 O   0  0  0  0  0  0  0  0  0  0  0  0
   68.3633   44.2246   56.3215 N   0  0  0  0  0  0  0  0  0  0  0  0
   70.6055   38.9942   58.6063 C   0  0  0  0  0  0  0  0  0  0  0  0
   69.7526   38.2688   59.4191 C   0  0  0  0  0  0  0  0  0  0  0  0
   70.1649   36.9971   59.3969 N   0  0  0  0  0  0  0  0  0  0  0  0
   71.2251   36.8547   58.6251 N   0  0  0  0  0  0  0  0  0  0  0  0
   71.5174   38.0663   58.1258 C   0  0  0  0  0  0  0  0  0  0  0  0
   69.3833   47.2283   57.6871 N   0  0  0  0  0  0  0  0  0  0  0  0
   69.3093   46.5137   56.4353 C   0  0  2  0  0  0  0  0  0  0  0  0
   68.0775   46.8836   55.6427 C   0  0  0  0  0  0  0  0  0  0  0  0
   68.3832   46.9283   54.1907 C   0  0  0  0  0  0  0  0  0  0  0  0
   67.7319   46.0539   53.3543 C   0  0  0  0  0  0  0  0  0  0  0  0
   67.9587   46.0273   51.9769 C   0  0  0  0  0  0  0  0  0  0  0  0
   68.8700   46.9152   51.4498 C   0  0  0  0  0  0  0  0  0  0  0  0
   69.5277   47.7962   52.2805 C   0  0  0  0  0  0  0  0  0  0  0  0
   70.4340   48.6890   51.8047 F   0  0  0  0  0  0  0  0  0  0  0  0
   69.2838   47.8035   53.6552 C   0  0  0  0  0  0  0  0  0  0  0  0
 18 17  1  1
 18 19  1  0
 18  1  1  0
 19 20  1  0
 20 21  2  0
 20 26  1  0
 21 22  1  0
 22 23  2  0
 23 24  1  0
 24 25  1  0
 24 26  2  0
  1  2  2  0
  1 11  1  0
  2  3  1  0
  3  4  2  0
  3  8  1  0
  4  5  1  0
  5  6  2  0
  6 12  1  0
  6  7  1  0
 12 13  1  0
 12 16  2  0
 13 14  2  0
 14 15  1  0
 15 16  1  0
  7  8  2  0
  8  9  1  0
  9 10  2  0
  9 11  1  0
M  CHG  1  17   1
M  END
>  <minimizedAffinity>  (526) 
-8.80632

$$$$
data/200k_reference_output/data/smiles/44497.pdb
     RDKit          3D

 22 24  0  0  0  0  0  0  0  0999 V2000
   70.0928   49.3605   53.0398 S   0  0  0  0  0  0  0  0  0  0  0  0
   69.3183   49.7694   51.7955 O   0  0  0  0  0  0  0  0  0  0  0  0
   71.4774   48.9738   52.6522 O   0  0  0  0  0  0  0  0  0  0  0  0
   70.1077   50.7816   54.0465 C   0  0  0  0  0  0  0  0  0  0  0  0
   68.9141   51.3844   54.3595 C   0  0  0  0  0  0  0  0  0  0  0  0
   68.8846   52.5387   55.1564 C   0  0  0  0  0  0  0  0  0  0  0  0
   70.0547   53.0726   55.6282 C   0  0  0  0  0  0  0  0  0  0  0  0
   71.2623   52.4781   55.3212 C   0  0  0  0  0  0  0  0  0  0  0  0
   71.2686   51.3334   54.5289 C   0  0  0  0  0  0  0  0  0  0  0  0
   72.5426   50.7527   54.2559 N   0  0  0  0  0  0  0  0  0  0  0  0
   73.7839   51.3421   54.6997 C   0  0  0  0  0  0  0  0  0  0  0  0
   73.5913   52.8477   54.7769 C   0  0  0  0  0  0  0  0  0  0  0  0
   72.5166   53.0728   55.8434 C   0  0  0  0  0  0  0  0  0  0  0  0
   68.7758   47.0117   53.0259 C   0  0  0  0  0  0  0  0  0  0  0  0
   68.1247   45.9277   53.6206 C   0  0  0  0  0  0  0  0  0  0  0  0
   67.9924   45.8502   54.9714 C   0  0  0  0  0  0  0  0  0  0  0  0
   68.5149   46.8636   55.7304 C   0  0  0  0  0  0  0  0  0  0  0  0
   69.1592   47.9385   55.1614 C   0  0  0  0  0  0  0  0  0  0  0  0
   69.2932   48.0186   53.7962 C   0  0  0  0  0  0  0  0  0  0  0  0
   67.8712   46.7982   50.9212 O   0  0  0  0  0  0  0  0  0  0  0  0
   68.8645   46.9536   51.6205 N   0  0  0  0  0  0  0  0  0  0  0  0
   70.0794   47.0660   50.9871 O   0  0  0  0  0  0  0  0  0  0  0  0
 20 21  2  0
 21 22  1  0
 21 14  1  0
 14 15  2  0
 14 19  1  0
 15 16  1  0
 16 17  2  0
 17 18  1  0
 18 19  2  0
 19  1  1  0
  1  2  2  0
  1  3  2  0
  1  4  1  0
  4  5  2  0
  4  9  1  0
  5  6  1  0
  6  7  2  0
  7  8  1  0
  8  9  2  0
  8 13  1  0
  9 10  1  0
 10 11  1  0
 11 12  1  0
 12 13  1  0
M  CHG  2  21   1  22  -1
M  END
>  <minimizedAffinity>  (527) 
-8.59869

$$$$
data/200k_reference_output/data/smiles/44626.pdb
     RDKit          3D

 28 30  0  0  0  0  0  0  0  0999 V2000
   69.8359   39.6932   58.4578 C   0  0  0  0  0  0  0  0  0  0  0  0
   68.7416   39.6790   57.8207 O   0  0  0  0  0  0  0  0  0  0  0  0
   70.4686   40.8536   58.9172 N   0  0  0  0  0  0  0  0  0  0  0  0
   71.7198   40.7786   59.6391 C   0  0  0  0  0  0  0  0  0  0  0  0
   71.6103   41.5081   60.9588 C   0  0  0  0  0  0  0  0  0  0  0  0
   70.3419   42.1839   61.1435 N   0  0  0  0  0  0  0  0  0  0  0  0
   69.5487   42.6512   60.0674 C   0  0  0  0  0  0  0  0  0  0  0  0
   68.5995   43.4195   60.2745 O   0  0  0  0  0  0  0  0  0  0  0  0
   69.9271   42.1670   58.7241 C   0  0  2  0  0  0  0  0  0  0  0  0
   72.0054   34.4834   59.4090 C   0  0  0  0  0  0  0  0  0  0  0  0
   71.4241   35.8503   59.1701 C   0  0  0  0  0  0  0  0  0  0  0  0
   70.4342   36.3539   59.9900 C   0  0  0  0  0  0  0  0  0  0  0  0
   69.9231   37.6165   59.7412 C   0  0  0  0  0  0  0  0  0  0  0  0
   70.4078   38.3464   58.6847 C   0  0  0  0  0  0  0  0  0  0  0  0
   71.3928   37.8257   57.8823 C   0  0  0  0  0  0  0  0  0  0  0  0
   71.9163   36.5785   58.1060 C   0  0  0  0  0  0  0  0  0  0  0  0
   72.9934   36.0034   57.2315 C   0  0  0  0  0  0  0  0  0  0  0  0
   68.8876   42.2866   57.6829 C   0  0  0  0  0  0  0  0  0  0  0  0
   69.1632   43.5335   56.8939 C   0  0  0  0  0  0  0  0  0  0  0  0
   70.2827   44.1067   56.9273 O   0  0  0  0  0  0  0  0  0  0  0  0
   68.1329   44.1020   56.0737 N   0  0  0  0  0  0  0  0  0  0  0  0
   68.3122   45.2707   55.3050 C   0  0  0  0  0  0  0  0  0  0  0  0
   68.7400   46.4311   55.8844 C   0  0  0  0  0  0  0  0  0  0  0  0
   68.9226   47.6023   55.1364 C   0  0  0  0  0  0  0  0  0  0  0  0
   68.6635   47.5762   53.7892 C   0  0  0  0  0  0  0  0  0  0  0  0
   68.8526   48.7412   53.0905 F   0  0  0  0  0  0  0  0  0  0  0  0
   68.2318   46.4213   53.1840 C   0  0  0  0  0  0  0  0  0  0  0  0
   68.0575   45.2659   53.9545 C   0  0  0  0  0  0  0  0  0  0  0  0
 10 11  1  0
 11 12  2  0
 11 16  1  0
 12 13  1  0
 13 14  2  0
 14  1  1  0
 14 15  1  0
  1  2  2  0
  1  3  1  0
  3  4  1  0
  3  9  1  0
  4  5  1  0
  5  6  1  0
  6  7  1  0
  7  8  2  0
  7  9  1  0
  9 18  1  6
 18 19  1  0
 19 20  2  0
 19 21  1  0
 21 22  1  0
 22 23  2  0
 22 28  1  0
 23 24  1  0
 24 25  2  0
 25 26  1  0
 25 27  1  0
 27 28  2  0
 15 16  2  0
 16 17  1  0
M  END
>  <minimizedAffinity>  (528) 
-8.63390

$$$$
data/200k_reference_output/data/smiles/44662.pdb
     RDKit          3D

 32 35  0  0  0  0  0  0  0  0999 V2000
   70.7457   44.3543   58.9863 C   0  0  0  0  0  0  0  0  0  0  0  0
   70.7587   45.6769   58.8537 C   0  0  0  0  0  0  0  0  0  0  0  0
   71.4286   46.4379   59.7394 N   0  0  0  0  0  0  0  0  0  0  0  0
   71.4217   47.7740   59.5772 C   0  0  0  0  0  0  0  0  0  0  0  0
   72.0415   48.4954   60.3953 O   0  0  0  0  0  0  0  0  0  0  0  0
   70.7531   48.3724   58.5365 C   0  0  0  0  0  0  0  0  0  0  0  0
   70.7686   49.6825   58.4092 C   0  0  0  0  0  0  0  0  0  0  0  0
   70.0788   47.6334   57.6408 N   0  0  0  0  0  0  0  0  0  0  0  0
   70.0869   46.2981   57.8060 C   0  0  0  0  0  0  0  0  0  0  0  0
   69.4775   45.5432   57.0079 O   0  0  0  0  0  0  0  0  0  0  0  0
   70.0806   50.3841   57.3290 C   0  0  0  0  0  0  0  0  0  0  0  0
   69.2258   51.4043   57.6348 C   0  0  0  0  0  0  0  0  0  0  0  0
   68.5615   52.0832   56.6136 C   0  0  0  0  0  0  0  0  0  0  0  0
   68.7580   51.7370   55.3156 C   0  0  0  0  0  0  0  0  0  0  0  0
   69.6250   50.6973   54.9484 C   0  0  0  0  0  0  0  0  0  0  0  0
   70.2589   50.0561   55.9946 C   0  0  0  0  0  0  0  0  0  0  0  0
   69.8237   50.3687   53.5561 C   0  0  0  0  0  0  0  0  0  0  0  0
   70.2189   51.2207   52.7368 O   0  0  0  0  0  0  0  0  0  0  0  0
   69.5612   48.9998   53.0495 C   0  0  0  0  0  0  0  0  0  0  0  0
   69.9067   48.4441   51.8885 C   0  0  0  0  0  0  0  0  0  0  0  0
   69.5595   47.1880   51.6008 C   0  0  0  0  0  0  0  0  0  0  0  0
   68.8196   46.5078   52.5844 C   0  0  0  0  0  0  0  0  0  0  0  0
   68.6684   47.7386   53.8841 S   0  0  0  0  0  0  0  0  0  0  0  0
   72.6924   43.1352   59.9479 C   0  0  0  0  0  0  0  0  0  0  0  0
   73.0523   42.6639   61.1580 N   0  0  0  0  0  0  0  0  0  0  0  0
   72.0867   42.9478   62.0320 C   0  0  0  0  0  0  0  0  0  0  0  0
   71.1037   43.6048   61.3755 N   0  0  0  0  0  0  0  0  0  0  0  0
   71.4683   43.7202   60.1085 C   0  0  0  0  0  0  0  0  0  0  0  0
   74.1357   44.3396   58.3579 C   0  0  0  0  0  0  0  0  0  0  0  0
   73.5089   43.0112   58.7234 C   0  0  0  0  0  0  0  0  0  0  0  0
   72.6991   42.5550   57.5274 C   0  0  0  0  0  0  0  0  0  0  0  0
   74.5846   41.9796   58.9955 C   0  0  0  0  0  0  0  0  0  0  0  0
 29 30  1  0
 30 31  1  0
 30 32  1  0
 30 24  1  0
 24 25  1  0
 24 28  2  0
 25 26  1  0
 26 27  2  0
 27 28  1  0
 28  1  1  0
  1  2  2  0
  2  3  1  0
  2  9  1  0
  3  4  1  0
  4  5  2  0
  4  6  1  0
  6  7  2  0
  6  8  1  0
  7 11  1  0
 11 12  2  0
 11 16  1  0
 12 13  1  0
 13 14  2  0
 14 15  1  0
 15 17  1  0
 15 16  2  0
 17 18  2  0
 17 19  1  0
 19 20  2  0
 19 23  1  0
 20 21  1  0
 21 22  2  0
 22 23  1  0
  8  9  1  0
  9 10  2  0
M  CHG  1  27   1
M  END
>  <minimizedAffinity>  (529) 
-8.77001

$$$$
data/200k_reference_output/data/smiles/44687.pdb
     RDKit          3D

 22 23  0  0  0  0  0  0  0  0999 V2000
   68.1732   45.0211   56.1733 O   0  0  0  0  0  0  0  0  0  0  0  0
   68.7514   46.0820   55.7597 C   0  0  0  0  0  0  0  0  0  0  0  0
   69.4566   46.9242   56.6362 N   0  0  0  0  0  0  0  0  0  0  0  0
   68.6558   46.3907   54.3465 C   0  0  0  0  0  0  0  0  0  0  0  0
   67.8051   45.7151   53.4834 C   0  0  0  0  0  0  0  0  0  0  0  0
   67.7709   46.0708   52.1398 C   0  0  0  0  0  0  0  0  0  0  0  0
   68.5504   47.0656   51.6479 C   0  0  0  0  0  0  0  0  0  0  0  0
   69.4000   47.7348   52.5313 C   0  0  0  0  0  0  0  0  0  0  0  0
   69.4497   47.4032   53.8461 C   0  0  0  0  0  0  0  0  0  0  0  0
   70.2152   48.7721   52.0247 N   0  0  0  0  0  0  0  0  0  0  0  0
   71.3131   49.0017   52.5338 O   0  0  0  0  0  0  0  0  0  0  0  0
   69.7820   49.5176   50.9705 O   0  0  0  0  0  0  0  0  0  0  0  0
   69.5455   46.6262   57.9834 N   0  0  0  0  0  0  0  0  0  0  0  0
   71.1391   46.3471   58.5290 S   0  0  0  0  0  0  0  0  0  0  0  0
   72.1184   47.3466   57.9372 O   0  0  0  0  0  0  0  0  0  0  0  0
   71.1561   46.6099   60.0243 O   0  0  0  0  0  0  0  0  0  0  0  0
   71.7349   44.7653   58.1580 C   0  0  0  0  0  0  0  0  0  0  0  0
   70.8528   43.7162   58.0213 C   0  0  0  0  0  0  0  0  0  0  0  0
   71.3018   42.4305   57.7222 C   0  0  0  0  0  0  0  0  0  0  0  0
   72.6426   42.1713   57.5544 C   0  0  0  0  0  0  0  0  0  0  0  0
   73.5196   43.2310   57.6935 C   0  0  0  0  0  0  0  0  0  0  0  0
   73.0760   44.4998   57.9891 C   0  0  0  0  0  0  0  0  0  0  0  0
  1  2  2  0
  2  3  1  0
  2  4  1  0
  3 13  1  0
 13 14  1  0
 14 15  2  0
 14 16  2  0
 14 17  1  0
 17 18  2  0
 17 22  1  0
 18 19  1  0
 19 20  2  0
 20 21  1  0
 21 22  2  0
  4  5  2  0
  4  9  1  0
  5  6  1  0
  6  7  2  0
  7  8  1  0
  8 10  1  0
  8  9  2  0
 10 11  2  0
 10 12  1  0
M  CHG  2  10   1  12  -1
M  END
>  <minimizedAffinity>  (530) 
-8.75396

$$$$
data/200k_reference_output/data/smiles/44740.pdb
     RDKit          3D

 31 34  0  0  0  0  0  0  0  0999 V2000
   69.8507   46.9151   56.8701 N   0  0  0  0  0  0  0  0  0  0  0  0
   70.6576   46.7418   58.0006 C   0  0  0  0  0  0  0  0  0  0  0  0
   70.9481   47.7759   58.6883 O   0  0  0  0  0  0  0  0  0  0  0  0
   71.1698   45.4244   58.4055 C   0  0  0  0  0  0  0  0  0  0  0  0
   72.2810   45.3189   59.2095 C   0  0  0  0  0  0  0  0  0  0  0  0
   72.7608   44.1013   59.6352 C   0  0  0  0  0  0  0  0  0  0  0  0
   72.1244   42.9422   59.2578 C   0  0  0  0  0  0  0  0  0  0  0  0
   71.0100   43.0147   58.4518 C   0  0  0  0  0  0  0  0  0  0  0  0
   70.3640   41.8411   58.0657 C   0  0  0  0  0  0  0  0  0  0  0  0
   70.7618   40.7133   58.4288 O   0  0  0  0  0  0  0  0  0  0  0  0
   69.2519   41.9277   57.2600 C   0  0  0  0  0  0  0  0  0  0  0  0
   68.5713   40.7903   56.8293 C   0  0  0  0  0  0  0  0  0  0  0  0
   67.4554   40.8762   56.0037 C   0  0  0  0  0  0  0  0  0  0  0  0
   66.9869   42.1053   55.5855 C   0  0  0  0  0  0  0  0  0  0  0  0
   67.6732   43.2363   56.0196 C   0  0  0  0  0  0  0  0  0  0  0  0
   68.7868   43.1595   56.8430 C   0  0  0  0  0  0  0  0  0  0  0  0
   69.4562   44.2550   57.2547 N   0  0  0  0  0  0  0  0  0  0  0  0
   70.5348   44.2616   58.0294 C   0  0  0  0  0  0  0  0  0  0  0  0
   69.4017   48.2170   56.4565 C   0  0  2  0  0  0  0  0  0  0  0  0
   68.0801   48.5858   56.9886 C   0  0  0  0  0  0  0  0  0  0  0  0
   67.2979   47.5962   57.3226 O   0  0  0  0  0  0  0  0  0  0  0  0
   68.4090   50.9840   57.5396 C   0  0  0  0  0  0  0  0  0  0  0  0
   67.6241   49.8472   57.1410 O   0  0  0  0  0  0  0  0  0  0  0  0
   69.6340   48.4788   55.0115 C   0  0  0  0  0  0  0  0  0  0  0  0
   68.9774   47.5696   54.0735 C   0  0  0  0  0  0  0  0  0  0  0  0
   68.1887   46.5190   54.5270 C   0  0  0  0  0  0  0  0  0  0  0  0
   67.5289   45.6534   53.7048 C   0  0  0  0  0  0  0  0  0  0  0  0
   67.6488   45.8286   52.3126 C   0  0  0  0  0  0  0  0  0  0  0  0
   66.9764   44.9540   51.4528 O   0  0  0  0  0  0  0  0  0  0  0  0
   68.4196   46.8560   51.8304 C   0  0  0  0  0  0  0  0  0  0  0  0
   69.0787   47.7194   52.7225 C   0  0  0  0  0  0  0  0  0  0  0  0
 22 23  1  0
 23 20  1  0
 20 21  2  0
 20 19  1  0
 19 24  1  6
 19  1  1  0
 24 25  1  0
 25 26  2  0
 25 31  1  0
 26 27  1  0
 27 28  2  0
 28 29  1  0
 28 30  1  0
 30 31  2  0
  1  2  1  0
  2  3  2  0
  2  4  1  0
  4  5  2  0
  4 18  1  0
  5  6  1  0
  6  7  2  0
  7  8  1  0
  8  9  1  0
  8 18  2  0
  9 10  2  0
  9 11  1  0
 11 12  1  0
 11 16  2  0
 12 13  2  0
 13 14  1  0
 14 15  2  0
 15 16  1  0
 16 17  1  0
 17 18  1  0
M  END
>  <minimizedAffinity>  (531) 
-8.85605

$$$$
data/200k_reference_output/data/smiles/44787.pdb
     RDKit          3D

 29 33  0  0  0  0  0  0  0  0999 V2000
   68.0776   44.7187   55.1996 C   0  0  0  0  0  0  0  0  0  0  0  0
   68.4770   45.9944   55.3994 C   0  0  0  0  0  0  0  0  0  0  0  0
   68.4491   46.9856   54.4119 C   0  0  0  0  0  0  0  0  0  0  0  0
   67.9806   46.6027   53.1779 C   0  0  0  0  0  0  0  0  0  0  0  0
   67.5596   45.2883   52.9431 C   0  0  0  0  0  0  0  0  0  0  0  0
   67.6271   44.4291   53.9422 N   0  0  0  0  0  0  0  0  0  0  0  0
   68.8906   48.3448   54.6781 C   0  0  0  0  0  0  0  0  0  0  0  0
   69.3281   49.2310   53.7207 C   0  0  0  0  0  0  0  0  0  0  0  0
   69.6660   50.4270   54.3354 C   0  0  0  0  0  0  0  0  0  0  0  0
   69.4354   50.2698   55.6730 C   0  0  0  0  0  0  0  0  0  0  0  0
   68.9720   49.0117   55.8352 N   0  0  0  0  0  0  0  0  0  0  0  0
   69.7146   51.3733   56.6506 C   0  0  2  0  0  0  0  0  0  0  0  0
   71.1713   51.2422   57.1075 C   0  0  0  0  0  0  0  0  0  0  0  0
   71.0537   51.1532   58.6174 C   0  0  0  0  0  0  0  0  0  0  0  0
   69.7637   50.5196   58.8064 N   0  0  0  0  0  0  0  0  0  0  0  0
   68.8943   51.1724   57.8743 C   0  0  0  0  0  0  0  0  0  0  0  0
   69.5081   52.7078   55.9997 C   0  0  0  0  0  0  0  0  0  0  0  0
   70.3659   52.7422   54.8325 N   0  0  0  0  0  0  0  0  0  0  0  0
   70.1591   51.7116   53.8445 C   0  0  0  0  0  0  0  0  0  0  0  0
   70.3847   51.8913   52.6232 O   0  0  0  0  0  0  0  0  0  0  0  0
   66.5210   42.3104   55.1452 O   0  0  0  0  0  0  0  0  0  0  0  0
   67.3032   42.4841   56.0955 C   0  0  0  0  0  0  0  0  0  0  0  0
   68.0746   43.6633   56.1362 N   0  0  0  0  0  0  0  0  0  0  0  0
   67.3889   41.4484   57.1401 C   0  0  0  0  0  0  0  0  0  0  0  0
   68.1049   40.2973   56.9036 C   0  0  0  0  0  0  0  0  0  0  0  0
   68.2194   39.2887   57.8506 C   0  0  0  0  0  0  0  0  0  0  0  0
   67.5956   39.4439   59.0748 C   0  0  0  0  0  0  0  0  0  0  0  0
   66.8851   40.6068   59.2855 C   0  0  0  0  0  0  0  0  0  0  0  0
   66.7929   41.5762   58.3317 N   0  0  0  0  0  0  0  0  0  0  0  0
 21 22  2  0
 22 23  1  0
 22 24  1  0
 23  1  1  0
  1  2  2  0
  1  6  1  0
  2  3  1  0
  3  7  1  0
  3  4  2  0
  7  8  2  0
  7 11  1  0
  8  9  1  0
  9 10  2  0
  9 19  1  0
 10 11  1  0
 12 10  1  0
 12 13  1  1
 12 16  1  0
 12 17  1  0
 13 14  1  0
 14 15  1  0
 15 16  1  0
 17 18  1  0
 18 19  1  0
 19 20  2  0
  4  5  1  0
  5  6  2  0
 24 25  2  0
 24 29  1  0
 25 26  1  0
 26 27  2  0
 27 28  1  0
 28 29  2  0
M  CHG  1  15   1
M  END
>  <minimizedAffinity>  (532) 
-8.58383

$$$$
data/200k_reference_output/data/smiles/44794.pdb
     RDKit          3D

 28 31  0  0  0  0  0  0  0  0999 V2000
   71.5328   46.9451   58.9201 C   0  0  0  0  0  0  0  0  0  0  0  0
   70.7639   47.8456   58.1634 C   0  0  0  0  0  0  0  0  0  0  0  0
   69.8956   47.3682   57.2269 C   0  0  0  0  0  0  0  0  0  0  0  0
   69.8017   45.9751   57.0546 C   0  0  0  0  0  0  0  0  0  0  0  0
   70.5302   45.0756   57.7716 C   0  0  0  0  0  0  0  0  0  0  0  0
   71.4037   45.5912   58.7128 C   0  0  0  0  0  0  0  0  0  0  0  0
   72.1542   44.7203   59.4529 F   0  0  0  0  0  0  0  0  0  0  0  0
   75.9068   50.7532   58.3274 O   0  0  0  0  0  0  0  0  0  0  0  0
   75.6268   49.5877   58.5494 C   0  0  0  0  0  0  0  0  0  0  0  0
   75.9285   48.9622   59.8611 C   0  0  0  0  0  0  0  0  0  0  0  0
   74.6670   48.3879   60.4519 C   0  0  0  0  0  0  0  0  0  0  0  0
   73.7606   47.8458   59.4852 N   0  0  0  0  0  0  0  0  0  0  0  0
   72.4532   47.5016   59.9047 C   0  0  0  0  0  0  0  0  0  0  0  0
   72.0559   47.6581   61.0944 O   0  0  0  0  0  0  0  0  0  0  0  0
   74.1406   47.6471   58.1180 C   0  0  0  0  0  0  0  0  0  0  0  0
   74.9731   48.7391   57.5270 C   0  0  0  0  0  0  0  0  0  0  0  0
   69.0655   48.2720   56.3752 C   0  0  0  0  0  0  0  0  0  0  0  0
   69.4430   48.2864   54.9666 C   0  0  0  0  0  0  0  0  0  0  0  0
   70.3910   49.1908   54.5663 N   0  0  0  0  0  0  0  0  0  0  0  0
   70.7862   49.3424   53.3372 N   0  0  0  0  0  0  0  0  0  0  0  0
   70.2772   48.6002   52.3398 C   0  0  0  0  0  0  0  0  0  0  0  0
   70.6386   48.7230   51.1363 O   0  0  0  0  0  0  0  0  0  0  0  0
   69.3071   47.6467   52.6262 C   0  0  0  0  0  0  0  0  0  0  0  0
   68.7624   46.8537   51.6642 C   0  0  0  0  0  0  0  0  0  0  0  0
   67.8133   45.9014   51.9580 C   0  0  0  0  0  0  0  0  0  0  0  0
   67.4436   45.7930   53.2813 C   0  0  0  0  0  0  0  0  0  0  0  0
   67.9891   46.5910   54.2573 C   0  0  0  0  0  0  0  0  0  0  0  0
   68.9218   47.5253   53.9490 C   0  0  0  0  0  0  0  0  0  0  0  0
  8  9  2  0
  9 10  1  0
  9 16  1  0
 10 11  1  0
 11 12  1  0
 12 13  1  0
 12 15  1  0
 13 14  2  0
 13  1  1  0
  1  2  2  0
  1  6  1  0
  2  3  1  0
  3 17  1  0
  3  4  2  0
 17 18  1  0
 18 19  2  0
 18 28  1  0
 19 20  1  0
 20 21  1  0
 21 22  2  0
 21 23  1  0
 23 24  1  0
 23 28  2  0
 24 25  2  0
 25 26  1  0
 26 27  2  0
 27 28  1  0
  4  5  1  0
  5  6  2  0
  6  7  1  0
 15 16  1  0
M  END
>  <minimizedAffinity>  (533) 
-9.59150

$$$$
data/200k_reference_output/data/smiles/44861.pdb
     RDKit          3D

 30 33  0  0  0  0  0  0  0  0999 V2000
   69.0622   43.8603   56.8373 C   0  0  0  0  0  0  0  0  0  0  0  0
   70.1874   44.4726   57.3988 C   0  0  0  0  0  0  0  0  0  0  0  0
   71.0491   43.8468   58.2484 C   0  0  0  0  0  0  0  0  0  0  0  0
   70.8438   42.5100   58.6138 C   0  0  0  0  0  0  0  0  0  0  0  0
   69.7582   41.8849   58.0851 C   0  0  0  0  0  0  0  0  0  0  0  0
   68.8827   42.5155   57.2223 C   0  0  0  0  0  0  0  0  0  0  0  0
   71.7894   41.8655   59.4933 C   0  0  0  0  0  0  0  0  0  0  0  0
   72.3099   40.7819   59.0176 O   0  0  0  0  0  0  0  0  0  0  0  0
   72.1675   42.2920   60.7489 N   0  0  0  0  0  0  0  0  0  0  0  0
   73.1313   41.5920   61.6204 C   0  0  0  0  0  0  0  0  0  0  0  0
   72.4265   41.6573   62.9753 C   0  0  0  0  0  0  0  0  0  0  0  0
   71.5578   42.8816   62.9426 C   0  0  1  0  0  0  0  0  0  0  0  0
   71.7755   43.4271   61.5251 C   0  0  0  0  0  0  0  0  0  0  0  0
   70.1319   42.6493   63.1502 C   0  0  0  0  0  0  0  0  0  0  0  0
   69.2780   43.3162   62.5007 O   0  0  0  0  0  0  0  0  0  0  0  0
   69.6174   41.6947   64.0628 N   0  0  0  0  0  0  0  0  0  0  0  0
   68.2671   41.5268   64.2093 O   0  0  0  0  0  0  0  0  0  0  0  0
   68.2705   44.5235   56.0146 O   0  0  0  0  0  0  0  0  0  0  0  0
   68.0728   45.2622   54.9452 C   0  0  0  0  0  0  0  0  0  0  0  0
   68.6621   49.3995   57.6484 C   0  0  0  0  0  0  0  0  0  0  0  0
   68.6898   48.6798   56.3270 C   0  0  0  0  0  0  0  0  0  0  0  0
   68.3182   47.3550   56.2461 C   0  0  0  0  0  0  0  0  0  0  0  0
   68.3549   46.7176   55.0264 C   0  0  0  0  0  0  0  0  0  0  0  0
   68.7625   47.4560   53.9299 C   0  0  0  0  0  0  0  0  0  0  0  0
   69.1313   48.7762   54.0320 C   0  0  0  0  0  0  0  0  0  0  0  0
   69.0901   49.3792   55.2426 N   0  0  0  0  0  0  0  0  0  0  0  0
   69.5630   49.5159   52.8467 C   0  0  0  0  0  0  0  0  0  0  0  0
   70.2197   48.7019   51.7783 C   0  0  0  0  0  0  0  0  0  0  0  0
   69.7405   47.3145   51.6242 C   0  0  0  0  0  0  0  0  0  0  0  0
   68.7253   46.8364   52.6046 C   0  0  0  0  0  0  0  0  0  0  0  0
 20 21  1  0
 21 22  2  0
 21 26  1  0
 22 23  1  0
 23 19  1  0
 23 24  2  0
 19 18  1  0
 18  1  1  0
  1  2  2  0
  1  6  1  0
  2  3  1  0
  3  4  2  0
  4  7  1  0
  4  5  1  0
  7  8  2  0
  7  9  1  0
  9 10  1  0
  9 13  1  0
 10 11  1  0
 11 12  1  0
 12 14  1  6
 12 13  1  0
 14 15  2  0
 14 16  1  0
 16 17  1  0
  5  6  2  0
 24 25  1  0
 24 30  1  0
 25 26  2  0
 25 27  1  0
 27 28  1  0
 28 29  1  0
 29 30  1  0
M  END
>  <minimizedAffinity>  (534) 
-8.71776

$$$$
data/200k_reference_output/data/smiles/44915.pdb
     RDKit          3D

 25 27  0  0  0  0  0  0  0  0999 V2000
   73.4668   50.6356   56.1427 C   0  0  1  0  0  0  0  0  0  0  0  0
   74.5134   49.7222   56.7322 C   0  0  0  0  0  0  0  0  0  0  0  0
   75.5975   49.9238   55.7385 C   0  0  0  0  0  0  0  0  0  0  0  0
   75.0289   50.2078   54.6248 N   0  0  0  0  0  0  0  0  0  0  0  0
   73.6349   50.2188   54.7725 O   0  0  0  0  0  0  0  0  0  0  0  0
   77.0251   49.8071   56.0330 C   0  0  0  0  0  0  0  0  0  0  0  0
   77.8944   49.1904   55.1574 C   0  0  0  0  0  0  0  0  0  0  0  0
   79.2424   49.0786   55.4324 C   0  0  0  0  0  0  0  0  0  0  0  0
   79.7859   49.5793   56.5955 C   0  0  0  0  0  0  0  0  0  0  0  0
   81.1456   49.4751   56.8901 O   0  0  0  0  0  0  0  0  0  0  0  0
   78.9272   50.1980   57.4794 C   0  0  0  0  0  0  0  0  0  0  0  0
   79.4632   50.6902   58.6230 F   0  0  0  0  0  0  0  0  0  0  0  0
   77.5732   50.3066   57.1948 C   0  0  0  0  0  0  0  0  0  0  0  0
   72.0960   50.4687   56.6500 C   0  0  0  0  0  0  0  0  0  0  0  0
   70.9989   50.8348   55.7050 C   0  0  0  0  0  0  0  0  0  0  0  0
   71.2751   49.6310   53.1960 O   0  0  0  0  0  0  0  0  0  0  0  0
   70.3784   49.1938   53.9508 C   0  0  0  0  0  0  0  0  0  0  0  0
   70.1921   49.7601   55.2249 N   0  0  0  0  0  0  0  0  0  0  0  0
   69.5385   48.1031   53.4966 C   0  0  0  0  0  0  0  0  0  0  0  0
   69.3793   47.7192   52.1912 C   0  0  0  0  0  0  0  0  0  0  0  0
   68.5644   46.6674   51.7970 C   0  0  0  0  0  0  0  0  0  0  0  0
   67.8680   45.9542   52.7325 C   0  0  0  0  0  0  0  0  0  0  0  0
   67.0828   44.9367   52.3239 F   0  0  0  0  0  0  0  0  0  0  0  0
   67.9946   46.2983   54.0446 C   0  0  0  0  0  0  0  0  0  0  0  0
   68.8055   47.3425   54.4235 C   0  0  0  0  0  0  0  0  0  0  0  0
 16 17  2  0
 17 18  1  0
 17 19  1  0
 18 15  1  0
 15 14  1  0
  1 14  1  1
  1  2  1  0
  1  5  1  0
  2  3  1  0
  3  6  1  0
  3  4  2  0
  6  7  2  0
  6 13  1  0
  7  8  1  0
  8  9  2  0
  9 10  1  0
  9 11  1  0
 11 12  1  0
 11 13  2  0
  4  5  1  0
 19 20  2  0
 19 25  1  0
 20 21  1  0
 21 22  2  0
 22 23  1  0
 22 24  1  0
 24 25  2  0
M  END
>  <minimizedAffinity>  (535) 
-8.64333

$$$$
data/200k_reference_output/data/smiles/45025.pdb
     RDKit          3D

 28 31  0  0  0  0  0  0  0  0999 V2000
   70.4818   49.3847   54.0408 N   0  0  0  0  0  0  0  0  0  0  0  0
   69.9643   48.9197   55.1892 N   0  0  0  0  0  0  0  0  0  0  0  0
   69.1004   47.8869   55.2577 C   0  0  0  0  0  0  0  0  0  0  0  0
   68.7559   47.3046   54.0654 C   0  0  0  0  0  0  0  0  0  0  0  0
   67.9043   46.2511   54.0696 C   0  0  0  0  0  0  0  0  0  0  0  0
   67.5643   45.6548   52.8621 C   0  0  0  0  0  0  0  0  0  0  0  0
   68.0500   46.0766   51.6462 C   0  0  0  0  0  0  0  0  0  0  0  0
   68.9164   47.1448   51.6423 C   0  0  0  0  0  0  0  0  0  0  0  0
   69.2561   47.7383   52.8351 C   0  0  0  0  0  0  0  0  0  0  0  0
   70.1427   48.8162   52.8776 C   0  0  0  0  0  0  0  0  0  0  0  0
   70.5738   49.1857   51.7521 O   0  0  0  0  0  0  0  0  0  0  0  0
   71.4131   50.4825   54.0347 C   0  0  0  0  0  0  0  0  0  0  0  0
   72.1719   51.6965   56.7700 C   0  0  0  0  0  0  0  0  0  0  0  0
   70.8527   51.3994   56.2264 N   0  0  1  0  0  0  0  0  0  0  0  0
   69.8246   52.2161   56.7894 C   0  0  0  0  0  0  0  0  0  0  0  0
   68.9565   52.7816   55.7107 C   0  0  0  0  0  0  0  0  0  0  0  0
   69.3780   51.9268   54.4931 C   0  0  0  0  0  0  0  0  0  0  0  0
   70.8440   51.6488   54.7845 C   0  0  2  0  0  0  0  0  0  0  0  0
   68.5807   47.5286   56.5698 C   0  0  0  0  0  0  0  0  0  0  0  0
   69.6916   47.3984   57.5417 C   0  0  0  0  0  0  0  0  0  0  0  0
   70.3085   46.2432   57.9336 C   0  0  0  0  0  0  0  0  0  0  0  0
   71.3445   46.2534   58.8784 C   0  0  0  0  0  0  0  0  0  0  0  0
   71.7853   47.4262   59.4487 C   0  0  0  0  0  0  0  0  0  0  0  0
   71.1689   48.5954   59.0574 C   0  0  0  0  0  0  0  0  0  0  0  0
   70.1552   48.5779   58.1335 C   0  0  0  0  0  0  0  0  0  0  0  0
   72.8712   47.4387   60.4399 C   0  0  0  0  0  0  0  0  0  0  0  0
   72.6011   47.7966   61.6036 O   0  0  0  0  0  0  0  0  0  0  0  0
   74.1553   47.0773   60.1458 O   0  0  0  0  0  0  0  0  0  0  0  0
 14 13  1  1
 14 15  1  0
 14 18  1  0
 15 16  1  0
 16 17  1  0
 17 18  1  0
 18 12  1  6
 12  1  1  0
  1  2  1  0
  1 10  1  0
  2  3  2  0
  3 19  1  0
  3  4  1  0
 19 20  1  0
 20 21  2  0
 20 25  1  0
 21 22  1  0
 22 23  2  0
 23 26  1  0
 23 24  1  0
 26 27  2  0
 26 28  1  0
 24 25  2  0
  4  5  2  0
  4  9  1  0
  5  6  1  0
  6  7  2  0
  7  8  1  0
  8  9  2  0
  9 10  1  0
 10 11  2  0
M  CHG  1  14   1
M  END
>  <minimizedAffinity>  (536) 
-8.59371

$$$$
data/200k_reference_output/data/smiles/45289.pdb
     RDKit          3D

 29 32  0  0  0  0  0  0  0  0999 V2000
   74.1537   34.4246   54.5475 S   0  0  0  0  0  0  0  0  0  0  0  0
   73.6058   33.2442   53.8336 O   0  0  0  0  0  0  0  0  0  0  0  0
   73.9141   35.6853   53.7328 O   0  0  0  0  0  0  0  0  0  0  0  0
   73.3185   34.6684   56.0917 C   0  0  0  0  0  0  0  0  0  0  0  0
   72.9097   35.9445   56.4476 C   0  0  0  0  0  0  0  0  0  0  0  0
   72.2422   36.1702   57.6716 C   0  0  0  0  0  0  0  0  0  0  0  0
   72.0252   35.0905   58.4675 C   0  0  0  0  0  0  0  0  0  0  0  0
   72.4179   33.8265   58.1414 C   0  0  0  0  0  0  0  0  0  0  0  0
   73.0743   33.6124   56.9350 C   0  0  0  0  0  0  0  0  0  0  0  0
   72.0056   32.9381   59.2531 C   0  0  0  0  0  0  0  0  0  0  0  0
   71.3222   33.7894   60.2712 C   0  0  0  0  0  0  0  0  0  0  0  0
   71.3569   35.1286   59.7195 N   0  0  0  0  0  0  0  0  0  0  0  0
   70.8987   36.4223   60.1222 C   0  0  0  0  0  0  0  0  0  0  0  0
   70.6418   36.6409   61.3113 O   0  0  0  0  0  0  0  0  0  0  0  0
   70.7447   37.4616   59.1019 C   0  0  0  0  0  0  0  0  0  0  0  0
   71.8164   37.5118   58.0711 C   0  0  0  0  0  0  0  0  0  0  0  0
   75.8716   34.1949   54.8719 C   0  0  0  0  0  0  0  0  0  0  0  0
   76.7871   35.1795   54.2620 C   0  0  0  0  0  0  0  0  0  0  0  0
   76.3328   35.4741   51.7819 N   0  0  0  0  0  0  0  0  0  0  0  0
   77.1628   34.9963   52.8671 C   0  0  0  0  0  0  0  0  0  0  0  0
   78.2317   34.4101   52.5692 O   0  0  0  0  0  0  0  0  0  0  0  0
   77.9708   34.4741   46.3815 C   0  0  0  0  0  0  0  0  0  0  0  0
   77.5555   34.7464   47.7945 C   0  0  0  0  0  0  0  0  0  0  0  0
   78.2412   35.6468   48.5802 C   0  0  0  0  0  0  0  0  0  0  0  0
   77.8525   35.8945   49.8858 C   0  0  0  0  0  0  0  0  0  0  0  0
   76.7676   35.2557   50.4580 C   0  0  0  0  0  0  0  0  0  0  0  0
   76.0907   34.3579   49.6587 C   0  0  0  0  0  0  0  0  0  0  0  0
   74.9174   33.6513   50.2400 C   0  0  0  0  0  0  0  0  0  0  0  0
   76.4711   34.1044   48.3556 C   0  0  0  0  0  0  0  0  0  0  0  0
 22 23  1  0
 23 24  2  0
 23 29  1  0
 24 25  1  0
 25 26  2  0
 26 19  1  0
 26 27  1  0
 19 20  1  0
 20 21  2  0
 20 18  1  0
 18 17  1  0
 17  1  1  0
  1  2  2  0
  1  3  2  0
  1  4  1  0
  4  5  2  0
  4  9  1  0
  5  6  1  0
  6  7  2  0
  6 16  1  0
  7  8  1  0
  7 12  1  0
  8  9  2  0
  8 10  1  0
 10 11  1  0
 11 12  1  0
 12 13  1  0
 13 14  2  0
 13 15  1  0
 15 16  1  0
 27 28  1  0
 27 29  2  0
M  END
>  <minimizedAffinity>  (537) 
-8.56877

$$$$
data/200k_reference_output/data/smiles/45367.pdb
     RDKit          3D

 32 35  0  0  0  0  0  0  0  0999 V2000
   72.0348   37.7019   59.2261 C   0  0  0  0  0  0  0  0  0  0  0  0
   71.1750   38.6044   58.7541 C   0  0  0  0  0  0  0  0  0  0  0  0
   69.9097   38.2340   58.4800 N   0  0  0  0  0  0  0  0  0  0  0  0
   69.0381   39.1442   58.0027 C   0  0  0  0  0  0  0  0  0  0  0  0
   67.8445   38.7936   57.7452 O   0  0  0  0  0  0  0  0  0  0  0  0
   69.3798   40.4627   57.7768 C   0  0  0  0  0  0  0  0  0  0  0  0
   68.5091   41.3612   57.3036 C   0  0  0  0  0  0  0  0  0  0  0  0
   70.6434   40.8351   58.0495 N   0  0  0  0  0  0  0  0  0  0  0  0
   71.5181   39.9212   58.5284 C   0  0  0  0  0  0  0  0  0  0  0  0
   72.6989   40.2641   58.7843 O   0  0  0  0  0  0  0  0  0  0  0  0
   68.8593   42.7395   57.0644 C   0  0  0  0  0  0  0  0  0  0  0  0
   69.8682   43.3338   57.7873 C   0  0  0  0  0  0  0  0  0  0  0  0
   70.2207   44.6709   57.5665 C   0  0  0  0  0  0  0  0  0  0  0  0
   69.5478   45.3970   56.6141 C   0  0  0  0  0  0  0  0  0  0  0  0
   68.5402   44.8214   55.8842 C   0  0  0  0  0  0  0  0  0  0  0  0
   68.2090   43.4974   56.1196 C   0  0  0  0  0  0  0  0  0  0  0  0
   67.8440   45.5191   54.9213 O   0  0  0  0  0  0  0  0  0  0  0  0
   68.4077   46.3656   54.0063 C   0  0  0  0  0  0  0  0  0  0  0  0
   68.4410   46.0016   52.6769 C   0  0  0  0  0  0  0  0  0  0  0  0
   69.0084   46.8402   51.7191 C   0  0  0  0  0  0  0  0  0  0  0  0
   69.5484   48.0490   52.0731 C   0  0  0  0  0  0  0  0  0  0  0  0
   69.5119   48.4108   53.4143 C   0  0  0  0  0  0  0  0  0  0  0  0
   68.9514   47.5810   54.3575 C   0  0  0  0  0  0  0  0  0  0  0  0
   72.0750   35.1939   58.8231 C   0  0  0  0  0  0  0  0  0  0  0  0
   71.4545   34.1920   59.3939 O   0  0  0  0  0  0  0  0  0  0  0  0
   70.6737   34.5847   60.3480 C   0  0  0  0  0  0  0  0  0  0  0  0
   70.7921   35.9208   60.4031 N   0  0  0  0  0  0  0  0  0  0  0  0
   71.6601   36.3170   59.4594 C   0  0  0  0  0  0  0  0  0  0  0  0
   74.4010   35.4741   58.2708 C   0  0  0  0  0  0  0  0  0  0  0  0
   73.0201   35.0955   57.7202 C   0  0  0  0  0  0  0  0  0  0  0  0
   73.0822   33.6659   57.2276 C   0  0  0  0  0  0  0  0  0  0  0  0
   72.6980   36.0029   56.5608 C   0  0  0  0  0  0  0  0  0  0  0  0
 29 30  1  0
 30 31  1  0
 30 32  1  0
 30 24  1  0
 24 25  1  0
 24 28  2  0
 25 26  1  0
 26 27  2  0
 27 28  1  0
 28  1  1  0
  1  2  2  0
  2  3  1  0
  2  9  1  0
  3  4  1  0
  4  5  2  0
  4  6  1  0
  6  7  2  0
  6  8  1  0
  7 11  1  0
 11 12  2  0
 11 16  1  0
 12 13  1  0
 13 14  2  0
 14 15  1  0
 15 17  1  0
 15 16  2  0
 17 18  1  0
 18 19  2  0
 18 23  1  0
 19 20  1  0
 20 21  2  0
 21 22  1  0
 22 23  2  0
  8  9  1  0
  9 10  2  0
M  END
>  <minimizedAffinity>  (538) 
-9.93896

$$$$
data/200k_reference_output/data/smiles/45395.pdb
     RDKit          3D

 24 28  0  0  0  0  0  0  0  0999 V2000
   68.8346   47.5485   57.1140 C   0  0  0  0  0  0  0  0  0  0  0  0
   69.1519   48.9482   57.3631 C   0  0  0  0  0  0  0  0  0  0  0  0
   68.4508   50.1103   57.1348 C   0  0  0  0  0  0  0  0  0  0  0  0
   69.0332   51.3269   57.4897 C   0  0  0  0  0  0  0  0  0  0  0  0
   70.2800   51.3958   58.0575 C   0  0  0  0  0  0  0  0  0  0  0  0
   70.9835   50.2305   58.2863 C   0  0  0  0  0  0  0  0  0  0  0  0
   70.4011   49.0192   57.9324 C   0  0  0  0  0  0  0  0  0  0  0  0
   70.9264   47.6672   58.0663 C   0  0  0  0  0  0  0  0  0  0  0  0
   72.1124   47.1667   58.5636 C   0  0  0  0  0  0  0  0  0  0  0  0
   72.3915   45.8046   58.5865 C   0  0  0  0  0  0  0  0  0  0  0  0
   71.4721   44.8991   58.1027 C   0  0  0  0  0  0  0  0  0  0  0  0
   70.2932   45.4132   57.6100 C   0  0  0  0  0  0  0  0  0  0  0  0
   70.0038   46.7650   57.5815 C   0  0  0  0  0  0  0  0  0  0  0  0
   66.6513   45.2259   50.4837 N   0  0  0  0  0  0  0  0  0  0  0  0
   67.3693   45.9238   51.4990 C   0  0  0  0  0  0  0  0  0  0  0  0
   68.3591   46.7900   51.1965 N   0  0  0  0  0  0  0  0  0  0  0  0
   69.0620   47.4682   52.1193 C   0  0  0  0  0  0  0  0  0  0  0  0
   70.0831   48.3582   51.7575 N   0  0  0  0  0  0  0  0  0  0  0  0
   68.7823   47.2946   53.4551 C   0  0  0  0  0  0  0  0  0  0  0  0
   69.2797   47.8030   54.6064 N   0  0  0  0  0  0  0  0  0  0  0  0
   68.6187   47.2732   55.6488 C   0  0  0  0  0  0  0  0  0  0  0  0
   67.7076   46.4317   55.1310 N   0  0  0  0  0  0  0  0  0  0  0  0
   67.7757   46.4162   53.7896 C   0  0  0  0  0  0  0  0  0  0  0  0
   67.1051   45.7628   52.8073 N   0  0  0  0  0  0  0  0  0  0  0  0
 14 15  1  0
 15 16  2  0
 15 24  1  0
 16 17  1  0
 17 18  1  0
 17 19  2  0
 19 20  1  0
 19 23  1  0
 20 21  2  0
 21  1  1  0
 21 22  1  0
  1  2  1  0
  1 13  1  0
  2  3  2  0
  2  7  1  0
  3  4  1  0
  4  5  2  0
  5  6  1  0
  6  7  2  0
  7  8  1  0
  8  9  2  0
  8 13  1  0
  9 10  1  0
 10 11  2  0
 11 12  1  0
 12 13  2  0
 22 23  1  0
 23 24  2  0
M  CHG  1  20   1
M  END
>  <minimizedAffinity>  (539) 
-9.06002

$$$$
data/200k_reference_output/data/smiles/45453.pdb
     RDKit          3D

 21 23  0  0  0  0  0  0  0  0999 V2000
   70.2714   49.1450   50.9501 O   0  0  0  0  0  0  0  0  0  0  0  0
   69.9765   48.7705   52.1076 C   0  0  0  0  0  0  0  0  0  0  0  0
   70.3875   49.3538   53.3726 C   0  0  0  0  0  0  0  0  0  0  0  0
   71.1348   50.3692   53.5267 O   0  0  0  0  0  0  0  0  0  0  0  0
   69.8236   48.6119   54.4426 N   0  0  0  0  0  0  0  0  0  0  0  0
   69.0654   47.5719   53.8357 C   0  0  0  0  0  0  0  0  0  0  0  0
   68.2921   46.5357   54.3769 C   0  0  0  0  0  0  0  0  0  0  0  0
   68.2252   46.4736   55.7328 F   0  0  0  0  0  0  0  0  0  0  0  0
   67.6392   45.6342   53.5691 C   0  0  0  0  0  0  0  0  0  0  0  0
   67.7102   45.7013   52.1944 C   0  0  0  0  0  0  0  0  0  0  0  0
   68.4651   46.7117   51.6458 C   0  0  0  0  0  0  0  0  0  0  0  0
   69.1321   47.6330   52.4632 C   0  0  0  0  0  0  0  0  0  0  0  0
   69.9592   48.8245   55.8700 C   0  0  0  0  0  0  0  0  0  0  0  0
   68.8363   49.5808   56.4556 C   0  0  0  0  0  0  0  0  0  0  0  0
   68.0559   48.9057   57.3813 C   0  0  0  0  0  0  0  0  0  0  0  0
   68.3039   47.6220   57.7350 F   0  0  0  0  0  0  0  0  0  0  0  0
   66.9968   49.5838   57.9482 C   0  0  0  0  0  0  0  0  0  0  0  0
   66.7262   50.8967   57.5998 C   0  0  0  0  0  0  0  0  0  0  0  0
   67.5171   51.5483   56.6754 C   0  0  0  0  0  0  0  0  0  0  0  0
   68.5957   50.8786   56.0893 C   0  0  0  0  0  0  0  0  0  0  0  0
   69.3739   51.4991   55.1886 F   0  0  0  0  0  0  0  0  0  0  0  0
  1  2  2  0
  2  3  1  0
  2 12  1  0
  3  4  2  0
  3  5  1  0
  5 13  1  0
  5  6  1  0
 13 14  1  0
 14 15  2  0
 14 20  1  0
 15 16  1  0
 15 17  1  0
 17 18  2  0
 18 19  1  0
 19 20  2  0
 20 21  1  0
  6  7  2  0
  6 12  1  0
  7  8  1  0
  7  9  1  0
  9 10  2  0
 10 11  1  0
 11 12  2  0
M  END
>  <minimizedAffinity>  (540) 
-8.65947

$$$$
data/200k_reference_output/data/smiles/45467.pdb
     RDKit          3D

 21 22  0  0  0  0  0  0  0  0999 V2000
   68.2135   46.5516   55.9424 O   0  0  0  0  0  0  0  0  0  0  0  0
   68.3538   46.6928   54.5649 C   0  0  0  0  0  0  0  0  0  0  0  0
   67.6144   45.9324   53.6818 C   0  0  0  0  0  0  0  0  0  0  0  0
   67.7239   46.0420   52.3110 C   0  0  0  0  0  0  0  0  0  0  0  0
   66.9595   45.2555   51.4045 N   0  0  0  0  0  0  0  0  0  0  0  0
   68.6294   46.9708   51.7917 C   0  0  0  0  0  0  0  0  0  0  0  0
   69.3732   47.7358   52.6563 C   0  0  0  0  0  0  0  0  0  0  0  0
   69.2541   47.6168   54.0239 C   0  0  0  0  0  0  0  0  0  0  0  0
   70.3041   48.6907   52.1093 N   0  0  0  0  0  0  0  0  0  0  0  0
   70.0852   49.2099   51.0135 O   0  0  0  0  0  0  0  0  0  0  0  0
   71.4388   49.0311   52.7972 O   0  0  0  0  0  0  0  0  0  0  0  0
   71.5469   46.1861   58.5312 C   0  0  0  0  0  0  0  0  0  0  0  0
   71.0256   47.4139   58.1803 C   0  0  0  0  0  0  0  0  0  0  0  0
   69.9401   47.5380   57.3361 C   0  0  0  0  0  0  0  0  0  0  0  0
   69.3154   46.4333   56.7975 C   0  0  0  0  0  0  0  0  0  0  0  0
   69.8335   45.2048   57.1476 C   0  0  0  0  0  0  0  0  0  0  0  0
   70.9200   45.0789   57.9910 C   0  0  0  0  0  0  0  0  0  0  0  0
   73.8883   46.5092   61.6054 C   0  0  0  0  0  0  0  0  0  0  0  0
   72.7351   46.6244   60.6916 C   0  0  0  0  0  0  0  0  0  0  0  0
   71.7190   47.2686   61.0725 O   0  0  0  0  0  0  0  0  0  0  0  0
   72.6658   46.0659   59.4007 N   0  0  0  0  0  0  0  0  0  0  0  0
 18 19  1  0
 19 20  2  0
 19 21  1  0
 21 12  1  0
 12 13  2  0
 12 17  1  0
 13 14  1  0
 14 15  2  0
 15  1  1  0
 15 16  1  0
  1  2  1  0
  2  3  2  0
  2  8  1  0
  3  4  1  0
  4  5  1  0
  4  6  2  0
  6  7  1  0
  7  9  1  0
  7  8  2  0
  9 10  2  0
  9 11  1  0
 16 17  2  0
M  CHG  2   9   1  11  -1
M  END
>  <minimizedAffinity>  (541) 
-8.99193

$$$$
data/200k_reference_output/data/smiles/45573.pdb
     RDKit          3D

 26 28  0  0  0  0  0  0  0  0999 V2000
   68.7750   44.5588   56.2022 C   0  0  0  0  0  0  0  0  0  0  0  0
   69.8084   44.5551   57.0970 N   0  0  0  0  0  0  0  0  0  0  0  0
   70.1779   43.4563   57.7717 C   0  0  0  0  0  0  0  0  0  0  0  0
   69.5327   42.2552   57.6025 C   0  0  0  0  0  0  0  0  0  0  0  0
   69.9099   41.1097   58.2928 C   0  0  0  0  0  0  0  0  0  0  0  0
   69.2412   39.9247   58.0920 C   0  0  0  0  0  0  0  0  0  0  0  0
   68.1960   39.8885   57.2021 C   0  0  0  0  0  0  0  0  0  0  0  0
   67.8282   41.0238   56.5225 C   0  0  0  0  0  0  0  0  0  0  0  0
   68.4881   42.2141   56.7135 C   0  0  0  0  0  0  0  0  0  0  0  0
   68.1351   43.3701   56.0340 C   0  0  0  0  0  0  0  0  0  0  0  0
   67.0904   43.2915   55.1592 O   0  0  0  0  0  0  0  0  0  0  0  0
   69.6225   38.6876   58.8040 C   0  0  0  0  0  0  0  0  0  0  0  0
   68.8109   38.1772   59.7930 C   0  0  0  0  0  0  0  0  0  0  0  0
   69.1057   37.0400   60.4875 C   0  0  0  0  0  0  0  0  0  0  0  0
   70.2715   36.3878   60.1717 C   0  0  0  0  0  0  0  0  0  0  0  0
   70.5846   35.2415   60.8610 F   0  0  0  0  0  0  0  0  0  0  0  0
   71.1237   36.8424   59.1968 C   0  0  0  0  0  0  0  0  0  0  0  0
   70.7784   37.9996   58.5227 C   0  0  0  0  0  0  0  0  0  0  0  0
   68.7313   46.1509   54.1983 N   0  0  0  0  0  0  0  0  0  0  0  0
   68.4941   45.8158   55.5483 C   0  0  0  0  0  0  0  0  0  0  0  0
   67.9676   46.7833   56.2293 O   0  0  0  0  0  0  0  0  0  0  0  0
   68.4133   47.4514   53.6060 C   0  0  0  0  0  0  0  0  0  0  0  0
   69.6740   48.1526   53.2482 C   0  0  0  0  0  0  0  0  0  0  0  0
   70.0418   47.2059   51.1441 O   0  0  0  0  0  0  0  0  0  0  0  0
   69.9059   48.2665   51.8079 C   0  0  0  0  0  0  0  0  0  0  0  0
   69.9865   49.4609   51.1218 O   0  0  0  0  0  0  0  0  0  0  0  0
 24 25  2  0
 25 26  1  0
 25 23  1  0
 23 22  1  0
 22 19  1  0
 19 20  1  0
 20 21  2  0
 20  1  1  0
  1  2  2  0
  1 10  1  0
  2  3  1  0
  3  4  2  0
  4  5  1  0
  4  9  1  0
  5  6  2  0
  6 12  1  0
  6  7  1  0
 12 13  2  0
 12 18  1  0
 13 14  1  0
 14 15  2  0
 15 16  1  0
 15 17  1  0
 17 18  2  0
  7  8  2  0
  8  9  1  0
  9 10  2  0
 10 11  1  0
M  END
>  <minimizedAffinity>  (542) 
-8.85243

$$$$
data/200k_reference_output/data/smiles/45750.pdb
     RDKit          3D

 29 33  0  0  0  0  0  0  0  0999 V2000
   70.3709   45.8140   57.8587 C   0  0  0  0  0  0  0  0  0  0  0  0
   69.8915   46.0648   56.6356 N   0  0  0  0  0  0  0  0  0  0  0  0
   69.6465   47.3832   56.4843 C   0  0  0  0  0  0  0  0  0  0  0  0
   69.1539   48.0763   55.4018 C   0  0  0  0  0  0  0  0  0  0  0  0
   69.0121   49.4453   55.5531 C   0  0  0  0  0  0  0  0  0  0  0  0
   69.3513   50.0587   56.7330 C   0  0  0  0  0  0  0  0  0  0  0  0
   69.8446   49.3321   57.8024 C   0  0  0  0  0  0  0  0  0  0  0  0
   69.9942   47.9710   57.6770 C   0  0  0  0  0  0  0  0  0  0  0  0
   70.4328   47.0026   58.5015 N   0  0  0  0  0  0  0  0  0  0  0  0
   68.7900   47.4384   54.1454 C   0  0  0  0  0  0  0  0  0  0  0  0
   69.3336   47.9136   52.9593 C   0  0  0  0  0  0  0  0  0  0  0  0
   68.9972   47.3199   51.7730 C   0  0  0  0  0  0  0  0  0  0  0  0
   68.1310   46.2535   51.6842 C   0  0  0  0  0  0  0  0  0  0  0  0
   67.5929   45.7830   52.8606 C   0  0  0  0  0  0  0  0  0  0  0  0
   67.9229   46.3707   54.0632 C   0  0  0  0  0  0  0  0  0  0  0  0
   70.7633   44.4931   58.4148 C   0  0  0  0  0  0  0  0  0  0  0  0
   67.1986   43.0499   55.6056 O   0  0  0  0  0  0  0  0  0  0  0  0
   68.0836   42.7806   56.4685 C   0  0  0  0  0  0  0  0  0  0  0  0
   68.1702   41.4709   56.8909 C   0  0  0  0  0  0  0  0  0  0  0  0
   69.1320   41.1682   57.8320 C   0  0  0  0  0  0  0  0  0  0  0  0
   69.9425   42.1546   58.2964 N   0  0  0  0  0  0  0  0  0  0  0  0
   69.8564   43.4306   57.8830 C   0  0  0  0  0  0  0  0  0  0  0  0
   68.9115   43.7152   56.9632 N   0  0  0  0  0  0  0  0  0  0  0  0
   69.2810   39.8536   58.3118 N   0  0  0  0  0  0  0  0  0  0  0  0
   68.1334   39.0194   58.5248 C   0  0  0  0  0  0  0  0  0  0  0  0
   68.2724   38.1200   59.7270 C   0  0  0  0  0  0  0  0  0  0  0  0
   69.5735   37.8091   60.0390 O   0  0  0  0  0  0  0  0  0  0  0  0
   70.4460   37.8883   58.9823 C   0  0  0  0  0  0  0  0  0  0  0  0
   70.5895   39.3375   58.5937 C   0  0  0  0  0  0  0  0  0  0  0  0
 17 18  2  0
 18 19  1  0
 18 23  1  0
 19 20  2  0
 20 24  1  0
 20 21  1  0
 24 25  1  0
 24 29  1  0
 25 26  1  0
 26 27  1  0
 27 28  1  0
 28 29  1  0
 21 22  2  0
 22 16  1  0
 22 23  1  0
 16  1  1  0
  1  2  2  0
  1  9  1  0
  2  3  1  0
  3  4  2  0
  3  8  1  0
  4 10  1  0
  4  5  1  0
 10 11  2  0
 10 15  1  0
 11 12  1  0
 12 13  2  0
 13 14  1  0
 14 15  2  0
  5  6  2  0
  6  7  1  0
  7  8  2  0
  8  9  1  0
M  CHG  1   2   1
M  END
>  <minimizedAffinity>  (543) 
-8.73673

$$$$
data/200k_reference_output/data/smiles/45762.pdb
     RDKit          3D

 30 33  0  0  0  0  0  0  0  0999 V2000
   71.7924   47.5511   58.8321 C   0  0  0  0  0  0  0  0  0  0  0  0
   70.9589   48.3113   57.9957 C   0  0  0  0  0  0  0  0  0  0  0  0
   69.9669   47.7640   57.2285 C   0  0  0  0  0  0  0  0  0  0  0  0
   69.7888   46.3932   57.2899 C   0  0  0  0  0  0  0  0  0  0  0  0
   70.5918   45.6210   58.1002 C   0  0  0  0  0  0  0  0  0  0  0  0
   71.5829   46.1905   58.8641 C   0  0  0  0  0  0  0  0  0  0  0  0
   72.3937   45.4574   59.6765 F   0  0  0  0  0  0  0  0  0  0  0  0
   75.9083   48.1499   60.4919 C   0  0  0  0  0  0  0  0  0  0  0  0
   75.0978   49.2631   59.8179 C   0  0  0  0  0  0  0  0  0  0  0  0
   74.5686   50.1537   60.8984 C   0  0  0  0  0  0  0  0  0  0  0  0
   76.0404   49.9849   58.9275 C   0  0  0  0  0  0  0  0  0  0  0  0
   77.1160   50.4228   59.4254 O   0  0  0  0  0  0  0  0  0  0  0  0
   75.8224   50.2207   57.5489 N   0  0  0  0  0  0  0  0  0  0  0  0
   74.5970   49.7344   56.9277 C   0  0  0  0  0  0  0  0  0  0  0  0
   74.2520   48.4259   57.6429 C   0  0  0  0  0  0  0  0  0  0  0  0
   74.0457   48.6249   59.0554 N   0  0  0  0  0  0  0  0  0  0  0  0
   72.8318   48.1893   59.6277 C   0  0  0  0  0  0  0  0  0  0  0  0
   72.6356   48.3541   60.8537 O   0  0  0  0  0  0  0  0  0  0  0  0
   69.1241   48.6309   56.3835 C   0  0  0  0  0  0  0  0  0  0  0  0
   69.4671   48.6370   54.9531 C   0  0  0  0  0  0  0  0  0  0  0  0
   70.3937   49.5028   54.4387 N   0  0  0  0  0  0  0  0  0  0  0  0
   70.7258   49.4878   53.1565 N   0  0  0  0  0  0  0  0  0  0  0  0
   70.1820   48.6259   52.2586 C   0  0  0  0  0  0  0  0  0  0  0  0
   70.5657   48.6915   51.0575 O   0  0  0  0  0  0  0  0  0  0  0  0
   69.2455   47.7364   52.7215 C   0  0  0  0  0  0  0  0  0  0  0  0
   68.9001   47.7565   54.0731 C   0  0  0  0  0  0  0  0  0  0  0  0
   67.9053   46.8420   54.5176 N   0  0  0  0  0  0  0  0  0  0  0  0
   67.8514   45.5521   53.8645 C   0  0  0  0  0  0  0  0  0  0  0  0
   67.7506   45.7477   52.3925 C   0  0  0  0  0  0  0  0  0  0  0  0
   68.6260   46.7806   51.7884 C   0  0  0  0  0  0  0  0  0  0  0  0
  8  9  1  0
  9 10  1  0
  9 11  1  0
  9 16  1  0
 11 12  2  0
 11 13  1  0
 13 14  1  0
 14 15  1  0
 15 16  1  0
 16 17  1  0
 17 18  2  0
 17  1  1  0
  1  2  2  0
  1  6  1  0
  2  3  1  0
  3 19  1  0
  3  4  2  0
 19 20  1  0
 20 21  2  0
 20 26  1  0
 21 22  1  0
 22 23  1  0
 23 24  2  0
 23 25  1  0
 25 26  2  0
 25 30  1  0
 26 27  1  0
 27 28  1  0
 28 29  1  0
 29 30  1  0
  4  5  1  0
  5  6  2  0
  6  7  1  0
M  END
>  <minimizedAffinity>  (544) 
-9.05685

$$$$
data/200k_reference_output/data/smiles/45787.pdb
     RDKit          3D

 25 27  0  0  0  0  0  0  0  0999 V2000
   67.9847   47.0167   56.7498 O   0  0  0  0  0  0  0  0  0  0  0  0
   69.0356   46.8621   56.0566 C   0  0  0  0  0  0  0  0  0  0  0  0
   70.2166   46.5616   56.7705 N   0  0  0  0  0  0  0  0  0  0  0  0
   68.8983   47.0120   54.6193 C   0  0  0  0  0  0  0  0  0  0  0  0
   69.3665   48.1796   53.9913 C   0  0  0  0  0  0  0  0  0  0  0  0
   69.2941   48.4070   52.6453 C   0  0  0  0  0  0  0  0  0  0  0  0
   68.7348   47.4643   51.8118 C   0  0  0  0  0  0  0  0  0  0  0  0
   68.2685   46.3168   52.3948 C   0  0  0  0  0  0  0  0  0  0  0  0
   68.3428   46.0812   53.7790 C   0  0  0  0  0  0  0  0  0  0  0  0
   67.8502   44.9232   54.2812 F   0  0  0  0  0  0  0  0  0  0  0  0
   69.7926   49.6165   52.0881 N   0  0  0  0  0  0  0  0  0  0  0  0
   70.3128   50.4903   52.8077 O   0  0  0  0  0  0  0  0  0  0  0  0
   69.7265   49.8769   50.7423 O   0  0  0  0  0  0  0  0  0  0  0  0
   70.2309   46.4302   58.2218 C   0  0  0  0  0  0  0  0  0  0  0  0
   70.8599   45.1832   58.7299 C   0  0  2  0  0  0  0  0  0  0  0  0
   72.1731   45.0533   58.1997 O   0  0  0  0  0  0  0  0  0  0  0  0
   70.1716   43.9319   58.3083 C   0  0  0  0  0  0  0  0  0  0  0  0
   69.2712   43.8790   57.3031 N   0  0  0  0  0  0  0  0  0  0  0  0
   68.8237   42.6261   57.1601 C   0  0  0  0  0  0  0  0  0  0  0  0
   67.9001   42.0693   56.2758 C   0  0  0  0  0  0  0  0  0  0  0  0
   67.6145   40.7286   56.3428 C   0  0  0  0  0  0  0  0  0  0  0  0
   68.2393   39.9578   57.2771 C   0  0  0  0  0  0  0  0  0  0  0  0
   69.1517   40.5177   58.1476 C   0  0  0  0  0  0  0  0  0  0  0  0
   69.4458   41.8586   58.0895 C   0  0  0  0  0  0  0  0  0  0  0  0
   70.2727   42.6878   58.7866 N   0  0  0  0  0  0  0  0  0  0  0  0
  1  2  2  0
  2  3  1  0
  2  4  1  0
  3 14  1  0
 14 15  1  0
 15 16  1  6
 15 17  1  0
 17 18  2  0
 17 25  1  0
 18 19  1  0
 19 20  2  0
 19 24  1  0
 20 21  1  0
 21 22  2  0
 22 23  1  0
 23 24  2  0
 24 25  1  0
  4  5  2  0
  4  9  1  0
  5  6  1  0
  6 11  1  0
  6  7  2  0
 11 12  2  0
 11 13  1  0
  7  8  1  0
  8  9  2  0
  9 10  1  0
M  CHG  3  11   1  13  -1  18   1
M  END
>  <minimizedAffinity>  (545) 
-8.66089

$$$$
data/200k_reference_output/data/smiles/45911.pdb
     RDKit          3D

 27 29  0  0  0  0  0  0  0  0999 V2000
   68.1360   46.2626   53.9656 C   0  0  0  0  0  0  0  0  0  0  0  0
   67.9955   45.9322   52.6410 C   0  0  0  0  0  0  0  0  0  0  0  0
   68.6121   46.6500   51.6300 C   0  0  0  0  0  0  0  0  0  0  0  0
   69.3847   47.7253   52.0212 C   0  0  0  0  0  0  0  0  0  0  0  0
   69.5417   48.0786   53.3437 C   0  0  0  0  0  0  0  0  0  0  0  0
   68.9110   47.3368   54.3150 C   0  0  0  0  0  0  0  0  0  0  0  0
   70.3837   49.2444   53.7091 C   0  0  0  0  0  0  0  0  0  0  0  0
   71.5204   49.3889   53.2000 O   0  0  0  0  0  0  0  0  0  0  0  0
   69.9233   50.2099   54.6330 N   0  0  0  0  0  0  0  0  0  0  0  0
   68.6601   50.2561   55.3436 C   0  0  0  0  0  0  0  0  0  0  0  0
   68.4586   51.6755   55.7847 C   0  0  0  0  0  0  0  0  0  0  0  0
   69.5554   52.4251   55.0586 C   0  0  1  0  0  0  0  0  0  0  0  0
   69.9355   53.5868   55.7209 O   0  0  0  0  0  0  0  0  0  0  0  0
   70.6531   51.3813   55.0625 C   0  0  0  0  0  0  0  0  0  0  0  0
   67.4938   45.5070   54.9355 O   0  0  0  0  0  0  0  0  0  0  0  0
   68.5105   42.3929   56.6443 C   0  0  0  0  0  0  0  0  0  0  0  0
   67.8421   43.3092   55.8398 C   0  0  0  0  0  0  0  0  0  0  0  0
   68.2173   44.6324   55.7719 C   0  0  0  0  0  0  0  0  0  0  0  0
   69.2619   45.0645   56.5011 N   0  0  0  0  0  0  0  0  0  0  0  0
   69.9412   44.1947   57.2998 C   0  0  0  0  0  0  0  0  0  0  0  0
   69.5776   42.8593   57.3818 C   0  0  0  0  0  0  0  0  0  0  0  0
   71.1061   44.6607   58.1181 C   0  0  0  0  0  0  0  0  0  0  0  0
   72.2918   44.1664   57.6529 F   0  0  0  0  0  0  0  0  0  0  0  0
   70.9254   44.3301   59.4588 F   0  0  0  0  0  0  0  0  0  0  0  0
   71.1754   46.0497   58.0679 F   0  0  0  0  0  0  0  0  0  0  0  0
   67.5239   40.6203   55.4145 N   0  0  0  0  0  0  0  0  0  0  0  0
   68.0851   40.9565   56.7021 C   0  0  0  0  0  0  0  0  0  0  0  0
 26 27  1  0
 27 16  1  0
 16 17  2  0
 16 21  1  0
 17 18  1  0
 18 15  1  0
 18 19  2  0
 15  1  1  0
  1  2  2  0
  1  6  1  0
  2  3  1  0
  3  4  2  0
  4  5  1  0
  5  7  1  0
  5  6  2  0
  7  8  2  0
  7  9  1  0
  9 10  1  0
  9 14  1  0
 10 11  1  0
 11 12  1  0
 12 13  1  1
 12 14  1  0
 19 20  1  0
 20 22  1  0
 20 21  2  0
 22 23  1  0
 22 24  1  0
 22 25  1  0
M  CHG  1  26   1
M  END
>  <minimizedAffinity>  (546) 
-8.77559

$$$$
data/200k_reference_output/data/smiles/46058.pdb
     RDKit          3D

 26 29  0  0  0  0  0  0  0  0999 V2000
   68.5128   47.0193   55.5173 C   0  0  0  0  0  0  0  0  0  0  0  0
   67.1995   47.2845   55.9741 O   0  0  0  0  0  0  0  0  0  0  0  0
   68.4746   46.9037   54.0875 C   0  0  0  0  0  0  0  0  0  0  0  0
   67.8097   46.0294   53.2159 C   0  0  0  0  0  0  0  0  0  0  0  0
   67.9558   46.1463   51.8502 C   0  0  0  0  0  0  0  0  0  0  0  0
   68.7536   47.1179   51.2930 C   0  0  0  0  0  0  0  0  0  0  0  0
   69.4124   47.9820   52.1365 C   0  0  0  0  0  0  0  0  0  0  0  0
   69.2662   47.8669   53.5255 C   0  0  0  0  0  0  0  0  0  0  0  0
   69.8490   48.6471   54.6093 C   0  0  0  0  0  0  0  0  0  0  0  0
   70.7169   49.7355   54.6476 C   0  0  0  0  0  0  0  0  0  0  0  0
   71.1371   50.3168   55.8242 C   0  0  0  0  0  0  0  0  0  0  0  0
   70.6897   49.8154   57.0396 C   0  0  0  0  0  0  0  0  0  0  0  0
   69.8301   48.7390   57.0107 C   0  0  0  0  0  0  0  0  0  0  0  0
   69.4076   48.1524   55.8097 C   0  0  0  0  0  0  0  0  0  0  0  0
   70.0371   45.9764   56.9503 O   0  0  0  0  0  0  0  0  0  0  0  0
   69.0023   45.8366   56.2526 C   0  0  0  0  0  0  0  0  0  0  0  0
   68.3960   44.5563   56.2328 N   0  0  0  0  0  0  0  0  0  0  0  0
   68.9608   43.5375   56.9685 N   0  0  0  0  0  0  0  0  0  0  0  0
   68.5910   42.3243   57.0015 C   0  0  0  0  0  0  0  0  0  0  0  0
   69.2342   41.2935   57.8044 C   0  0  0  0  0  0  0  0  0  0  0  0
   70.2279   41.5558   58.7147 C   0  0  0  0  0  0  0  0  0  0  0  0
   70.8050   40.5376   59.4527 C   0  0  0  0  0  0  0  0  0  0  0  0
   70.3606   39.2376   59.2565 C   0  0  0  0  0  0  0  0  0  0  0  0
   69.3606   38.9385   58.3467 C   0  0  0  0  0  0  0  0  0  0  0  0
   68.8139   39.9947   57.6322 C   0  0  0  0  0  0  0  0  0  0  0  0
   67.8047   39.7105   56.7117 O   0  0  0  0  0  0  0  0  0  0  0  0
 15 16  2  0
 16 17  1  0
 16  1  1  0
 17 18  1  0
 18 19  2  0
 19 20  1  0
 20 21  2  0
 20 25  1  0
 21 22  1  0
 22 23  2  0
 23 24  1  0
 24 25  2  0
 25 26  1  0
  1  2  1  0
  1  3  1  0
  1 14  1  0
  3  4  2  0
  3  8  1  0
  4  5  1  0
  5  6  2  0
  6  7  1  0
  7  8  2  0
  8  9  1  0
  9 10  2  0
  9 14  1  0
 10 11  1  0
 11 12  2  0
 12 13  1  0
 13 14  2  0
M  END
>  <minimizedAffinity>  (547) 
-8.55566

$$$$
data/200k_reference_output/data/smiles/46066.pdb
     RDKit          3D

 23 25  0  0  0  0  0  0  0  0999 V2000
   68.7016   43.8203   56.1501 N   0  0  0  0  0  0  0  0  0  0  0  0
   68.5511   42.6828   56.6832 C   0  0  0  0  0  0  0  0  0  0  0  0
   67.3189   41.9137   56.6589 C   0  0  0  0  0  0  0  0  0  0  0  0
   66.2421   42.2536   56.1308 O   0  0  0  0  0  0  0  0  0  0  0  0
   67.6135   40.7008   57.3671 N   0  0  0  0  0  0  0  0  0  0  0  0
   68.9673   40.7277   57.8037 C   0  0  0  0  0  0  0  0  0  0  0  0
   69.7466   39.8189   58.5169 C   0  0  0  0  0  0  0  0  0  0  0  0
   71.0699   40.0943   58.8170 C   0  0  0  0  0  0  0  0  0  0  0  0
   71.6662   41.2760   58.4221 C   0  0  0  0  0  0  0  0  0  0  0  0
   73.5016   41.6529   58.8391 Br  0  0  0  0  0  0  0  0  0  0  0  0
   70.8897   42.1691   57.7174 C   0  0  0  0  0  0  0  0  0  0  0  0
   69.5724   41.9007   57.4162 C   0  0  0  0  0  0  0  0  0  0  0  0
   67.7403   44.5517   55.4471 N   0  0  0  0  0  0  0  0  0  0  0  0
   69.2942   47.9967   53.5712 C   0  0  0  0  0  0  0  0  0  0  0  0
   69.3489   47.8554   54.9417 C   0  0  0  0  0  0  0  0  0  0  0  0
   68.8288   46.7085   55.5596 C   0  0  0  0  0  0  0  0  0  0  0  0
   68.2595   45.7136   54.7909 C   0  0  0  0  0  0  0  0  0  0  0  0
   68.2223   45.8848   53.4284 C   0  0  0  0  0  0  0  0  0  0  0  0
   68.7284   47.0060   52.8097 C   0  0  0  0  0  0  0  0  0  0  0  0
   71.5603   49.6644   53.4877 N   0  0  0  0  0  0  0  0  0  0  0  0
   69.9552   49.4560   52.8245 S   0  0  0  0  0  0  0  0  0  0  0  0
   70.1144   49.2055   51.3633 O   0  0  0  0  0  0  0  0  0  0  0  0
   69.0943   50.6468   53.0678 O   0  0  0  0  0  0  0  0  0  0  0  0
 20 21  1  0
 21 22  2  0
 21 23  2  0
 21 14  1  0
 14 15  2  0
 14 19  1  0
 15 16  1  0
 16 17  2  0
 17 13  1  0
 17 18  1  0
 13  1  1  0
  1  2  2  0
  2  3  1  0
  2 12  1  0
  3  4  2  0
  3  5  1  0
  5  6  1  0
  6  7  1  0
  6 12  2  0
  7  8  2  0
  8  9  1  0
  9 10  1  0
  9 11  2  0
 11 12  1  0
 18 19  2  0
M  END
>  <minimizedAffinity>  (548) 
-8.64437

$$$$
data/200k_reference_output/data/smiles/46230.pdb
     RDKit          3D

 26 28  0  0  0  0  0  0  0  0999 V2000
   69.9317   42.9252   57.1335 O   0  0  0  0  0  0  0  0  0  0  0  0
   68.6998   42.6868   57.0828 C   0  0  0  0  0  0  0  0  0  0  0  0
   67.8904   43.6275   56.4020 N   0  0  0  0  0  0  0  0  0  0  0  0
   68.2135   41.4734   57.7245 C   0  0  0  0  0  0  0  0  0  0  0  0
   67.2698   41.5515   58.7269 C   0  0  0  0  0  0  0  0  0  0  0  0
   66.7713   40.4389   59.3723 C   0  0  0  0  0  0  0  0  0  0  0  0
   67.2130   39.1789   59.0255 C   0  0  0  0  0  0  0  0  0  0  0  0
   68.1573   39.0855   58.0253 C   0  0  0  0  0  0  0  0  0  0  0  0
   68.6550   40.2148   57.3789 C   0  0  0  0  0  0  0  0  0  0  0  0
   66.7114   37.9513   59.6874 C   0  0  0  0  0  0  0  0  0  0  0  0
   65.4308   37.5088   59.4810 C   0  0  0  0  0  0  0  0  0  0  0  0
   64.9842   36.3748   60.1018 C   0  0  0  0  0  0  0  0  0  0  0  0
   65.7889   35.6383   60.9473 C   0  0  0  0  0  0  0  0  0  0  0  0
   67.0708   36.1021   61.1395 C   0  0  0  0  0  0  0  0  0  0  0  0
   67.5359   37.2366   60.5276 C   0  0  0  0  0  0  0  0  0  0  0  0
   68.4245   44.7856   55.7999 N   0  0  0  0  0  0  0  0  0  0  0  0
   68.0446   45.2078   54.5032 C   0  0  0  0  0  0  0  0  0  0  0  0
   67.1981   44.4810   53.9188 O   0  0  0  0  0  0  0  0  0  0  0  0
   68.5572   46.3928   53.8243 C   0  0  0  0  0  0  0  0  0  0  0  0
   68.8496   46.4121   52.4795 C   0  0  0  0  0  0  0  0  0  0  0  0
   69.3324   47.5705   51.9061 C   0  0  0  0  0  0  0  0  0  0  0  0
   69.5233   48.6970   52.6604 C   0  0  0  0  0  0  0  0  0  0  0  0
   70.0104   49.8648   52.0782 O   0  0  0  0  0  0  0  0  0  0  0  0
   69.2296   48.6760   54.0045 C   0  0  0  0  0  0  0  0  0  0  0  0
   68.7529   47.5380   54.5797 C   0  0  0  0  0  0  0  0  0  0  0  0
   68.4573   47.5245   55.9500 O   0  0  0  0  0  0  0  0  0  0  0  0
  1  2  2  0
  2  3  1  0
  2  4  1  0
  3 16  1  0
 16 17  1  0
 17 18  2  0
 17 19  1  0
 19 20  2  0
 19 25  1  0
 20 21  1  0
 21 22  2  0
 22 23  1  0
 22 24  1  0
 24 25  2  0
 25 26  1  0
  4  5  2  0
  4  9  1  0
  5  6  1  0
  6  7  2  0
  7 10  1  0
  7  8  1  0
 10 11  2  0
 10 15  1  0
 11 12  1  0
 12 13  2  0
 13 14  1  0
 14 15  2  0
  8  9  2  0
M  END
>  <minimizedAffinity>  (549) 
-8.60033

$$$$
data/200k_reference_output/data/smiles/46336.pdb
     RDKit          3D

 28 30  0  0  0  0  0  0  0  0999 V2000
   68.8812   45.3281   56.0379 C   0  0  0  0  0  0  0  0  0  0  0  0
   69.8320   45.5997   57.0000 C   0  0  0  0  0  0  0  0  0  0  0  0
   70.2340   44.6362   57.9016 C   0  0  0  0  0  0  0  0  0  0  0  0
   69.6950   43.3653   57.8701 C   0  0  0  0  0  0  0  0  0  0  0  0
   70.0773   42.3757   58.7607 C   0  0  0  0  0  0  0  0  0  0  0  0
   69.5344   41.1079   58.7237 C   0  0  0  0  0  0  0  0  0  0  0  0
   68.5843   40.8589   57.7530 C   0  0  0  0  0  0  0  0  0  0  0  0
   68.2059   41.8491   56.8661 C   0  0  0  0  0  0  0  0  0  0  0  0
   68.7461   43.1190   56.8983 C   0  0  0  0  0  0  0  0  0  0  0  0
   68.3742   44.0826   56.0310 N   0  0  0  0  0  0  0  0  0  0  0  0
   69.2930   46.8238   54.0404 N   0  0  0  0  0  0  0  0  0  0  0  0
   68.4496   46.3493   55.0769 C   0  0  0  0  0  0  0  0  0  0  0  0
   67.3047   46.8243   55.1641 O   0  0  0  0  0  0  0  0  0  0  0  0
   68.9169   47.8174   53.0814 C   0  0  0  0  0  0  0  0  0  0  0  0
   71.1274   48.9986   52.6084 N   0  0  0  0  0  0  0  0  0  0  0  0
   70.0735   48.1228   52.2019 C   0  0  0  0  0  0  0  0  0  0  0  0
   70.1661   47.6133   51.0550 O   0  0  0  0  0  0  0  0  0  0  0  0
   69.9271   40.1258   59.6224 O   0  0  0  0  0  0  0  0  0  0  0  0
   70.5622   38.9559   59.2169 C   0  0  0  0  0  0  0  0  0  0  0  0
   71.6019   38.9367   58.3130 C   0  0  0  0  0  0  0  0  0  0  0  0
   72.2116   37.7577   57.9314 C   0  0  0  0  0  0  0  0  0  0  0  0
   71.7504   36.5920   58.4805 C   0  0  0  0  0  0  0  0  0  0  0  0
   70.7138   36.6276   59.3785 C   0  0  0  0  0  0  0  0  0  0  0  0
   70.1409   37.7884   59.7314 N   0  0  0  0  0  0  0  0  0  0  0  0
   72.3923   35.3073   58.0828 C   0  0  0  0  0  0  0  0  0  0  0  0
   72.5157   35.2065   56.7187 F   0  0  0  0  0  0  0  0  0  0  0  0
   73.6072   35.1936   58.7262 F   0  0  0  0  0  0  0  0  0  0  0  0
   71.5568   34.2891   58.5016 F   0  0  0  0  0  0  0  0  0  0  0  0
 15 16  1  0
 16 17  2  0
 16 14  1  0
 14 11  1  0
 11 12  1  0
 12 13  2  0
 12  1  1  0
  1  2  2  0
  1 10  1  0
  2  3  1  0
  3  4  2  0
  4  5  1  0
  4  9  1  0
  5  6  2  0
  6 18  1  0
  6  7  1  0
 18 19  1  0
 19 20  2  0
 19 24  1  0
 20 21  1  0
 21 22  2  0
 22 25  1  0
 22 23  1  0
 25 26  1  0
 25 27  1  0
 25 28  1  0
 23 24  2  0
  7  8  2  0
  8  9  1  0
  9 10  2  0
M  END
>  <minimizedAffinity>  (550) 
-8.51112

$$$$
data/200k_reference_output/data/smiles/46456.pdb
     RDKit          3D

 24 25  0  0  0  0  0  0  0  0999 V2000
   69.3738   43.4581   57.7363 N   0  0  0  0  0  0  0  0  0  0  0  0
   69.9837   45.8791   58.8450 O   0  0  0  0  0  0  0  0  0  0  0  0
   69.6904   45.9003   57.6439 C   0  0  0  0  0  0  0  0  0  0  0  0
   69.3621   44.6397   57.0199 N   0  0  0  0  0  0  0  0  0  0  0  0
   69.6504   47.1042   56.7993 C   0  0  0  0  0  0  0  0  0  0  0  0
   68.4453   47.3242   55.9823 C   0  0  0  0  0  0  0  0  0  0  0  0
   68.5323   47.1516   54.5454 C   0  0  0  0  0  0  0  0  0  0  0  0
   67.8850   46.1099   53.9266 C   0  0  0  0  0  0  0  0  0  0  0  0
   67.9704   45.9141   52.5423 C   0  0  0  0  0  0  0  0  0  0  0  0
   68.7037   46.7577   51.7550 C   0  0  0  0  0  0  0  0  0  0  0  0
   69.3589   47.8103   52.3618 C   0  0  0  0  0  0  0  0  0  0  0  0
   69.2693   47.9926   53.7117 C   0  0  0  0  0  0  0  0  0  0  0  0
   68.9753   42.2060   57.3686 C   0  0  0  0  0  0  0  0  0  0  0  0
   67.5926   42.1709   56.3853 S   0  0  0  0  0  0  0  0  0  0  0  0
   69.5022   40.9408   57.6169 N   0  0  0  0  0  0  0  0  0  0  0  0
   69.5588   40.1655   58.7877 C   0  0  0  0  0  0  0  0  0  0  0  0
   69.0497   40.6621   59.8149 O   0  0  0  0  0  0  0  0  0  0  0  0
   70.1643   38.8406   58.8786 C   0  0  0  0  0  0  0  0  0  0  0  0
   69.7182   37.8657   59.7262 C   0  0  0  0  0  0  0  0  0  0  0  0
   70.3448   36.6156   59.7641 C   0  0  0  0  0  0  0  0  0  0  0  0
   71.4239   36.3498   58.9459 C   0  0  0  0  0  0  0  0  0  0  0  0
   72.2363   34.7946   58.9649 Cl  0  0  0  0  0  0  0  0  0  0  0  0
   71.8824   37.3254   58.0879 C   0  0  0  0  0  0  0  0  0  0  0  0
   71.2398   38.5482   58.0760 C   0  0  0  0  0  0  0  0  0  0  0  0
  2  3  2  0
  3  5  1  0
  3  4  1  0
  5  6  1  0
  6  7  1  0
  7  8  2  0
  7 12  1  0
  8  9  1  0
  9 10  2  0
 10 11  1  0
 11 12  2  0
  4  1  1  0
  1 13  1  0
 13 14  2  0
 13 15  1  0
 15 16  1  0
 16 17  2  0
 16 18  1  0
 18 19  2  0
 18 24  1  0
 19 20  1  0
 20 21  2  0
 21 22  1  0
 21 23  1  0
 23 24  2  0
M  END
>  <minimizedAffinity>  (551) 
-8.61522

$$$$
data/200k_reference_output/data/smiles/46904.pdb
     RDKit          3D

 23 25  0  0  0  0  0  0  0  0999 V2000
   69.6414   46.6014   58.0629 O   0  0  0  0  0  0  0  0  0  0  0  0
   69.4238   47.1741   56.8282 C   0  0  0  0  0  0  0  0  0  0  0  0
   69.7475   48.3674   56.6250 O   0  0  0  0  0  0  0  0  0  0  0  0
   68.8211   46.4197   55.7494 C   0  0  0  0  0  0  0  0  0  0  0  0
   68.1534   45.2332   55.8746 N   0  0  0  0  0  0  0  0  0  0  0  0
   67.7541   44.8595   54.6834 N   0  0  0  0  0  0  0  0  0  0  0  0
   68.1085   45.7237   53.7407 C   0  0  0  0  0  0  0  0  0  0  0  0
   67.9529   45.8202   52.3709 C   0  0  0  0  0  0  0  0  0  0  0  0
   68.4733   46.9046   51.6760 C   0  0  0  0  0  0  0  0  0  0  0  0
   69.1569   47.9082   52.3395 C   0  0  0  0  0  0  0  0  0  0  0  0
   69.3146   47.8180   53.7021 C   0  0  0  0  0  0  0  0  0  0  0  0
   68.7900   46.7247   54.3993 C   0  0  0  0  0  0  0  0  0  0  0  0
   70.6741   45.6439   58.2537 C   0  0  0  0  0  0  0  0  0  0  0  0
   69.5684   43.9329   59.3918 O   0  0  0  0  0  0  0  0  0  0  0  0
   70.2273   44.2569   58.3424 C   0  0  0  0  0  0  0  0  0  0  0  0
   70.4339   43.2252   57.4096 N   0  0  0  0  0  0  0  0  0  0  0  0
   69.9167   41.9094   57.6672 C   0  0  0  0  0  0  0  0  0  0  0  0
   70.6544   40.9694   58.3548 C   0  0  0  0  0  0  0  0  0  0  0  0
   70.1586   39.7048   58.6028 C   0  0  0  0  0  0  0  0  0  0  0  0
   68.8954   39.3445   58.1632 C   0  0  0  0  0  0  0  0  0  0  0  0
   68.1538   40.2703   57.4796 C   0  0  0  0  0  0  0  0  0  0  0  0
   68.6597   41.5372   57.2353 C   0  0  0  0  0  0  0  0  0  0  0  0
   67.8686   42.3974   56.5528 F   0  0  0  0  0  0  0  0  0  0  0  0
 14 15  2  0
 15 13  1  0
 15 16  1  0
 13  1  1  0
  1  2  1  0
  2  3  2  0
  2  4  1  0
  4  5  1  0
  4 12  2  0
  5  6  1  0
  6  7  2  0
  7  8  1  0
  7 12  1  0
  8  9  2  0
  9 10  1  0
 10 11  2  0
 11 12  1  0
 16 17  1  0
 17 18  2  0
 17 22  1  0
 18 19  1  0
 19 20  2  0
 20 21  1  0
 21 22  2  0
 22 23  1  0
M  END
>  <minimizedAffinity>  (552) 
-8.65458

$$$$
data/200k_reference_output/data/smiles/46916.pdb
     RDKit          3D

 24 26  0  0  0  0  0  0  0  0999 V2000
   68.9600   46.6736   56.5093 C   0  0  0  0  0  0  0  0  0  0  0  0
   68.9106   47.0060   57.7684 O   0  0  0  0  0  0  0  0  0  0  0  0
   68.6576   47.7029   55.5989 N   0  0  0  0  0  0  0  0  0  0  0  0
   68.4304   49.0282   56.1393 C   0  0  0  0  0  0  0  0  0  0  0  0
   67.6281   48.9304   57.2485 C   0  0  0  0  0  0  0  0  0  0  0  0
   67.3107   50.0933   57.9128 C   0  0  0  0  0  0  0  0  0  0  0  0
   67.7986   51.3242   57.4579 C   0  0  0  0  0  0  0  0  0  0  0  0
   68.6022   51.3994   56.3412 C   0  0  0  0  0  0  0  0  0  0  0  0
   68.9411   50.2372   55.6463 C   0  0  0  0  0  0  0  0  0  0  0  0
   69.7691   50.5031   54.5425 N   0  0  0  0  0  0  0  0  0  0  0  0
   70.4067   51.8151   54.5536 C   0  0  0  0  0  0  0  0  0  0  0  0
   70.1463   49.5062   53.1855 S   0  0  0  0  0  0  0  0  0  0  0  0
   69.7676   50.2984   51.9436 O   0  0  0  0  0  0  0  0  0  0  0  0
   71.6237   49.2524   53.0800 O   0  0  0  0  0  0  0  0  0  0  0  0
   69.2293   48.0373   53.1828 C   0  0  0  0  0  0  0  0  0  0  0  0
   69.0912   47.5065   51.9006 C   0  0  0  0  0  0  0  0  0  0  0  0
   68.3544   46.3411   51.6945 C   0  0  0  0  0  0  0  0  0  0  0  0
   67.7536   45.7056   52.7686 C   0  0  0  0  0  0  0  0  0  0  0  0
   67.8694   46.2006   54.0414 C   0  0  0  0  0  0  0  0  0  0  0  0
   68.6201   47.3709   54.2059 C   0  0  0  0  0  0  0  0  0  0  0  0
   69.3412   45.2864   56.2542 C   0  0  0  0  0  0  0  0  0  0  0  0
   70.8968   44.8080   58.0333 C   0  0  0  0  0  0  0  0  0  0  0  0
   69.5785   44.5628   57.5244 N   0  0  0  0  0  0  0  0  0  0  0  0
   69.3136   43.1685   57.3424 C   0  0  0  0  0  0  0  0  0  0  0  0
 22 23  1  0
 23 24  1  0
 23 21  1  0
 21  1  1  0
  1  2  2  0
  1  3  1  0
  3  4  1  0
  3 20  1  0
  4  5  2  0
  4  9  1  0
  5  6  1  0
  6  7  2  0
  7  8  1  0
  8  9  2  0
  9 10  1  0
 10 11  1  0
 10 12  1  0
 12 13  2  0
 12 14  2  0
 12 15  1  0
 15 16  2  0
 15 20  1  0
 16 17  1  0
 17 18  2  0
 18 19  1  0
 19 20  2  0
M  CHG  1  23   1
M  END
>  <minimizedAffinity>  (553) 
-8.73857

$$$$
data/200k_reference_output/data/smiles/47017.pdb
     RDKit          3D

 23 25  0  0  0  0  0  0  0  0999 V2000
   68.8918   40.4266   57.7754 C   0  0  0  0  0  0  0  0  0  0  0  0
   67.8568   40.2993   56.8809 C   0  0  0  0  0  0  0  0  0  0  0  0
   67.4052   41.3601   56.0946 C   0  0  0  0  0  0  0  0  0  0  0  0
   67.9919   42.6075   56.1850 C   0  0  0  0  0  0  0  0  0  0  0  0
   67.7856   43.7791   55.5816 N   0  0  0  0  0  0  0  0  0  0  0  0
   68.6825   44.7176   56.0642 C   0  0  0  0  0  0  0  0  0  0  0  0
   69.4124   44.0587   56.9622 N   0  0  0  0  0  0  0  0  0  0  0  0
   69.0249   42.7540   57.0714 C   0  0  0  0  0  0  0  0  0  0  0  0
   69.4600   41.6992   57.8410 C   0  0  0  0  0  0  0  0  0  0  0  0
   70.5313   38.7410   58.3894 C   0  0  0  0  0  0  0  0  0  0  0  0
   69.3970   39.3578   58.6141 C   0  0  0  0  0  0  0  0  0  0  0  0
   71.3843   37.9500   60.4104 O   0  0  0  0  0  0  0  0  0  0  0  0
   71.0395   37.6615   59.2393 C   0  0  0  0  0  0  0  0  0  0  0  0
   71.1705   36.3134   58.8357 N   0  0  0  0  0  0  0  0  0  0  0  0
   71.6480   35.3435   59.6618 O   0  0  0  0  0  0  0  0  0  0  0  0
   68.6616   46.1123   55.5937 C   0  0  0  0  0  0  0  0  0  0  0  0
   67.9653   46.4548   54.3586 C   0  0  0  0  0  0  0  0  0  0  0  0
   68.7428   47.1620   53.3277 C   0  0  0  0  0  0  0  0  0  0  0  0
   69.2716   48.4362   53.5935 C   0  0  0  0  0  0  0  0  0  0  0  0
   70.0456   49.1188   52.6975 C   0  0  0  0  0  0  0  0  0  0  0  0
   70.3240   48.5388   51.4801 C   0  0  0  0  0  0  0  0  0  0  0  0
   69.8283   47.3198   51.2062 N   0  0  0  0  0  0  0  0  0  0  0  0
   69.0605   46.6516   52.1064 C   0  0  0  0  0  0  0  0  0  0  0  0
 12 13  2  0
 13 10  1  0
 13 14  1  0
 10 11  2  0
 11  1  1  0
  1  2  2  0
  1  9  1  0
  2  3  1  0
  3  4  2  0
  4  5  1  0
  4  8  1  0
  5  6  2  0
  6 16  1  0
  6  7  1  0
 16 17  1  0
 17 18  1  0
 18 19  2  0
 18 23  1  0
 19 20  1  0
 20 21  2  0
 21 22  1  0
 22 23  2  0
  7  8  1  0
  8  9  2  0
 14 15  1  0
M  CHG  1   5   1
M  END
>  <minimizedAffinity>  (554) 
-8.80690

$$$$
data/200k_reference_output/data/smiles/47018.pdb
     RDKit          3D

 29 31  0  0  0  0  0  0  0  0999 V2000
   71.8054   48.5537   58.4965 C   0  0  0  0  0  0  0  0  0  0  0  0
   71.7042   49.8574   57.7840 C   0  0  1  0  0  0  0  0  0  0  0  0
   70.6132   50.7611   58.3174 C   0  0  0  0  0  0  0  0  0  0  0  0
   71.6504   51.8732   58.3579 C   0  0  0  0  0  0  0  0  0  0  0  0
   72.6710   50.8238   58.2599 N   0  0  0  0  0  0  0  0  0  0  0  0
   74.0583   50.8378   58.5437 C   0  0  0  0  0  0  0  0  0  0  0  0
   74.6327   51.8798   58.9528 O   0  0  0  0  0  0  0  0  0  0  0  0
   71.6559   49.7577   56.2842 C   0  0  0  0  0  0  0  0  0  0  0  0
   72.7292   49.8717   55.6579 O   0  0  0  0  0  0  0  0  0  0  0  0
   70.4529   49.5460   55.5915 N   0  0  0  0  0  0  0  0  0  0  0  0
   70.2435   49.4331   53.9147 S   0  0  0  0  0  0  0  0  0  0  0  0
   71.6015   49.4028   53.2504 O   0  0  0  0  0  0  0  0  0  0  0  0
   69.5432   50.6353   53.3336 O   0  0  0  0  0  0  0  0  0  0  0  0
   69.2982   48.0414   53.4392 C   0  0  0  0  0  0  0  0  0  0  0  0
   69.2305   47.6965   52.0778 C   0  0  0  0  0  0  0  0  0  0  0  0
   68.5099   46.6083   51.6666 C   0  0  0  0  0  0  0  0  0  0  0  0
   67.8200   45.7960   52.5346 C   0  0  0  0  0  0  0  0  0  0  0  0
   67.8809   46.1275   53.8665 C   0  0  0  0  0  0  0  0  0  0  0  0
   68.6082   47.2280   54.2926 C   0  0  0  0  0  0  0  0  0  0  0  0
   68.6123   47.5734   56.0114 Cl  0  0  0  0  0  0  0  0  0  0  0  0
   74.8404   49.5686   58.3427 C   0  0  0  0  0  0  0  0  0  0  0  0
   76.2146   49.9416   57.9224 C   0  0  0  0  0  0  0  0  0  0  0  0
   77.1590   50.3181   58.8685 C   0  0  0  0  0  0  0  0  0  0  0  0
   78.4295   50.6671   58.4736 C   0  0  0  0  0  0  0  0  0  0  0  0
   79.3525   51.0392   59.4225 F   0  0  0  0  0  0  0  0  0  0  0  0
   78.7662   50.6444   57.1384 C   0  0  0  0  0  0  0  0  0  0  0  0
   77.8224   50.2688   56.2071 C   0  0  0  0  0  0  0  0  0  0  0  0
   76.5481   49.9171   56.5823 C   0  0  0  0  0  0  0  0  0  0  0  0
   75.6134   49.5470   55.6766 F   0  0  0  0  0  0  0  0  0  0  0  0
  2  1  1  1
  2  8  1  0
  2  3  1  0
  2  5  1  0
  8  9  2  0
  8 10  1  0
 10 11  1  0
 11 12  2  0
 11 13  2  0
 11 14  1  0
 14 15  2  0
 14 19  1  0
 15 16  1  0
 16 17  2  0
 17 18  1  0
 18 19  2  0
 19 20  1  0
  3  4  1  0
  4  5  1  0
  5  6  1  0
  6  7  2  0
  6 21  1  0
 21 22  1  0
 22 23  2  0
 22 28  1  0
 23 24  1  0
 24 25  1  0
 24 26  2  0
 26 27  1  0
 27 28  2  0
 28 29  1  0
M  END
>  <minimizedAffinity>  (555) 
-8.76857

$$$$
data/200k_reference_output/data/smiles/47040.pdb
     RDKit          3D

 27 29  0  0  0  0  0  0  0  0999 V2000
   71.2072   47.2552   59.5798 N   0  0  0  0  0  0  0  0  0  0  0  0
   70.6306   48.1915   58.6882 C   0  0  0  0  0  0  0  0  0  0  0  0
   70.9225   49.4033   58.8482 O   0  0  0  0  0  0  0  0  0  0  0  0
   69.7279   47.7872   57.6163 C   0  0  0  0  0  0  0  0  0  0  0  0
   69.9766   47.6518   56.2697 C   0  0  0  0  0  0  0  0  0  0  0  0
   68.8314   47.2454   55.6191 C   0  0  0  0  0  0  0  0  0  0  0  0
   67.8982   47.1396   56.5853 N   0  0  0  0  0  0  0  0  0  0  0  0
   68.4332   47.4619   57.7695 N   0  0  0  0  0  0  0  0  0  0  0  0
   68.6279   46.9772   54.1981 C   0  0  0  0  0  0  0  0  0  0  0  0
   67.8262   45.9400   53.7764 C   0  0  0  0  0  0  0  0  0  0  0  0
   67.6278   45.6792   52.4165 C   0  0  0  0  0  0  0  0  0  0  0  0
   68.2415   46.4671   51.4607 C   0  0  0  0  0  0  0  0  0  0  0  0
   69.0439   47.5040   51.9035 C   0  0  0  0  0  0  0  0  0  0  0  0
   69.2419   47.7659   53.2512 C   0  0  0  0  0  0  0  0  0  0  0  0
   72.9107   46.5826   61.1435 C   0  0  0  0  0  0  0  0  0  0  0  0
   72.8311   45.4190   60.6547 O   0  0  0  0  0  0  0  0  0  0  0  0
   72.0753   47.6041   60.6175 N   0  0  0  0  0  0  0  0  0  0  0  0
   75.6586   47.2294   64.3261 C   0  0  0  0  0  0  0  0  0  0  0  0
   74.9594   46.0498   64.1804 C   0  0  0  0  0  0  0  0  0  0  0  0
   74.0706   45.8205   63.1639 C   0  0  0  0  0  0  0  0  0  0  0  0
   73.8575   46.8259   62.2257 C   0  0  0  0  0  0  0  0  0  0  0  0
   74.5336   48.0132   62.3371 C   0  0  0  0  0  0  0  0  0  0  0  0
   75.4279   48.2095   63.3821 C   0  0  0  0  0  0  0  0  0  0  0  0
   77.8864   48.7908   65.2953 C   0  0  0  0  0  0  0  0  0  0  0  0
   76.7761   47.4597   65.6419 S   0  0  0  0  0  0  0  0  0  0  0  0
   77.5170   46.1767   65.9595 O   0  0  0  0  0  0  0  0  0  0  0  0
   75.9594   47.8510   66.8559 O   0  0  0  0  0  0  0  0  0  0  0  0
 24 25  1  0
 25 26  2  0
 25 27  2  0
 25 18  1  0
 18 19  2  0
 18 23  1  0
 19 20  1  0
 20 21  2  0
 21 15  1  0
 21 22  1  0
 15 16  2  0
 15 17  1  0
 17  1  1  0
  1  2  1  0
  2  3  2  0
  2  4  1  0
  4  5  1  0
  4  8  2  0
  5  6  2  0
  6  9  1  0
  6  7  1  0
  9 10  2  0
  9 14  1  0
 10 11  1  0
 11 12  2  0
 12 13  1  0
 13 14  2  0
  7  8  1  0
 22 23  2  0
M  END
>  <minimizedAffinity>  (556) 
-8.52923

$$$$
data/200k_reference_output/data/smiles/47085.pdb
     RDKit          3D

 24 26  0  0  0  0  0  0  0  0999 V2000
   72.2572   51.0118   54.9064 C   0  0  2  0  0  0  0  0  0  0  0  0
   70.3331   50.8192   52.9387 O   0  0  0  0  0  0  0  0  0  0  0  0
   70.4997   49.7764   53.6314 C   0  0  0  0  0  0  0  0  0  0  0  0
   71.4667   49.8375   54.6358 N   0  0  0  0  0  0  0  0  0  0  0  0
   69.7316   48.5622   53.4071 C   0  0  0  0  0  0  0  0  0  0  0  0
   69.6215   48.0643   52.1122 C   0  0  0  0  0  0  0  0  0  0  0  0
   68.9024   46.9188   51.8402 C   0  0  0  0  0  0  0  0  0  0  0  0
   68.2680   46.2262   52.8477 C   0  0  0  0  0  0  0  0  0  0  0  0
   68.3806   46.7145   54.0941 N   0  0  0  0  0  0  0  0  0  0  0  0
   67.7428   46.0172   55.0959 O   0  0  0  0  0  0  0  0  0  0  0  0
   69.0859   47.8472   54.3846 C   0  0  0  0  0  0  0  0  0  0  0  0
   73.6702   50.9397   54.6661 C   0  0  0  0  0  0  0  0  0  0  0  0
   74.6086   51.4482   55.3124 O   0  0  0  0  0  0  0  0  0  0  0  0
   74.0725   50.1820   53.5431 O   0  0  0  0  0  0  0  0  0  0  0  0
   71.9466   51.3645   56.3422 C   0  0  0  0  0  0  0  0  0  0  0  0
   70.5328   51.7303   56.5776 C   0  0  0  0  0  0  0  0  0  0  0  0
   69.9887   53.0132   56.3406 C   0  0  0  0  0  0  0  0  0  0  0  0
   68.6864   52.9903   56.6106 N   0  0  0  0  0  0  0  0  0  0  0  0
   68.3010   51.7642   57.0213 C   0  0  0  0  0  0  0  0  0  0  0  0
   67.0847   51.2526   57.4168 C   0  0  0  0  0  0  0  0  0  0  0  0
   67.0408   49.9280   57.7969 C   0  0  0  0  0  0  0  0  0  0  0  0
   68.1723   49.1422   57.7837 C   0  0  0  0  0  0  0  0  0  0  0  0
   69.3715   49.6640   57.3889 C   0  0  0  0  0  0  0  0  0  0  0  0
   69.4633   50.9844   56.9977 C   0  0  0  0  0  0  0  0  0  0  0  0
  2  3  2  0
  3  4  1  0
  3  5  1  0
  4  1  1  0
  1 15  1  1
  1 12  1  0
 15 16  1  0
 16 17  2  0
 16 24  1  0
 17 18  1  0
 18 19  1  0
 19 20  1  0
 19 24  2  0
 20 21  2  0
 21 22  1  0
 22 23  2  0
 23 24  1  0
 12 13  2  0
 12 14  1  0
  5  6  2  0
  5 11  1  0
  6  7  1  0
  7  8  2  0
  8  9  1  0
  9 10  1  0
  9 11  2  0
M  CHG  2   9   1  10  -1
M  END
>  <minimizedAffinity>  (557) 
-8.56960

$$$$
data/200k_reference_output/data/smiles/47172.pdb
     RDKit          3D

 26 28  0  0  0  0  0  0  0  0999 V2000
   71.0040   50.4287   54.5289 C   0  0  2  0  0  0  0  0  0  0  0  0
   70.8426   49.7720   53.3148 O   0  0  0  0  0  0  0  0  0  0  0  0
   70.0125   48.6807   53.1605 C   0  0  0  0  0  0  0  0  0  0  0  0
   69.8295   48.1831   51.8682 C   0  0  0  0  0  0  0  0  0  0  0  0
   69.0086   47.0996   51.6780 C   0  0  0  0  0  0  0  0  0  0  0  0
   68.3523   46.4785   52.7229 C   0  0  0  0  0  0  0  0  0  0  0  0
   67.4736   45.3081   52.4202 C   0  0  0  0  0  0  0  0  0  0  0  0
   68.5346   46.9663   53.9779 C   0  0  0  0  0  0  0  0  0  0  0  0
   69.3487   48.0508   54.2194 C   0  0  0  0  0  0  0  0  0  0  0  0
   69.5493   48.5788   55.5255 N   0  0  0  0  0  0  0  0  0  0  0  0
   70.4031   49.7106   55.6760 C   0  0  0  0  0  0  0  0  0  0  0  0
   70.6996   50.1731   56.8301 O   0  0  0  0  0  0  0  0  0  0  0  0
   69.0036   51.9365   54.6124 C   0  0  0  0  0  0  0  0  0  0  0  0
   70.4671   51.8333   54.3556 C   0  0  0  0  0  0  0  0  0  0  0  0
   68.9097   47.9717   56.6278 C   0  0  0  0  0  0  0  0  0  0  0  0
   69.6399   46.8941   57.3253 C   0  0  0  0  0  0  0  0  0  0  0  0
   70.3851   47.2907   58.2588 O   0  0  0  0  0  0  0  0  0  0  0  0
   69.5692   45.5386   57.0410 N   0  0  0  0  0  0  0  0  0  0  0  0
   70.2918   44.4985   57.7254 C   0  0  0  0  0  0  0  0  0  0  0  0
   69.5968   43.1935   57.5117 C   0  0  0  0  0  0  0  0  0  0  0  0
   70.0571   42.1049   58.2676 C   0  0  0  0  0  0  0  0  0  0  0  0
   69.4982   40.8563   58.1406 C   0  0  0  0  0  0  0  0  0  0  0  0
   68.4576   40.7019   57.2379 C   0  0  0  0  0  0  0  0  0  0  0  0
   67.9130   39.4611   57.1213 F   0  0  0  0  0  0  0  0  0  0  0  0
   68.0100   41.7736   56.4975 C   0  0  0  0  0  0  0  0  0  0  0  0
   68.5638   43.0357   56.6150 C   0  0  0  0  0  0  0  0  0  0  0  0
 13 14  1  0
  1 14  1  6
  1  2  1  0
  1 11  1  0
  2  3  1  0
  3  4  1  0
  3  9  2  0
  4  5  2  0
  5  6  1  0
  6  7  1  0
  6  8  2  0
  8  9  1  0
  9 10  1  0
 10 15  1  0
 10 11  1  0
 15 16  1  0
 16 17  2  0
 16 18  1  0
 18 19  1  0
 19 20  1  0
 20 21  2  0
 20 26  1  0
 21 22  1  0
 22 23  2  0
 23 24  1  0
 23 25  1  0
 25 26  2  0
 11 12  2  0
M  END
>  <minimizedAffinity>  (558) 
-8.51379

$$$$
data/200k_reference_output/data/smiles/47218.pdb
     RDKit          3D

 25 27  0  0  0  0  0  0  0  0999 V2000
   68.9585   47.9034   55.0341 N   0  0  0  0  0  0  0  0  0  0  0  0
   69.8184   48.9665   54.8967 C   0  0  0  0  0  0  0  0  0  0  0  0
   70.3247   49.3537   53.6961 C   0  0  0  0  0  0  0  0  0  0  0  0
   69.9797   48.6741   52.5719 C   0  0  0  0  0  0  0  0  0  0  0  0
   70.4313   49.0003   51.4217 O   0  0  0  0  0  0  0  0  0  0  0  0
   69.1192   47.6075   52.6982 C   0  0  0  0  0  0  0  0  0  0  0  0
   68.7551   46.9140   51.5458 C   0  0  0  0  0  0  0  0  0  0  0  0
   67.8913   45.8506   51.6233 C   0  0  0  0  0  0  0  0  0  0  0  0
   67.3946   45.4858   52.8542 C   0  0  0  0  0  0  0  0  0  0  0  0
   67.7345   46.1515   54.0169 C   0  0  0  0  0  0  0  0  0  0  0  0
   68.6007   47.2173   53.9503 C   0  0  0  0  0  0  0  0  0  0  0  0
   71.2396   50.5007   53.6256 C   0  0  0  0  0  0  0  0  0  0  0  0
   70.8540   51.6491   53.3456 O   0  0  0  0  0  0  0  0  0  0  0  0
   72.5778   50.2979   53.8787 O   0  0  0  0  0  0  0  0  0  0  0  0
   68.4981   47.5442   56.3456 C   0  0  0  0  0  0  0  0  0  0  0  0
   71.6527   47.1436   59.2956 C   0  0  0  0  0  0  0  0  0  0  0  0
   71.1025   46.0683   58.6336 C   0  0  0  0  0  0  0  0  0  0  0  0
   70.1038   46.1994   57.7029 C   0  0  0  0  0  0  0  0  0  0  0  0
   69.5782   47.4569   57.3694 C   0  0  0  0  0  0  0  0  0  0  0  0
   70.1200   48.5290   58.0229 C   0  0  0  0  0  0  0  0  0  0  0  0
   71.1325   48.3718   58.9623 C   0  0  0  0  0  0  0  0  0  0  0  0
   73.0801   45.2934   61.0059 C   0  0  0  0  0  0  0  0  0  0  0  0
   72.9256   46.9925   60.4832 S   0  0  0  0  0  0  0  0  0  0  0  0
   72.6731   47.8686   61.6760 O   0  0  0  0  0  0  0  0  0  0  0  0
   74.2369   47.4024   59.8971 O   0  0  0  0  0  0  0  0  0  0  0  0
 22 23  1  0
 23 24  2  0
 23 25  2  0
 23 16  1  0
 16 17  2  0
 16 21  1  0
 17 18  1  0
 18 19  2  0
 19 15  1  0
 19 20  1  0
 15  1  1  0
  1  2  1  0
  1 11  1  0
  2  3  2  0
  3 12  1  0
  3  4  1  0
 12 13  2  0
 12 14  1  0
  4  5  2  0
  4  6  1  0
  6  7  1  0
  6 11  2  0
  7  8  2  0
  8  9  1  0
  9 10  2  0
 10 11  1  0
 20 21  2  0
M  END
>  <minimizedAffinity>  (559) 
-8.55638

$$$$
data/200k_reference_output/data/smiles/47364.pdb
     RDKit          3D

 22 24  0  0  0  0  0  0  0  0999 V2000
   68.8104   47.3081   56.4720 S   0  0  0  0  0  0  0  0  0  0  0  0
   69.4763   48.6430   56.7857 O   0  0  0  0  0  0  0  0  0  0  0  0
   67.4454   47.3466   57.0905 O   0  0  0  0  0  0  0  0  0  0  0  0
   69.3278   47.9394   52.5150 C   0  0  0  0  0  0  0  0  0  0  0  0
   68.6222   46.9244   51.9098 C   0  0  0  0  0  0  0  0  0  0  0  0
   67.9774   46.0273   52.7326 C   0  0  0  0  0  0  0  0  0  0  0  0
   68.0216   46.1204   54.1017 C   0  0  0  0  0  0  0  0  0  0  0  0
   68.7160   47.1205   54.7323 C   0  0  0  0  0  0  0  0  0  0  0  0
   69.3687   48.0275   53.8879 C   0  0  0  0  0  0  0  0  0  0  0  0
   69.9095   50.1199   51.9581 O   0  0  0  0  0  0  0  0  0  0  0  0
   70.0175   48.8989   51.7323 N   0  0  0  0  0  0  0  0  0  0  0  0
   70.8152   48.4609   50.7077 O   0  0  0  0  0  0  0  0  0  0  0  0
   69.7880   46.1010   57.1642 N   0  0  0  0  0  0  0  0  0  0  0  0
   69.4540   44.7332   57.1703 C   0  0  0  0  0  0  0  0  0  0  0  0
   68.4796   44.1543   56.3860 N   0  0  0  0  0  0  0  0  0  0  0  0
   68.3891   42.8537   56.6257 C   0  0  0  0  0  0  0  0  0  0  0  0
   67.6164   41.8055   56.1527 C   0  0  0  0  0  0  0  0  0  0  0  0
   67.7820   40.5233   56.6329 C   0  0  0  0  0  0  0  0  0  0  0  0
   68.7226   40.2489   57.6001 C   0  0  0  0  0  0  0  0  0  0  0  0
   69.5067   41.2912   58.0854 C   0  0  0  0  0  0  0  0  0  0  0  0
   69.3226   42.5524   57.5935 C   0  0  0  0  0  0  0  0  0  0  0  0
   69.9317   43.7039   57.8845 N   0  0  0  0  0  0  0  0  0  0  0  0
 10 11  2  0
 11 12  1  0
 11  4  1  0
  4  5  2  0
  4  9  1  0
  5  6  1  0
  6  7  2  0
  7  8  1  0
  8  1  1  0
  8  9  2  0
  1  2  2  0
  1  3  2  0
  1 13  1  0
 13 14  1  0
 14 15  2  0
 14 22  1  0
 15 16  1  0
 16 17  2  0
 16 21  1  0
 17 18  1  0
 18 19  2  0
 19 20  1  0
 20 21  2  0
 21 22  1  0
M  CHG  3  11   1  12  -1  15   1
M  END
>  <minimizedAffinity>  (560) 
-8.81193

$$$$
data/200k_reference_output/data/smiles/47689.pdb
     RDKit          3D

 24 26  0  0  0  0  0  0  0  0999 V2000
   69.6883   47.2888   57.3807 C   0  0  0  0  0  0  0  0  0  0  0  0
   70.5353   47.8501   58.1060 O   0  0  0  0  0  0  0  0  0  0  0  0
   69.6502   45.8823   57.2410 N   0  0  0  0  0  0  0  0  0  0  0  0
   68.7016   48.1141   56.6527 C   0  0  0  0  0  0  0  0  0  0  0  0
   67.7780   45.9247   52.2604 C   0  0  0  0  0  0  0  0  0  0  0  0
   68.3134   46.8295   53.2826 C   0  0  0  0  0  0  0  0  0  0  0  0
   68.0697   46.8363   54.5996 N   0  0  0  0  0  0  0  0  0  0  0  0
   68.7238   47.7972   55.2259 N   0  0  0  0  0  0  0  0  0  0  0  0
   69.4306   48.4484   54.2599 C   0  0  0  0  0  0  0  0  0  0  0  0
   70.3099   49.6017   54.5477 C   0  0  0  0  0  0  0  0  0  0  0  0
   69.2074   47.8802   53.0262 C   0  0  0  0  0  0  0  0  0  0  0  0
   69.7174   48.2141   51.7475 N   0  0  0  0  0  0  0  0  0  0  0  0
   70.1215   47.3163   50.9852 O   0  0  0  0  0  0  0  0  0  0  0  0
   69.7977   49.4940   51.2814 O   0  0  0  0  0  0  0  0  0  0  0  0
   70.5511   44.9872   57.8948 C   0  0  0  0  0  0  0  0  0  0  0  0
   70.1229   43.5723   57.9202 C   0  0  0  0  0  0  0  0  0  0  0  0
   70.8771   42.5109   58.3554 C   0  0  0  0  0  0  0  0  0  0  0  0
   70.1248   41.3376   58.2243 C   0  0  0  0  0  0  0  0  0  0  0  0
   70.4031   40.0139   58.5098 C   0  0  0  0  0  0  0  0  0  0  0  0
   69.4407   39.0305   58.2714 C   0  0  0  0  0  0  0  0  0  0  0  0
   68.2195   39.4139   57.7494 C   0  0  0  0  0  0  0  0  0  0  0  0
   67.9684   40.7453   57.4725 C   0  0  0  0  0  0  0  0  0  0  0  0
   68.9128   41.7326   57.7036 C   0  0  0  0  0  0  0  0  0  0  0  0
   68.9420   43.0591   57.5347 N   0  0  0  0  0  0  0  0  0  0  0  0
  5  6  1  0
  6  7  2  0
  6 11  1  0
  7  8  1  0
  8  4  1  0
  8  9  1  0
  4  1  1  0
  1  2  2  0
  1  3  1  0
  3 15  1  0
 15 16  1  0
 16 17  2  0
 16 24  1  0
 17 18  1  0
 18 19  2  0
 18 23  1  0
 19 20  1  0
 20 21  2  0
 21 22  1  0
 22 23  2  0
 23 24  1  0
  9 10  1  0
  9 11  2  0
 11 12  1  0
 12 13  2  0
 12 14  1  0
M  CHG  2  12   1  14  -1
M  END
>  <minimizedAffinity>  (561) 
-8.51626

$$$$
data/200k_reference_output/data/smiles/47696.pdb
     RDKit          3D

 27 30  0  0  0  0  0  0  0  0999 V2000
   74.7394   34.3551   53.8266 N   0  0  0  0  0  0  0  0  0  0  0  0
   74.4601   33.9719   55.1417 C   0  0  0  0  0  0  0  0  0  0  0  0
   75.1903   33.1121   55.6950 O   0  0  0  0  0  0  0  0  0  0  0  0
   73.3484   34.5364   55.8944 C   0  0  1  0  0  0  0  0  0  0  0  0
   73.1923   33.9711   57.2748 C   0  0  0  0  0  0  0  0  0  0  0  0
   72.4025   35.0343   57.9495 C   0  0  0  0  0  0  0  0  0  0  0  0
   72.6356   36.1949   57.2452 C   0  0  0  0  0  0  0  0  0  0  0  0
   72.0045   37.3425   57.6834 C   0  0  0  0  0  0  0  0  0  0  0  0
   71.1648   37.3762   58.7789 C   0  0  0  0  0  0  0  0  0  0  0  0
   70.9299   36.2029   59.4888 C   0  0  0  0  0  0  0  0  0  0  0  0
   70.0898   36.2002   60.5959 C   0  0  0  0  0  0  0  0  0  0  0  0
   69.8869   35.0152   61.2690 C   0  0  0  0  0  0  0  0  0  0  0  0
   70.5032   33.8528   60.8555 C   0  0  0  0  0  0  0  0  0  0  0  0
   71.3306   33.8882   59.7551 C   0  0  0  0  0  0  0  0  0  0  0  0
   71.5650   35.0561   59.0455 C   0  0  0  0  0  0  0  0  0  0  0  0
   73.5144   35.9247   56.1795 O   0  0  0  0  0  0  0  0  0  0  0  0
   75.8126   33.8263   53.0639 N   0  0  0  0  0  0  0  0  0  0  0  0
   76.6480   35.1907   52.4041 S   0  0  0  0  0  0  0  0  0  0  0  0
   78.0251   35.3047   53.0154 O   0  0  0  0  0  0  0  0  0  0  0  0
   75.9255   36.4746   52.7613 O   0  0  0  0  0  0  0  0  0  0  0  0
   77.4364   34.7715   46.4468 C   0  0  0  0  0  0  0  0  0  0  0  0
   77.2271   34.8607   47.9152 C   0  0  0  0  0  0  0  0  0  0  0  0
   76.2578   34.0933   48.5380 C   0  0  0  0  0  0  0  0  0  0  0  0
   76.0797   34.1959   49.9219 C   0  0  0  0  0  0  0  0  0  0  0  0
   76.8509   35.0460   50.6794 C   0  0  0  0  0  0  0  0  0  0  0  0
   77.8198   35.8059   50.0183 C   0  0  0  0  0  0  0  0  0  0  0  0
   78.0115   35.7200   48.6559 C   0  0  0  0  0  0  0  0  0  0  0  0
 21 22  1  0
 22 23  2  0
 22 27  1  0
 23 24  1  0
 24 25  2  0
 25 18  1  0
 25 26  1  0
 18 19  2  0
 18 20  2  0
 18 17  1  0
 17  1  1  0
  1  2  1  0
  2  3  2  0
  4  2  1  1
  4  5  1  0
  4 16  1  0
  5  6  1  0
  6  7  2  0
  6 15  1  0
  7  8  1  0
  7 16  1  0
  8  9  2  0
  9 10  1  0
 10 11  1  0
 10 15  2  0
 11 12  2  0
 12 13  1  0
 13 14  2  0
 14 15  1  0
 26 27  2  0
M  END
>  <minimizedAffinity>  (562) 
-8.62893

$$$$
data/200k_reference_output/data/smiles/47859.pdb
     RDKit          3D

 25 28  0  0  0  0  0  0  0  0999 V2000
   71.7267   49.9825   53.7712 O   0  0  0  0  0  0  0  0  0  0  0  0
   70.6721   50.6622   53.8420 C   0  0  0  0  0  0  0  0  0  0  0  0
   70.6111   51.8462   54.6180 N   0  0  0  0  0  0  0  0  0  0  0  0
   71.7820   52.2628   55.3290 C   0  0  0  0  0  0  0  0  0  0  0  0
   71.4934   52.9343   56.6376 C   0  0  1  0  0  0  0  0  0  0  0  0
   70.3135   53.8554   56.5031 C   0  0  0  0  0  0  0  0  0  0  0  0
   69.1191   53.0555   56.0803 C   0  0  1  0  0  0  0  0  0  0  0  0
   69.3582   52.5854   54.6555 C   0  0  0  0  0  0  0  0  0  0  0  0
   68.9537   51.8360   56.9424 C   0  0  0  0  0  0  0  0  0  0  0  0
   67.6952   51.2679   56.9426 C   0  0  0  0  0  0  0  0  0  0  0  0
   67.4941   50.1460   57.7189 C   0  0  0  0  0  0  0  0  0  0  0  0
   68.5309   49.6434   58.4507 C   0  0  0  0  0  0  0  0  0  0  0  0
   69.7617   50.2292   58.4269 C   0  0  0  0  0  0  0  0  0  0  0  0
   70.6935   49.7351   59.1157 O   0  0  0  0  0  0  0  0  0  0  0  0
   69.9551   51.3318   57.6624 N   0  0  0  0  0  0  0  0  0  0  0  0
   71.2949   51.8980   57.6910 C   0  0  0  0  0  0  0  0  0  0  0  0
   69.4927   50.1735   53.0792 C   0  0  0  0  0  0  0  0  0  0  0  0
   69.7878   48.9218   52.3139 C   0  0  0  0  0  0  0  0  0  0  0  0
   69.2053   47.7814   53.0809 C   0  0  0  0  0  0  0  0  0  0  0  0
   69.1984   47.7694   54.4612 C   0  0  0  0  0  0  0  0  0  0  0  0
   68.6650   46.7257   55.1514 C   0  0  0  0  0  0  0  0  0  0  0  0
   68.1211   45.6602   54.4578 C   0  0  0  0  0  0  0  0  0  0  0  0
   67.5742   44.5914   55.1554 O   0  0  0  0  0  0  0  0  0  0  0  0
   68.1235   45.6647   53.0894 C   0  0  0  0  0  0  0  0  0  0  0  0
   68.6643   46.7233   52.4004 C   0  0  0  0  0  0  0  0  0  0  0  0
  1  2  2  0
  2 17  1  0
  2  3  1  0
 17 18  1  0
 18 19  1  0
 19 20  2  0
 19 25  1  0
 20 21  1  0
 21 22  2  0
 22 23  1  0
 22 24  1  0
 24 25  2  0
  3  4  1  0
  3  8  1  0
  5  4  1  6
  5  6  1  0
  5 16  1  0
  6  7  1  0
  7  8  1  6
  7  9  1  0
  9 10  2  0
  9 15  1  0
 10 11  1  0
 11 12  2  0
 12 13  1  0
 13 14  2  0
 13 15  1  0
 15 16  1  0
M  END
>  <minimizedAffinity>  (563) 
-8.69042

$$$$
data/200k_reference_output/data/smiles/47860.pdb
     RDKit          3D

 30 33  0  0  0  0  0  0  0  0999 V2000
   71.4070   46.7258   58.9133 C   0  0  0  0  0  0  0  0  0  0  0  0
   70.6659   47.6017   58.1428 C   0  0  0  0  0  0  0  0  0  0  0  0
   69.8041   47.2313   57.1559 C   0  0  0  0  0  0  0  0  0  0  0  0
   69.6955   45.8398   56.9436 C   0  0  0  0  0  0  0  0  0  0  0  0
   70.4115   44.9340   57.6844 C   0  0  0  0  0  0  0  0  0  0  0  0
   71.2770   45.3772   58.6804 C   0  0  0  0  0  0  0  0  0  0  0  0
   72.0028   44.4977   59.4339 F   0  0  0  0  0  0  0  0  0  0  0  0
   76.4022   44.0557   58.8194 C   0  0  0  0  0  0  0  0  0  0  0  0
   76.2413   44.9048   60.0124 C   0  0  0  0  0  0  0  0  0  0  0  0
   76.4041   44.4054   61.1458 O   0  0  0  0  0  0  0  0  0  0  0  0
   75.9062   46.2680   59.8764 N   0  0  0  0  0  0  0  0  0  0  0  0
   75.7145   46.8465   58.5514 C   0  0  0  0  0  0  0  0  0  0  0  0
   74.2798   47.2835   58.4541 C   0  0  0  0  0  0  0  0  0  0  0  0
   73.6704   47.5054   59.7387 N   0  0  0  0  0  0  0  0  0  0  0  0
   72.3031   47.2422   59.9438 C   0  0  0  0  0  0  0  0  0  0  0  0
   71.7382   47.4392   61.0756 O   0  0  0  0  0  0  0  0  0  0  0  0
   74.4645   47.9893   60.8402 C   0  0  0  0  0  0  0  0  0  0  0  0
   75.7297   47.1699   61.0034 C   0  0  0  0  0  0  0  0  0  0  0  0
   68.9947   48.1459   56.3006 C   0  0  0  0  0  0  0  0  0  0  0  0
   69.3883   48.1933   54.9027 C   0  0  0  0  0  0  0  0  0  0  0  0
   70.3497   49.0980   54.5420 N   0  0  0  0  0  0  0  0  0  0  0  0
   70.7691   49.2855   53.3235 N   0  0  0  0  0  0  0  0  0  0  0  0
   70.2529   48.5658   52.3089 C   0  0  0  0  0  0  0  0  0  0  0  0
   70.6631   48.7503   51.1167 O   0  0  0  0  0  0  0  0  0  0  0  0
   69.2828   47.6275   52.5535 C   0  0  0  0  0  0  0  0  0  0  0  0
   68.7493   46.8678   51.5418 C   0  0  0  0  0  0  0  0  0  0  0  0
   67.7960   45.9340   51.8347 C   0  0  0  0  0  0  0  0  0  0  0  0
   67.3843   45.7703   53.1536 C   0  0  0  0  0  0  0  0  0  0  0  0
   67.9126   46.5266   54.1739 C   0  0  0  0  0  0  0  0  0  0  0  0
   68.8620   47.4577   53.8790 C   0  0  0  0  0  0  0  0  0  0  0  0
  8  9  1  0
  9 10  2  0
  9 11  1  0
 11 12  1  0
 11 18  1  0
 12 13  1  0
 13 14  1  0
 14 15  1  0
 14 17  1  0
 15 16  2  0
 15  1  1  0
  1  2  2  0
  1  6  1  0
  2  3  1  0
  3 19  1  0
  3  4  2  0
 19 20  1  0
 20 21  2  0
 20 30  1  0
 21 22  1  0
 22 23  1  0
 23 24  2  0
 23 25  1  0
 25 26  1  0
 25 30  2  0
 26 27  2  0
 27 28  1  0
 28 29  2  0
 29 30  1  0
  4  5  1  0
  5  6  2  0
  6  7  1  0
 17 18  1  0
M  END
>  <minimizedAffinity>  (564) 
-9.01258

$$$$
data/200k_reference_output/data/smiles/47872.pdb
     RDKit          3D

 31 34  0  0  0  0  0  0  0  0999 V2000
   68.4644   46.0407   54.2593 C   0  0  0  0  0  0  0  0  0  0  0  0
   67.9676   45.5604   53.0657 C   0  0  0  0  0  0  0  0  0  0  0  0
   68.0607   46.2118   51.8716 C   0  0  0  0  0  0  0  0  0  0  0  0
   68.6956   47.4411   51.8463 C   0  0  0  0  0  0  0  0  0  0  0  0
   69.2123   47.9698   53.0100 C   0  0  0  0  0  0  0  0  0  0  0  0
   69.0932   47.2659   54.2114 C   0  0  0  0  0  0  0  0  0  0  0  0
   68.5829   45.7835   56.5870 O   0  0  0  0  0  0  0  0  0  0  0  0
   68.3082   45.2585   55.4776 C   0  0  0  0  0  0  0  0  0  0  0  0
   67.8573   43.9145   55.5137 N   0  0  0  0  0  0  0  0  0  0  0  0
   67.7170   43.1837   56.7165 N   0  0  0  0  0  0  0  0  0  0  0  0
   67.4883   41.7963   56.7203 C   0  0  0  0  0  0  0  0  0  0  0  0
   67.4222   41.2760   55.5487 O   0  0  0  0  0  0  0  0  0  0  0  0
   67.3274   40.9314   57.8789 C   0  0  0  0  0  0  0  0  0  0  0  0
   66.5830   41.3816   58.9781 C   0  0  0  0  0  0  0  0  0  0  0  0
   66.3631   40.6744   60.1115 C   0  0  0  0  0  0  0  0  0  0  0  0
   66.8982   39.4069   60.2321 C   0  0  0  0  0  0  0  0  0  0  0  0
   67.6385   38.9156   59.1804 C   0  0  0  0  0  0  0  0  0  0  0  0
   67.8532   39.6719   58.0111 C   0  0  0  0  0  0  0  0  0  0  0  0
   68.5869   39.1442   57.0048 F   0  0  0  0  0  0  0  0  0  0  0  0
   70.0070   49.5058   52.9803 S   0  0  0  0  0  0  0  0  0  0  0  0
   69.7922   50.1773   51.6534 O   0  0  0  0  0  0  0  0  0  0  0  0
   71.4972   49.2867   53.1268 O   0  0  0  0  0  0  0  0  0  0  0  0
   69.4914   50.5245   54.2697 N   0  0  0  0  0  0  0  0  0  0  0  0
   68.7305   51.7411   54.1101 C   0  0  0  0  0  0  0  0  0  0  0  0
   68.7741   52.4340   55.4471 C   0  0  0  0  0  0  0  0  0  0  0  0
   69.3320   51.4190   56.3643 C   0  0  0  0  0  0  0  0  0  0  0  0
   69.4652   51.4704   57.7359 C   0  0  0  0  0  0  0  0  0  0  0  0
   70.0148   50.4174   58.4287 C   0  0  0  0  0  0  0  0  0  0  0  0
   70.4399   49.2931   57.7511 C   0  0  0  0  0  0  0  0  0  0  0  0
   70.3031   49.2493   56.3825 C   0  0  0  0  0  0  0  0  0  0  0  0
   69.7516   50.2959   55.6504 C   0  0  0  0  0  0  0  0  0  0  0  0
  7  8  2  0
  8  9  1  0
  8  1  1  0
  9 10  1  0
 10 11  1  0
 11 12  2  0
 11 13  1  0
 13 14  2  0
 13 18  1  0
 14 15  1  0
 15 16  2  0
 16 17  1  0
 17 18  2  0
 18 19  1  0
  1  2  2  0
  1  6  1  0
  2  3  1  0
  3  4  2  0
  4  5  1  0
  5 20  1  0
  5  6  2  0
 20 21  2  0
 20 22  2  0
 20 23  1  0
 23 24  1  0
 23 31  1  0
 24 25  1  0
 25 26  1  0
 26 27  1  0
 26 31  2  0
 27 28  2  0
 28 29  1  0
 29 30  2  0
 30 31  1  0
M  END
>  <minimizedAffinity>  (565) 
-10.18499

$$$$
data/200k_reference_output/data/smiles/47902.pdb
     RDKit          3D

 27 30  0  0  0  0  0  0  0  0999 V2000
   70.3739   48.5932   58.3887 C   0  0  1  0  0  0  0  0  0  0  0  0
   70.1439   48.3623   56.9917 N   0  0  0  0  0  0  0  0  0  0  0  0
   69.0367   47.6423   56.5003 C   0  0  0  0  0  0  0  0  0  0  0  0
   68.1596   47.1514   57.2591 O   0  0  0  0  0  0  0  0  0  0  0  0
   68.8416   47.4216   55.0679 C   0  0  0  0  0  0  0  0  0  0  0  0
   69.5244   48.2085   54.1312 C   0  0  0  0  0  0  0  0  0  0  0  0
   69.3661   48.0277   52.7744 C   0  0  0  0  0  0  0  0  0  0  0  0
   68.5265   47.0610   52.2642 C   0  0  0  0  0  0  0  0  0  0  0  0
   68.1875   46.6716   51.0143 N   0  0  0  0  0  0  0  0  0  0  0  0
   67.3084   45.6598   51.1087 C   0  0  0  0  0  0  0  0  0  0  0  0
   67.1085   45.4273   52.4245 N   0  0  0  0  0  0  0  0  0  0  0  0
   67.8464   46.2763   53.1691 C   0  0  0  0  0  0  0  0  0  0  0  0
   68.0087   46.4623   54.5368 C   0  0  0  0  0  0  0  0  0  0  0  0
   71.6316   48.0551   58.9066 C   0  0  0  0  0  0  0  0  0  0  0  0
   72.6372   47.7984   58.2164 O   0  0  0  0  0  0  0  0  0  0  0  0
   72.5195   46.7564   60.7918 C   0  0  0  0  0  0  0  0  0  0  0  0
   71.7138   47.8066   60.2880 O   0  0  0  0  0  0  0  0  0  0  0  0
   70.1656   50.0689   58.6846 C   0  0  0  0  0  0  0  0  0  0  0  0
   69.1658   50.6456   57.7530 C   0  0  0  0  0  0  0  0  0  0  0  0
   67.7990   50.7879   57.9314 C   0  0  0  0  0  0  0  0  0  0  0  0
   67.2563   51.3721   56.8250 N   0  0  0  0  0  0  0  0  0  0  0  0
   68.2222   51.6151   55.9291 C   0  0  0  0  0  0  0  0  0  0  0  0
   68.2725   52.1736   54.6586 C   0  0  0  0  0  0  0  0  0  0  0  0
   69.4469   52.2979   53.9457 C   0  0  0  0  0  0  0  0  0  0  0  0
   70.6316   51.8585   54.4973 C   0  0  0  0  0  0  0  0  0  0  0  0
   70.5845   51.2986   55.7709 C   0  0  0  0  0  0  0  0  0  0  0  0
   69.4111   51.1731   56.4831 C   0  0  0  0  0  0  0  0  0  0  0  0
 16 17  1  0
 17 14  1  0
 14 15  2  0
 14  1  1  0
  1 18  1  6
  1  2  1  0
 18 19  1  0
 19 20  2  0
 19 27  1  0
 20 21  1  0
 21 22  1  0
 22 23  1  0
 22 27  2  0
 23 24  2  0
 24 25  1  0
 25 26  2  0
 26 27  1  0
  2  3  1  0
  3  4  2  0
  3  5  1  0
  5  6  2  0
  5 13  1  0
  6  7  1  0
  7  8  2  0
  8  9  1  0
  8 12  1  0
  9 10  1  0
 10 11  2  0
 11 12  1  0
 12 13  2  0
M  CHG  1  11   1
M  END
>  <minimizedAffinity>  (566) 
-8.60127

$$$$
data/200k_reference_output/data/smiles/48054.pdb
     RDKit          3D

 29 33  0  0  0  0  0  0  0  0999 V2000
   69.4967   46.3086   57.2350 C   0  0  0  0  0  0  0  0  0  0  0  0
   69.2214   45.0380   56.9407 N   0  0  0  0  0  0  0  0  0  0  0  0
   70.0497   44.2415   57.6230 N   0  0  0  0  0  0  0  0  0  0  0  0
   70.8757   44.9985   58.3700 C   0  0  0  0  0  0  0  0  0  0  0  0
   71.9110   44.7563   59.2531 C   0  0  0  0  0  0  0  0  0  0  0  0
   72.5967   45.7658   59.8889 C   0  0  0  0  0  0  0  0  0  0  0  0
   72.2570   47.0732   59.6525 C   0  0  0  0  0  0  0  0  0  0  0  0
   71.2353   47.3327   58.7811 C   0  0  0  0  0  0  0  0  0  0  0  0
   70.5611   46.3180   58.1553 C   0  0  0  0  0  0  0  0  0  0  0  0
   69.0709   48.8837   57.5309 O   0  0  0  0  0  0  0  0  0  0  0  0
   68.7283   47.7192   56.6330 S   0  0  0  0  0  0  0  0  0  0  0  0
   67.2141   47.5828   56.7219 O   0  0  0  0  0  0  0  0  0  0  0  0
   69.1831   48.1670   55.0047 C   0  0  0  0  0  0  0  0  0  0  0  0
   70.0012   49.2469   54.7678 C   0  0  0  0  0  0  0  0  0  0  0  0
   70.3946   49.5557   53.5030 C   0  0  0  0  0  0  0  0  0  0  0  0
   69.9957   48.8108   52.4224 C   0  0  0  0  0  0  0  0  0  0  0  0
   69.1607   47.7093   52.6494 C   0  0  0  0  0  0  0  0  0  0  0  0
   68.7432   46.9658   51.5662 C   0  0  0  0  0  0  0  0  0  0  0  0
   67.9130   45.8921   51.7534 C   0  0  0  0  0  0  0  0  0  0  0  0
   67.5097   45.5759   53.0248 C   0  0  0  0  0  0  0  0  0  0  0  0
   67.9284   46.3201   54.1044 C   0  0  0  0  0  0  0  0  0  0  0  0
   68.7653   47.4049   53.9505 C   0  0  0  0  0  0  0  0  0  0  0  0
   72.9447   48.1891   60.2964 C   0  0  0  0  0  0  0  0  0  0  0  0
   74.2301   48.5191   59.8248 N   0  0  0  0  0  0  0  0  0  0  0  0
   74.9506   49.5517   60.4600 C   0  0  0  0  0  0  0  0  0  0  0  0
   74.9181   50.8813   59.7415 C   0  0  0  0  0  0  0  0  0  0  0  0
   75.2031   50.7318   58.3252 N   0  0  0  0  0  0  0  0  0  0  0  0
   74.4377   49.6901   57.7123 C   0  0  0  0  0  0  0  0  0  0  0  0
   74.4957   48.3924   58.4430 C   0  0  0  0  0  0  0  0  0  0  0  0
 10 11  2  0
 11 12  2  0
 11 13  1  0
 11  1  1  0
 13 14  2  0
 13 22  1  0
 14 15  1  0
 15 16  2  0
 16 17  1  0
 17 18  1  0
 17 22  2  0
 18 19  2  0
 19 20  1  0
 20 21  2  0
 21 22  1  0
  1  2  2  0
  1  9  1  0
  2  3  1  0
  3  4  1  0
  4  5  1  0
  4  9  2  0
  5  6  2  0
  6  7  1  0
  7 23  1  0
  7  8  2  0
 23 24  1  0
 24 25  1  0
 24 29  1  0
 25 26  1  0
 26 27  1  0
 27 28  1  0
 28 29  1  0
  8  9  1  0
M  CHG  2  24   1  27   1
M  END
>  <minimizedAffinity>  (567) 
-9.12361

$$$$
data/200k_reference_output/data/smiles/48067.pdb
     RDKit          3D

 26 28  0  0  0  0  0  0  0  0999 V2000
   69.7786   45.1554   59.1352 O   0  0  0  0  0  0  0  0  0  0  0  0
   70.6472   45.0396   58.2364 C   0  0  0  0  0  0  0  0  0  0  0  0
   70.7021   46.0329   57.2483 N   0  0  0  0  0  0  0  0  0  0  0  0
   71.5752   43.8964   58.2248 C   0  0  0  0  0  0  0  0  0  0  0  0
   72.9502   44.1336   58.0906 C   0  0  0  0  0  0  0  0  0  0  0  0
   73.8632   43.1055   58.0733 C   0  0  0  0  0  0  0  0  0  0  0  0
   75.1711   43.4117   57.9404 F   0  0  0  0  0  0  0  0  0  0  0  0
   73.3996   41.8104   58.1920 C   0  0  0  0  0  0  0  0  0  0  0  0
   72.0620   41.5142   58.3271 C   0  0  0  0  0  0  0  0  0  0  0  0
   71.1864   42.5891   58.3377 C   0  0  0  0  0  0  0  0  0  0  0  0
   71.5982   40.1391   58.4506 C   0  0  0  0  0  0  0  0  0  0  0  0
   72.3965   39.0741   58.7987 C   0  0  0  0  0  0  0  0  0  0  0  0
   71.6046   37.9173   58.8151 C   0  0  0  0  0  0  0  0  0  0  0  0
   70.3529   38.3793   58.4680 C   0  0  0  0  0  0  0  0  0  0  0  0
   70.3840   39.6893   58.2603 O   0  0  0  0  0  0  0  0  0  0  0  0
   69.8949   47.1507   57.1308 N   0  0  0  0  0  0  0  0  0  0  0  0
   68.5970   46.7997   56.0617 S   0  0  0  0  0  0  0  0  0  0  0  0
   68.3031   45.3218   56.0215 O   0  0  0  0  0  0  0  0  0  0  0  0
   67.3201   47.4465   56.5585 O   0  0  0  0  0  0  0  0  0  0  0  0
   68.9696   47.2993   54.4435 C   0  0  0  0  0  0  0  0  0  0  0  0
   69.7085   48.4419   54.1690 C   0  0  0  0  0  0  0  0  0  0  0  0
   69.9548   48.7598   52.8535 C   0  0  0  0  0  0  0  0  0  0  0  0
   69.4945   47.9865   51.8032 C   0  0  0  0  0  0  0  0  0  0  0  0
   68.7661   46.8583   52.0592 C   0  0  0  0  0  0  0  0  0  0  0  0
   68.5202   46.5420   53.3815 C   0  0  0  0  0  0  0  0  0  0  0  0
   67.7926   45.4162   53.6483 F   0  0  0  0  0  0  0  0  0  0  0  0
  1  2  2  0
  2  3  1  0
  2  4  1  0
  3 16  1  0
 16 17  1  0
 17 18  2  0
 17 19  2  0
 17 20  1  0
 20 21  2  0
 20 25  1  0
 21 22  1  0
 22 23  2  0
 23 24  1  0
 24 25  2  0
 25 26  1  0
  4  5  2  0
  4 10  1  0
  5  6  1  0
  6  7  1  0
  6  8  2  0
  8  9  1  0
  9 11  1  0
  9 10  2  0
 11 12  2  0
 11 15  1  0
 12 13  1  0
 13 14  2  0
 14 15  1  0
M  END
>  <minimizedAffinity>  (568) 
-8.89986

$$$$
data/200k_reference_output/data/smiles/48135.pdb
     RDKit          3D

 26 30  0  0  0  0  0  0  0  0999 V2000
   74.4650   35.2042   54.2844 N   0  0  0  0  0  0  0  0  0  0  0  0
   75.6784   35.3825   54.8429 C   0  0  0  0  0  0  0  0  0  0  0  0
   76.8545   35.2433   54.1699 C   0  0  0  0  0  0  0  0  0  0  0  0
   76.8305   34.8984   52.8345 C   0  0  0  0  0  0  0  0  0  0  0  0
   75.6056   34.7071   52.2259 C   0  0  0  0  0  0  0  0  0  0  0  0
   74.4599   34.8660   52.9677 C   0  0  0  0  0  0  0  0  0  0  0  0
   75.6030   34.3360   50.8171 C   0  0  0  0  0  0  0  0  0  0  0  0
   74.6789   33.5018   50.2242 C   0  0  0  0  0  0  0  0  0  0  0  0
   74.9657   33.3761   48.9131 N   0  0  0  0  0  0  0  0  0  0  0  0
   76.0650   34.1165   48.6368 C   0  0  0  0  0  0  0  0  0  0  0  0
   76.7886   34.3509   47.4801 C   0  0  0  0  0  0  0  0  0  0  0  0
   77.8895   35.1733   47.5305 C   0  0  0  0  0  0  0  0  0  0  0  0
   78.2999   35.7765   48.7048 C   0  0  0  0  0  0  0  0  0  0  0  0
   77.5705   35.5418   49.8745 C   0  0  0  0  0  0  0  0  0  0  0  0
   76.4720   34.7195   49.8172 C   0  0  0  0  0  0  0  0  0  0  0  0
   73.2301   35.3557   55.0299 C   0  0  0  0  0  0  0  0  0  0  0  0
   73.4431   34.9124   56.4515 C   0  0  0  0  0  0  0  0  0  0  0  0
   70.4576   34.6194   60.8359 C   0  0  0  0  0  0  0  0  0  0  0  0
   71.1552   33.5978   60.2130 C   0  0  0  0  0  0  0  0  0  0  0  0
   71.8918   33.8566   59.0657 C   0  0  0  0  0  0  0  0  0  0  0  0
   71.9344   35.1262   58.5373 C   0  0  0  0  0  0  0  0  0  0  0  0
   72.5926   35.6080   57.4166 C   0  0  0  0  0  0  0  0  0  0  0  0
   72.2756   36.9495   57.3757 C   0  0  0  0  0  0  0  0  0  0  0  0
   71.4784   37.2498   58.4072 N   0  0  0  0  0  0  0  0  0  0  0  0
   71.2393   36.1573   59.1529 C   0  0  0  0  0  0  0  0  0  0  0  0
   70.5247   35.8771   60.2776 C   0  0  0  0  0  0  0  0  0  0  0  0
 18 19  2  0
 18 26  1  0
 19 20  1  0
 20 21  2  0
 21 22  1  0
 21 25  1  0
 22 17  1  0
 22 23  2  0
 17 16  1  0
 16  1  1  0
  1  2  2  0
  1  6  1  0
  2  3  1  0
  3  4  2  0
  4  5  1  0
  5  7  1  0
  5  6  2  0
  7  8  2  0
  7 15  1  0
  8  9  1  0
  9 10  1  0
 10 11  1  0
 10 15  2  0
 11 12  2  0
 12 13  1  0
 13 14  2  0
 14 15  1  0
 23 24  1  0
 24 25  1  0
 25 26  2  0
M  CHG  1   1   1
M  END
>  <minimizedAffinity>  (569) 
-8.92035

$$$$
data/200k_reference_output/data/smiles/48230.pdb
     RDKit          3D

 28 31  0  0  0  0  0  0  0  0999 V2000
   69.2110   48.1054   56.3862 C   0  0  1  0  0  0  0  0  0  0  0  0
   69.8020   47.6171   57.6648 C   0  0  0  0  0  0  0  0  0  0  0  0
   69.4882   46.2397   57.7520 N   0  0  0  0  0  0  0  0  0  0  0  0
   69.2595   45.7819   56.3857 C   0  0  0  0  0  0  0  0  0  0  0  0
   68.4943   46.9624   55.7960 C   0  0  2  0  0  0  0  0  0  0  0  0
   68.5383   46.9302   54.3089 C   0  0  0  0  0  0  0  0  0  0  0  0
   69.2879   47.7964   53.5647 C   0  0  0  0  0  0  0  0  0  0  0  0
   69.2915   47.7217   52.1805 C   0  0  0  0  0  0  0  0  0  0  0  0
   68.5471   46.7813   51.5111 C   0  0  0  0  0  0  0  0  0  0  0  0
   67.7891   45.9041   52.2566 C   0  0  0  0  0  0  0  0  0  0  0  0
   67.7960   45.9910   53.6304 C   0  0  0  0  0  0  0  0  0  0  0  0
   70.6185   45.2524   58.5562 S   0  0  0  0  0  0  0  0  0  0  0  0
   69.9296   44.3947   59.5746 O   0  0  0  0  0  0  0  0  0  0  0  0
   71.3703   44.4033   57.5590 O   0  0  0  0  0  0  0  0  0  0  0  0
   71.7945   46.2736   59.3536 C   0  0  0  0  0  0  0  0  0  0  0  0
   73.0801   46.6017   58.9514 C   0  0  0  0  0  0  0  0  0  0  0  0
   73.6502   47.4174   59.8546 N   0  0  0  0  0  0  0  0  0  0  0  0
   74.9879   48.0025   59.8276 C   0  0  0  0  0  0  0  0  0  0  0  0
   72.7420   47.6133   60.8271 C   0  0  0  0  0  0  0  0  0  0  0  0
   71.6179   46.9182   60.5188 N   0  0  0  0  0  0  0  0  0  0  0  0
   68.4545   49.3179   56.4993 N   0  0  0  0  0  0  0  0  0  0  0  0
   69.6034   51.0048   58.4565 C   0  0  0  0  0  0  0  0  0  0  0  0
   69.3654   51.4718   57.0500 C   0  0  0  0  0  0  0  0  0  0  0  0
   69.7276   52.7633   56.7357 C   0  0  0  0  0  0  0  0  0  0  0  0
   69.5346   53.2431   55.4585 C   0  0  0  0  0  0  0  0  0  0  0  0
   68.9773   52.4030   54.5259 C   0  0  0  0  0  0  0  0  0  0  0  0
   68.6174   51.0949   54.8712 C   0  0  0  0  0  0  0  0  0  0  0  0
   68.8047   50.6057   56.1349 C   0  0  0  0  0  0  0  0  0  0  0  0
 22 23  1  0
 23 24  2  0
 23 28  1  0
 24 25  1  0
 25 26  2  0
 26 27  1  0
 27 28  2  0
 28 21  1  0
  1 21  1  1
  1  2  1  0
  1  5  1  0
  2  3  1  0
  3 12  1  0
  3  4  1  0
 12 13  2  0
 12 14  2  0
 12 15  1  0
 15 16  2  0
 15 20  1  0
 16 17  1  0
 17 18  1  0
 17 19  1  0
 19 20  2  0
  4  5  1  0
  5  6  1  6
  6  7  2  0
  6 11  1  0
  7  8  1  0
  8  9  2  0
  9 10  1  0
 10 11  2  0
M  END
>  <minimizedAffinity>  (570) 
-8.81179

$$$$
data/200k_reference_output/data/smiles/48244.pdb
     RDKit          3D

 33 37  0  0  0  0  0  0  0  0999 V2000
   65.8759   42.6819   60.6746 O   0  0  0  0  0  0  0  0  0  0  0  0
   66.9281   42.1342   61.1256 C   0  0  0  0  0  0  0  0  0  0  0  0
   68.1924   42.5153   60.4828 C   0  0  0  0  0  0  0  0  0  0  0  0
   68.9722   43.2491   61.1896 O   0  0  0  0  0  0  0  0  0  0  0  0
   68.5606   42.1342   59.1983 N   0  0  0  0  0  0  0  0  0  0  0  0
   69.8803   42.4606   58.6902 C   0  0  0  0  0  0  0  0  0  0  0  0
   69.7549   43.4439   57.5288 C   0  0  0  0  0  0  0  0  0  0  0  0
   68.6462   43.1154   56.6715 N   0  0  0  0  0  0  0  0  0  0  0  0
   68.0535   43.8947   55.6955 C   0  0  0  0  0  0  0  0  0  0  0  0
   67.0531   43.3300   55.0731 O   0  0  0  0  0  0  0  0  0  0  0  0
   68.0930   41.7505   56.8373 C   0  0  0  0  0  0  0  0  0  0  0  0
   67.6947   41.4776   58.2653 C   0  0  0  0  0  0  0  0  0  0  0  0
   68.3523   45.2152   55.2510 C   0  0  0  0  0  0  0  0  0  0  0  0
   68.1196   45.5783   53.8922 C   0  0  0  0  0  0  0  0  0  0  0  0
   68.4076   46.8273   53.4226 C   0  0  0  0  0  0  0  0  0  0  0  0
   68.9354   47.8003   54.2363 C   0  0  0  0  0  0  0  0  0  0  0  0
   69.1743   47.4966   55.5490 C   0  0  0  0  0  0  0  0  0  0  0  0
   68.8725   46.2066   56.0107 C   0  0  0  0  0  0  0  0  0  0  0  0
   66.8301   41.1889   62.2134 C   0  0  0  0  0  0  0  0  0  0  0  0
   67.1492   41.4292   63.5276 C   0  0  0  0  0  0  0  0  0  0  0  0
   66.8620   40.3348   64.2853 N   0  0  0  0  0  0  0  0  0  0  0  0
   66.3589   39.3624   63.5025 C   0  0  0  0  0  0  0  0  0  0  0  0
   65.9516   38.0837   63.8263 C   0  0  0  0  0  0  0  0  0  0  0  0
   65.5159   37.3445   62.7974 N   0  0  0  0  0  0  0  0  0  0  0  0
   65.4676   37.7837   61.5435 C   0  0  0  0  0  0  0  0  0  0  0  0
   65.8758   39.0602   61.2286 C   0  0  0  0  0  0  0  0  0  0  0  0
   65.8381   39.5130   59.9511 F   0  0  0  0  0  0  0  0  0  0  0  0
   66.3362   39.8851   62.2163 C   0  0  0  0  0  0  0  0  0  0  0  0
   65.9998   37.5540   65.1664 C   0  0  0  0  0  0  0  0  0  0  0  0
   65.3554   36.5387   65.7678 C   0  0  0  0  0  0  0  0  0  0  0  0
   65.7468   36.4064   67.1132 C   0  0  0  0  0  0  0  0  0  0  0  0
   66.6436   37.3937   67.2604 N   0  0  0  0  0  0  0  0  0  0  0  0
   66.8103   38.0780   66.1380 N   0  0  0  0  0  0  0  0  0  0  0  0
  1  2  2  0
  2  3  1  0
  2 19  1  0
  3  4  2  0
  3  5  1  0
  5  6  1  0
  5 12  1  0
  6  7  1  0
  7  8  1  0
  8  9  1  0
  8 11  1  0
  9 10  2  0
  9 13  1  0
 13 14  2  0
 13 18  1  0
 14 15  1  0
 15 16  2  0
 16 17  1  0
 17 18  2  0
 11 12  1  0
 19 20  2  0
 19 28  1  0
 20 21  1  0
 21 22  1  0
 22 23  1  0
 22 28  2  0
 23 29  1  0
 23 24  2  0
 29 30  1  0
 29 33  2  0
 30 31  2  0
 31 32  1  0
 32 33  1  0
 24 25  1  0
 25 26  2  0
 26 27  1  0
 26 28  1  0
M  END
>  <minimizedAffinity>  (571) 
-8.73238

$$$$
data/200k_reference_output/data/smiles/48385.pdb
     RDKit          3D

 29 32  0  0  0  0  0  0  0  0999 V2000
   72.1150   42.6822   58.0811 C   0  0  0  0  0  0  0  0  0  0  0  0
   73.3744   42.7496   58.6454 C   0  0  0  0  0  0  0  0  0  0  0  0
   73.9813   41.6274   59.1714 C   0  0  0  0  0  0  0  0  0  0  0  0
   73.3759   40.3887   59.1661 C   0  0  0  0  0  0  0  0  0  0  0  0
   73.9733   39.2923   59.6799 N   0  0  0  0  0  0  0  0  0  0  0  0
   73.3734   38.0882   59.6672 C   0  0  0  0  0  0  0  0  0  0  0  0
   72.1480   38.0066   59.1232 N   0  0  0  0  0  0  0  0  0  0  0  0
   71.5125   39.0770   58.5970 C   0  0  0  0  0  0  0  0  0  0  0  0
   70.3673   38.9670   58.0952 O   0  0  0  0  0  0  0  0  0  0  0  0
   72.1168   40.3187   58.6026 C   0  0  0  0  0  0  0  0  0  0  0  0
   71.5105   41.4437   58.0763 C   0  0  0  0  0  0  0  0  0  0  0  0
   71.3577   36.8020   59.0229 C   0  0  0  0  0  0  0  0  0  0  0  0
   72.0943   35.8378   58.1059 C   0  0  0  0  0  0  0  0  0  0  0  0
   73.5721   36.1683   58.0161 C   0  0  0  0  0  0  0  0  0  0  0  0
   74.3039   35.8301   59.3139 C   0  0  0  0  0  0  0  0  0  0  0  0
   74.1967   37.0066   60.2793 C   0  0  0  0  0  0  0  0  0  0  0  0
   70.7409   44.7572   58.3037 C   0  0  0  0  0  0  0  0  0  0  0  0
   70.6024   44.4984   59.5263 O   0  0  0  0  0  0  0  0  0  0  0  0
   71.5058   43.8511   57.5410 N   0  0  0  0  0  0  0  0  0  0  0  0
   70.3205   47.0815   58.2491 O   0  0  0  0  0  0  0  0  0  0  0  0
   70.1161   45.9578   57.7434 C   0  0  0  0  0  0  0  0  0  0  0  0
   69.2630   45.8676   56.6114 N   0  0  0  0  0  0  0  0  0  0  0  0
   68.5969   46.9625   55.9749 C   0  0  0  0  0  0  0  0  0  0  0  0
   68.5956   46.9330   54.5079 C   0  0  0  0  0  0  0  0  0  0  0  0
   69.2757   47.9059   53.7906 C   0  0  0  0  0  0  0  0  0  0  0  0
   69.2644   47.8497   52.4354 C   0  0  0  0  0  0  0  0  0  0  0  0
   68.5998   46.8606   51.7489 C   0  0  0  0  0  0  0  0  0  0  0  0
   67.9349   45.9106   52.4708 C   0  0  0  0  0  0  0  0  0  0  0  0
   67.9212   45.9303   53.8584 C   0  0  0  0  0  0  0  0  0  0  0  0
 20 21  2  0
 21 22  1  0
 21 17  1  0
 22 23  1  0
 23 24  1  0
 24 25  2  0
 24 29  1  0
 25 26  1  0
 26 27  2  0
 27 28  1  0
 28 29  2  0
 17 18  2  0
 17 19  1  0
 19  1  1  0
  1  2  2  0
  1 11  1  0
  2  3  1  0
  3  4  2  0
  4  5  1  0
  4 10  1  0
  5  6  2  0
  6  7  1  0
  6 16  1  0
  7  8  1  0
  7 12  1  0
  8  9  2  0
  8 10  1  0
 10 11  2  0
 12 13  1  0
 13 14  1  0
 14 15  1  0
 15 16  1  0
M  END
>  <minimizedAffinity>  (572) 
-8.78320

$$$$
data/200k_reference_output/data/smiles/48386.pdb
     RDKit          3D

 28 30  0  0  0  0  0  0  0  0999 V2000
   70.0082   49.7815   54.0354 C   0  0  0  0  0  0  0  0  0  0  0  0
   69.7924   49.1386   52.8557 C   0  0  0  0  0  0  0  0  0  0  0  0
   70.2207   49.6408   51.6048 O   0  0  0  0  0  0  0  0  0  0  0  0
   69.1163   47.9324   52.8953 C   0  0  0  0  0  0  0  0  0  0  0  0
   68.8824   47.3201   51.6736 C   0  0  0  0  0  0  0  0  0  0  0  0
   68.1804   46.1359   51.6600 C   0  0  0  0  0  0  0  0  0  0  0  0
   67.7448   45.6167   52.8565 C   0  0  0  0  0  0  0  0  0  0  0  0
   67.0420   44.4488   52.9038 F   0  0  0  0  0  0  0  0  0  0  0  0
   67.9808   46.2312   54.0833 C   0  0  0  0  0  0  0  0  0  0  0  0
   68.6801   47.4053   54.0963 C   0  0  0  0  0  0  0  0  0  0  0  0
   68.8906   48.0388   55.2999 N   0  0  0  0  0  0  0  0  0  0  0  0
   69.5416   49.1981   55.2262 C   0  0  0  0  0  0  0  0  0  0  0  0
   69.7766   49.8605   56.2645 O   0  0  0  0  0  0  0  0  0  0  0  0
   71.7378   51.3941   54.9933 N   0  0  0  0  0  0  0  0  0  0  0  0
   70.7375   51.0299   54.0910 C   0  0  0  0  0  0  0  0  0  0  0  0
   70.4474   51.9288   53.2139 O   0  0  0  0  0  0  0  0  0  0  0  0
   72.4175   52.6926   54.9460 C   0  0  0  0  0  0  0  0  0  0  0  0
   73.9193   52.5959   53.0856 O   0  0  0  0  0  0  0  0  0  0  0  0
   73.7658   52.4891   54.3294 C   0  0  0  0  0  0  0  0  0  0  0  0
   74.8669   52.1824   55.1067 O   0  0  0  0  0  0  0  0  0  0  0  0
   68.4868   47.4470   56.5527 C   0  0  0  0  0  0  0  0  0  0  0  0
   69.6369   46.7776   57.2111 C   0  0  0  0  0  0  0  0  0  0  0  0
   70.5695   47.5197   57.9563 C   0  0  0  0  0  0  0  0  0  0  0  0
   71.5910   46.9517   58.6820 C   0  0  0  0  0  0  0  0  0  0  0  0
   71.7424   45.5947   58.7068 C   0  0  0  0  0  0  0  0  0  0  0  0
   70.8485   44.8525   57.9860 C   0  0  0  0  0  0  0  0  0  0  0  0
   69.8313   45.4134   57.2599 C   0  0  0  0  0  0  0  0  0  0  0  0
   68.8257   44.3844   56.2483 Cl  0  0  0  0  0  0  0  0  0  0  0  0
 18 19  2  0
 19 20  1  0
 19 17  1  0
 17 14  1  0
 14 15  1  0
 15 16  2  0
 15  1  1  0
  1  2  2  0
  1 12  1  0
  2  3  1  0
  2  4  1  0
  4  5  2  0
  4 10  1  0
  5  6  1  0
  6  7  2  0
  7  8  1  0
  7  9  1  0
  9 10  2  0
 10 11  1  0
 11 21  1  0
 11 12  1  0
 21 22  1  0
 22 23  2  0
 22 27  1  0
 23 24  1  0
 24 25  2  0
 25 26  1  0
 26 27  2  0
 27 28  1  0
 12 13  2  0
M  END
>  <minimizedAffinity>  (573) 
-8.74017

$$$$
data/200k_reference_output/data/smiles/48397.pdb
     RDKit          3D

 30 32  0  0  0  0  0  0  0  0999 V2000
   68.4652   38.4190   59.7765 N   0  0  0  0  0  0  0  0  0  0  0  0
   67.8366   38.4924   61.0806 C   0  0  0  0  0  0  0  0  0  0  0  0
   67.5027   39.9751   61.2754 C   0  0  0  0  0  0  0  0  0  0  0  0
   67.6535   40.5730   59.8909 C   0  0  0  0  0  0  0  0  0  0  0  0
   67.7019   39.3546   59.0349 C   0  0  1  0  0  0  0  0  0  0  0  0
   70.1189   38.6946   59.9390 S   0  0  0  0  0  0  0  0  0  0  0  0
   70.5445   38.5923   61.3985 O   0  0  0  0  0  0  0  0  0  0  0  0
   70.5842   40.0348   59.4664 O   0  0  0  0  0  0  0  0  0  0  0  0
   73.1666   34.2923   57.0506 C   0  0  0  0  0  0  0  0  0  0  0  0
   72.4210   35.3760   57.7584 C   0  0  0  0  0  0  0  0  0  0  0  0
   71.6952   35.1102   58.8991 C   0  0  0  0  0  0  0  0  0  0  0  0
   70.9963   36.1023   59.5700 C   0  0  0  0  0  0  0  0  0  0  0  0
   70.9983   37.4066   59.1223 C   0  0  0  0  0  0  0  0  0  0  0  0
   71.7314   37.6617   57.9750 C   0  0  0  0  0  0  0  0  0  0  0  0
   72.4262   36.6771   57.3061 C   0  0  0  0  0  0  0  0  0  0  0  0
   68.1133   39.5833   57.6304 C   0  0  0  0  0  0  0  0  0  0  0  0
   68.4414   40.9827   57.4190 N   0  0  0  0  0  0  0  0  0  0  0  0
   67.8987   41.7787   56.3904 C   0  0  0  0  0  0  0  0  0  0  0  0
   67.0812   41.3089   55.5804 O   0  0  0  0  0  0  0  0  0  0  0  0
   68.3216   43.1820   56.2986 C   0  0  0  0  0  0  0  0  0  0  0  0
   69.0492   43.6604   57.1910 O   0  0  0  0  0  0  0  0  0  0  0  0
   67.9362   44.0182   55.2359 N   0  0  0  0  0  0  0  0  0  0  0  0
   68.2548   45.3632   55.0113 C   0  0  0  0  0  0  0  0  0  0  0  0
   68.7467   46.2444   55.9345 C   0  0  0  0  0  0  0  0  0  0  0  0
   69.0384   47.5791   55.6170 C   0  0  0  0  0  0  0  0  0  0  0  0
   68.8430   48.0676   54.3578 C   0  0  0  0  0  0  0  0  0  0  0  0
   69.1067   49.3433   53.9973 F   0  0  0  0  0  0  0  0  0  0  0  0
   68.3480   47.2001   53.4085 C   0  0  0  0  0  0  0  0  0  0  0  0
   68.0656   45.8937   53.7304 C   0  0  0  0  0  0  0  0  0  0  0  0
   67.5844   45.0902   52.7627 F   0  0  0  0  0  0  0  0  0  0  0  0
  9 10  1  0
 10 11  2  0
 10 15  1  0
 11 12  1  0
 12 13  2  0
 13  6  1  0
 13 14  1  0
  6  7  2  0
  6  8  2  0
  6  1  1  0
  1  2  1  0
  1  5  1  0
  2  3  1  0
  3  4  1  0
  4  5  1  0
  5 16  1  6
 16 17  1  0
 17 18  1  0
 18 19  2  0
 18 20  1  0
 20 21  2  0
 20 22  1  0
 22 23  1  0
 23 24  2  0
 23 29  1  0
 24 25  1  0
 25 26  2  0
 26 27  1  0
 26 28  1  0
 28 29  2  0
 29 30  1  0
 14 15  2  0
M  END
>  <minimizedAffinity>  (574) 
-8.90745

$$$$
data/200k_reference_output/data/smiles/48420.pdb
     RDKit          3D

 24 26  0  0  0  0  0  0  0  0999 V2000
   68.9824   47.9230   56.7607 C   0  0  0  0  0  0  0  0  0  0  0  0
   68.0603   48.5199   57.3492 O   0  0  0  0  0  0  0  0  0  0  0  0
   69.4793   48.3907   55.4546 C   0  0  0  0  0  0  0  0  0  0  0  0
   70.3425   49.4148   55.1481 C   0  0  0  0  0  0  0  0  0  0  0  0
   70.5201   49.4657   53.8150 N   0  0  0  0  0  0  0  0  0  0  0  0
   69.8004   48.5035   53.1978 C   0  0  0  0  0  0  0  0  0  0  0  0
   69.6377   48.1495   51.8804 C   0  0  0  0  0  0  0  0  0  0  0  0
   68.8146   47.1070   51.5173 C   0  0  0  0  0  0  0  0  0  0  0  0
   68.1475   46.4162   52.5263 C   0  0  0  0  0  0  0  0  0  0  0  0
   68.3285   46.7897   53.8332 C   0  0  0  0  0  0  0  0  0  0  0  0
   69.1449   47.8279   54.2376 C   0  0  0  0  0  0  0  0  0  0  0  0
   67.2995   45.3504   52.1473 N   0  0  0  0  0  0  0  0  0  0  0  0
   67.1422   44.4190   52.9726 O   0  0  0  0  0  0  0  0  0  0  0  0
   66.6812   45.3468   50.9267 O   0  0  0  0  0  0  0  0  0  0  0  0
   70.3245   46.8374   58.4022 O   0  0  0  0  0  0  0  0  0  0  0  0
   69.5593   46.7436   57.4004 C   0  0  0  0  0  0  0  0  0  0  0  0
   69.2591   45.4519   56.8992 N   0  0  0  0  0  0  0  0  0  0  0  0
   69.7236   44.2566   57.4356 N   0  0  0  0  0  0  0  0  0  0  0  0
   69.0874   43.0138   57.1821 C   0  0  0  0  0  0  0  0  0  0  0  0
   69.4639   41.8733   57.8986 C   0  0  0  0  0  0  0  0  0  0  0  0
   68.8388   40.6710   57.6908 C   0  0  0  0  0  0  0  0  0  0  0  0
   67.8218   40.5451   56.7716 C   0  0  0  0  0  0  0  0  0  0  0  0
   67.4625   41.6673   56.0766 C   0  0  0  0  0  0  0  0  0  0  0  0
   68.0716   42.8798   56.2666 C   0  0  0  0  0  0  0  0  0  0  0  0
 15 16  2  0
 16 17  1  0
 16  1  1  0
 17 18  1  0
 18 19  1  0
 19 20  2  0
 19 24  1  0
 20 21  1  0
 21 22  2  0
 22 23  1  0
 23 24  2  0
  1  2  2  0
  1  3  1  0
  3  4  2  0
  3 11  1  0
  4  5  1  0
  5  6  1  0
  6  7  1  0
  6 11  2  0
  7  8  2  0
  8  9  1  0
  9 12  1  0
  9 10  2  0
 12 13  2  0
 12 14  1  0
 10 11  1  0
M  CHG  2  12   1  14  -1
M  END
>  <minimizedAffinity>  (575) 
-8.53381

$$$$
data/200k_reference_output/data/smiles/48496.pdb
     RDKit          3D

 24 26  0  0  0  0  0  0  0  0999 V2000
   71.4237   46.4087   58.8989 S   0  0  0  0  0  0  0  0  0  0  0  0
   71.4919   46.8400   60.3526 O   0  0  0  0  0  0  0  0  0  0  0  0
   71.7270   47.6001   58.0722 O   0  0  0  0  0  0  0  0  0  0  0  0
   72.5992   45.1790   58.6055 C   0  0  0  0  0  0  0  0  0  0  0  0
   72.1913   43.9567   58.1054 C   0  0  0  0  0  0  0  0  0  0  0  0
   73.1187   42.9553   57.8623 C   0  0  0  0  0  0  0  0  0  0  0  0
   74.4627   43.1867   58.1248 C   0  0  0  0  0  0  0  0  0  0  0  0
   75.4231   42.2158   57.8978 C   0  0  0  0  0  0  0  0  0  0  0  0
   76.7578   42.4339   58.1547 C   0  0  0  0  0  0  0  0  0  0  0  0
   77.1871   43.6556   58.6585 C   0  0  0  0  0  0  0  0  0  0  0  0
   76.2351   44.6278   58.8875 C   0  0  0  0  0  0  0  0  0  0  0  0
   74.9003   44.4039   58.6279 C   0  0  0  0  0  0  0  0  0  0  0  0
   73.9296   45.3662   58.8504 C   0  0  0  0  0  0  0  0  0  0  0  0
   69.8192   45.9061   58.5883 N   0  0  0  0  0  0  0  0  0  0  0  0
   68.6177   47.7998   57.0605 O   0  0  0  0  0  0  0  0  0  0  0  0
   68.9636   46.7647   56.4281 C   0  0  0  0  0  0  0  0  0  0  0  0
   69.5941   45.7552   57.1948 N   0  0  0  0  0  0  0  0  0  0  0  0
   68.7070   46.6665   54.9961 C   0  0  0  0  0  0  0  0  0  0  0  0
   68.0509   45.6170   54.4028 C   0  0  0  0  0  0  0  0  0  0  0  0
   67.8180   45.5483   53.0331 C   0  0  0  0  0  0  0  0  0  0  0  0
   68.2567   46.5690   52.2142 C   0  0  0  0  0  0  0  0  0  0  0  0
   68.0368   46.5141   50.8726 F   0  0  0  0  0  0  0  0  0  0  0  0
   68.9217   47.6370   52.7962 C   0  0  0  0  0  0  0  0  0  0  0  0
   69.1375   47.6768   54.1607 C   0  0  0  0  0  0  0  0  0  0  0  0
 15 16  2  0
 16 17  1  0
 16 18  1  0
 17 14  1  0
 14  1  1  0
  1  2  2  0
  1  3  2  0
  1  4  1  0
  4  5  2  0
  4 13  1  0
  5  6  1  0
  6  7  2  0
  7  8  1  0
  7 12  1  0
  8  9  2  0
  9 10  1  0
 10 11  2  0
 11 12  1  0
 12 13  2  0
 18 19  2  0
 18 24  1  0
 19 20  1  0
 20 21  2  0
 21 22  1  0
 21 23  1  0
 23 24  2  0
M  END
>  <minimizedAffinity>  (576) 
-8.59316

$$$$
data/200k_reference_output/data/smiles/48719.pdb
     RDKit          3D

 27 30  0  0  0  0  0  0  0  0999 V2000
   69.2323   49.3275   56.5500 C   0  0  0  0  0  0  0  0  0  0  0  0
   68.3445   50.3353   56.8141 C   0  0  0  0  0  0  0  0  0  0  0  0
   68.5388   51.2264   57.8685 C   0  0  0  0  0  0  0  0  0  0  0  0
   69.6176   51.0896   58.6377 N   0  0  0  0  0  0  0  0  0  0  0  0
   70.4992   50.1126   58.3993 C   0  0  0  0  0  0  0  0  0  0  0  0
   70.3392   49.1983   57.3498 C   0  0  0  0  0  0  0  0  0  0  0  0
   71.5060   48.3039   57.4343 C   0  0  0  0  0  0  0  0  0  0  0  0
   72.4912   49.0567   58.2321 C   0  0  2  0  0  0  0  0  0  0  0  0
   71.6786   49.8201   59.0958 O   0  0  0  0  0  0  0  0  0  0  0  0
   69.2817   47.7838   53.1185 C   0  0  0  0  0  0  0  0  0  0  0  0
   68.6298   46.5931   53.3546 C   0  0  0  0  0  0  0  0  0  0  0  0
   68.1710   46.2865   54.6330 C   0  0  0  0  0  0  0  0  0  0  0  0
   68.3776   47.1871   55.6530 C   0  0  0  0  0  0  0  0  0  0  0  0
   69.0316   48.4028   55.4559 C   0  0  0  0  0  0  0  0  0  0  0  0
   69.4642   48.6525   54.1674 C   0  0  0  0  0  0  0  0  0  0  0  0
   69.9636   49.4384   51.3437 N   0  0  0  0  0  0  0  0  0  0  0  0
   69.7658   48.1172   51.7912 C   0  0  0  0  0  0  0  0  0  0  0  0
   70.0262   47.1872   50.9857 O   0  0  0  0  0  0  0  0  0  0  0  0
   73.4217   49.8923   57.4684 C   0  0  0  0  0  0  0  0  0  0  0  0
   73.7393   51.0139   57.9409 O   0  0  0  0  0  0  0  0  0  0  0  0
   73.9878   49.5112   56.2232 N   0  0  0  0  0  0  0  0  0  0  0  0
   74.9070   50.3535   55.4830 C   0  0  0  0  0  0  0  0  0  0  0  0
   76.2992   49.8766   55.5655 C   0  0  0  0  0  0  0  0  0  0  0  0
   77.1241   49.9732   56.6619 C   0  0  0  0  0  0  0  0  0  0  0  0
   78.3589   49.4013   56.3254 C   0  0  0  0  0  0  0  0  0  0  0  0
   78.1855   48.9905   55.0207 C   0  0  0  0  0  0  0  0  0  0  0  0
   76.9645   49.2865   54.6084 O   0  0  0  0  0  0  0  0  0  0  0  0
 16 17  1  0
 17 18  2  0
 17 10  1  0
 10 11  2  0
 10 15  1  0
 11 12  1  0
 12 13  2  0
 13 14  1  0
 14  1  1  0
 14 15  2  0
  1  2  2  0
  1  6  1  0
  2  3  1  0
  3  4  2  0
  4  5  1  0
  5  6  2  0
  5  9  1  0
  6  7  1  0
  7  8  1  0
  8 19  1  6
  8  9  1  0
 19 20  2  0
 19 21  1  0
 21 22  1  0
 22 23  1  0
 23 24  2  0
 23 27  1  0
 24 25  1  0
 25 26  2  0
 26 27  1  0
M  END
>  <minimizedAffinity>  (577) 
-8.67374

$$$$
data/200k_reference_output/data/smiles/48740.pdb
     RDKit          3D

 23 24  0  0  0  0  0  0  0  0999 V2000
   69.9087   49.1845   52.4756 S   0  0  0  0  0  0  0  0  0  0  0  0
   70.0192   49.4894   51.0034 O   0  0  0  0  0  0  0  0  0  0  0  0
   69.0807   50.3078   53.0733 O   0  0  0  0  0  0  0  0  0  0  0  0
   69.0770   47.7033   52.7791 C   0  0  0  0  0  0  0  0  0  0  0  0
   68.4866   47.0396   51.7264 C   0  0  0  0  0  0  0  0  0  0  0  0
   67.8305   45.8589   52.0029 C   0  0  0  0  0  0  0  0  0  0  0  0
   67.7546   45.3395   53.2904 C   0  0  0  0  0  0  0  0  0  0  0  0
   68.3462   46.0025   54.3551 C   0  0  0  0  0  0  0  0  0  0  0  0
   69.0003   47.1804   54.0721 C   0  0  0  0  0  0  0  0  0  0  0  0
   68.2810   45.4876   55.6776 N   0  0  0  0  0  0  0  0  0  0  0  0
   68.0402   44.2981   55.9326 O   0  0  0  0  0  0  0  0  0  0  0  0
   68.4895   46.3285   56.7339 O   0  0  0  0  0  0  0  0  0  0  0  0
   71.4641   49.2819   53.1551 N   0  0  0  0  0  0  0  0  0  0  0  0
   72.9290   50.8875   54.3558 C   0  0  0  0  0  0  0  0  0  0  0  0
   73.9435   50.3695   53.8198 O   0  0  0  0  0  0  0  0  0  0  0  0
   71.6592   50.3371   54.0217 N   0  0  0  0  0  0  0  0  0  0  0  0
   73.7108   53.3649   53.3473 C   0  0  0  0  0  0  0  0  0  0  0  0
   73.4884   53.2336   54.7977 C   0  0  0  0  0  0  0  0  0  0  0  0
   73.6675   54.3256   55.6283 C   0  0  0  0  0  0  0  0  0  0  0  0
   73.4485   54.1602   56.9797 C   0  0  0  0  0  0  0  0  0  0  0  0
   73.0573   52.9310   57.4927 C   0  0  0  0  0  0  0  0  0  0  0  0
   72.8864   51.8550   56.6290 C   0  0  0  0  0  0  0  0  0  0  0  0
   73.1015   52.0027   55.2749 C   0  0  0  0  0  0  0  0  0  0  0  0
 17 18  1  0
 18 19  2  0
 18 23  1  0
 19 20  1  0
 20 21  2  0
 21 22  1  0
 22 23  2  0
 23 14  1  0
 14 15  2  0
 14 16  1  0
 16 13  1  0
 13  1  1  0
  1  2  2  0
  1  3  2  0
  1  4  1  0
  4  5  2  0
  4  9  1  0
  5  6  1  0
  6  7  2  0
  7  8  1  0
  8 10  1  0
  8  9  2  0
 10 11  2  0
 10 12  1  0
M  CHG  2  10   1  12  -1
M  END
>  <minimizedAffinity>  (578) 
-9.23468

$$$$
data/200k_reference_output/data/smiles/48796.pdb
     RDKit          3D

 25 27  0  0  0  0  0  0  0  0999 V2000
   67.1504   47.5322   56.6441 O   0  0  0  0  0  0  0  0  0  0  0  0
   68.5610   47.8858   56.1490 P   0  0  0  0  0  0  0  0  0  0  0  0
   69.6882   46.9752   57.1729 C   0  0  0  0  0  0  0  0  0  0  0  0
   70.6111   47.6086   57.9731 C   0  0  0  0  0  0  0  0  0  0  0  0
   71.4887   46.9126   58.7700 C   0  0  0  0  0  0  0  0  0  0  0  0
   71.4779   45.5297   58.7998 C   0  0  0  0  0  0  0  0  0  0  0  0
   70.5697   44.8787   58.0143 C   0  0  0  0  0  0  0  0  0  0  0  0
   69.7048   45.5757   57.2276 C   0  0  0  0  0  0  0  0  0  0  0  0
   68.7906   44.8830   56.4365 O   0  0  0  0  0  0  0  0  0  0  0  0
   72.6500   47.7437   59.7763 S   0  0  0  0  0  0  0  0  0  0  0  0
   72.6952   49.2053   59.4787 O   0  0  0  0  0  0  0  0  0  0  0  0
   72.2665   47.5974   61.2309 O   0  0  0  0  0  0  0  0  0  0  0  0
   74.1517   47.0227   59.5294 O   0  0  0  0  0  0  0  0  0  0  0  0
   68.7195   49.6454   56.3768 C   0  0  0  0  0  0  0  0  0  0  0  0
   69.6656   50.4002   55.7183 C   0  0  0  0  0  0  0  0  0  0  0  0
   69.7589   51.7664   55.9197 C   0  0  0  0  0  0  0  0  0  0  0  0
   68.8991   52.3992   56.7907 C   0  0  0  0  0  0  0  0  0  0  0  0
   67.9409   51.6672   57.4625 C   0  0  0  0  0  0  0  0  0  0  0  0
   67.8708   50.3096   57.2428 C   0  0  0  0  0  0  0  0  0  0  0  0
   68.6302   47.4055   54.4483 C   0  0  0  0  0  0  0  0  0  0  0  0
   69.4658   48.0148   53.5142 C   0  0  0  0  0  0  0  0  0  0  0  0
   69.5195   47.6460   52.2075 C   0  0  0  0  0  0  0  0  0  0  0  0
   68.7205   46.6213   51.7452 C   0  0  0  0  0  0  0  0  0  0  0  0
   67.8761   45.9904   52.6391 C   0  0  0  0  0  0  0  0  0  0  0  0
   67.8387   46.3829   53.9646 C   0  0  0  0  0  0  0  0  0  0  0  0
  1  2  2  0
  2 14  1  0
  2 20  1  0
  2  3  1  0
 14 15  2  0
 14 19  1  0
 15 16  1  0
 16 17  2  0
 17 18  1  0
 18 19  2  0
 20 21  2  0
 20 25  1  0
 21 22  1  0
 22 23  2  0
 23 24  1  0
 24 25  2  0
  3  4  2  0
  3  8  1  0
  4  5  1  0
  5 10  1  0
  5  6  2  0
 10 11  2  0
 10 12  2  0
 10 13  1  0
  6  7  1  0
  7  8  2  0
  8  9  1  0
M  CHG  1  13  -1
M  END
>  <minimizedAffinity>  (579) 
-8.62474

$$$$
data/200k_reference_output/data/smiles/48976.pdb
     RDKit          3D

 22 23  0  0  0  0  0  0  0  0999 V2000
   69.8034   47.3510   57.4930 N   0  0  0  0  0  0  0  0  0  0  0  0
   68.7033   47.5901   56.9486 C   0  0  0  0  0  0  0  0  0  0  0  0
   67.8809   49.1373   57.3859 S   0  0  0  0  0  0  0  0  0  0  0  0
   70.5791   45.1113   58.1953 C   0  0  0  0  0  0  0  0  0  0  0  0
   69.7780   45.1522   59.1615 O   0  0  0  0  0  0  0  0  0  0  0  0
   70.6076   46.2469   57.3173 N   0  0  0  0  0  0  0  0  0  0  0  0
   69.6262   42.2598   57.5222 C   0  0  0  0  0  0  0  0  0  0  0  0
   71.0413   42.7021   57.6383 C   0  0  0  0  0  0  0  0  0  0  0  0
   72.0937   41.9114   57.4617 O   0  0  0  0  0  0  0  0  0  0  0  0
   73.1866   42.6446   57.6431 C   0  0  0  0  0  0  0  0  0  0  0  0
   72.8389   43.9425   57.9428 C   0  0  0  0  0  0  0  0  0  0  0  0
   71.4608   43.9813   57.9412 C   0  0  0  0  0  0  0  0  0  0  0  0
   68.0917   46.7264   56.0315 N   0  0  0  0  0  0  0  0  0  0  0  0
   68.3348   46.7532   54.6504 C   0  0  0  0  0  0  0  0  0  0  0  0
   67.7260   45.8735   53.7818 C   0  0  0  0  0  0  0  0  0  0  0  0
   67.9634   45.9258   52.4103 C   0  0  0  0  0  0  0  0  0  0  0  0
   68.8283   46.8781   51.8976 C   0  0  0  0  0  0  0  0  0  0  0  0
   69.4429   47.7638   52.7575 C   0  0  0  0  0  0  0  0  0  0  0  0
   69.1896   47.6928   54.1258 C   0  0  0  0  0  0  0  0  0  0  0  0
   70.3292   48.7405   52.2406 N   0  0  0  0  0  0  0  0  0  0  0  0
   71.3521   49.1162   52.8253 O   0  0  0  0  0  0  0  0  0  0  0  0
   70.0465   49.3204   51.0042 O   0  0  0  0  0  0  0  0  0  0  0  0
  7  8  1  0
  8  9  1  0
  8 12  2  0
  9 10  1  0
 10 11  2  0
 11 12  1  0
 12  4  1  0
  4  5  2  0
  4  6  1  0
  6  1  1  0
  1  2  2  0
  2  3  1  0
  2 13  1  0
 13 14  1  0
 14 15  2  0
 14 19  1  0
 15 16  1  0
 16 17  2  0
 17 18  1  0
 18 20  1  0
 18 19  2  0
 20 21  2  0
 20 22  1  0
M  CHG  3   1   1  20   1  22  -1
M  END
>  <minimizedAffinity>  (580) 
-9.04658

$$$$
data/200k_reference_output/data/smiles/49008.pdb
     RDKit          3D

 28 30  0  0  0  0  0  0  0  0999 V2000
   67.4168   41.2754   55.9345 C   0  0  0  0  0  0  0  0  0  0  0  0
   68.0553   42.0971   57.0015 C   0  0  0  0  0  0  0  0  0  0  0  0
   68.5829   41.5337   58.0728 C   0  0  0  0  0  0  0  0  0  0  0  0
   69.2214   42.2783   59.1513 C   0  0  0  0  0  0  0  0  0  0  0  0
   69.2856   43.5297   59.0795 O   0  0  0  0  0  0  0  0  0  0  0  0
   69.7801   41.6032   60.2982 N   0  0  0  0  0  0  0  0  0  0  0  0
   69.7124   40.1903   60.3890 C   0  0  0  0  0  0  0  0  0  0  0  0
   70.2255   39.6813   61.4238 O   0  0  0  0  0  0  0  0  0  0  0  0
   69.1019   39.3969   59.3705 N   0  0  0  0  0  0  0  0  0  0  0  0
   68.5556   40.0670   58.2472 C   0  0  0  0  0  0  0  0  0  0  0  0
   68.0246   39.3820   57.3587 O   0  0  0  0  0  0  0  0  0  0  0  0
   68.0917   43.4987   56.8529 N   0  0  0  0  0  0  0  0  0  0  0  0
   68.1187   43.9963   55.5517 N   0  0  0  0  0  0  0  0  0  0  0  0
   68.2159   45.3684   55.2521 C   0  0  0  0  0  0  0  0  0  0  0  0
   68.2813   46.1869   56.2093 O   0  0  0  0  0  0  0  0  0  0  0  0
   68.2455   45.8908   53.8878 C   0  0  0  0  0  0  0  0  0  0  0  0
   67.5334   45.3134   52.8596 C   0  0  0  0  0  0  0  0  0  0  0  0
   67.5758   45.8276   51.5682 C   0  0  0  0  0  0  0  0  0  0  0  0
   68.3357   46.9271   51.3011 C   0  0  0  0  0  0  0  0  0  0  0  0
   69.0536   47.5234   52.2963 C   0  0  0  0  0  0  0  0  0  0  0  0
   68.9997   46.9993   53.5766 C   0  0  0  0  0  0  0  0  0  0  0  0
   69.0595   37.9630   59.5087 C   0  0  0  0  0  0  0  0  0  0  0  0
   70.3446   37.3361   59.1266 C   0  0  0  0  0  0  0  0  0  0  0  0
   71.1169   37.9179   58.1388 C   0  0  0  0  0  0  0  0  0  0  0  0
   72.3205   37.3278   57.7845 C   0  0  0  0  0  0  0  0  0  0  0  0
   72.7381   36.1836   58.4044 C   0  0  0  0  0  0  0  0  0  0  0  0
   71.9867   35.5915   59.3866 C   0  0  0  0  0  0  0  0  0  0  0  0
   70.7939   36.1822   59.7324 C   0  0  0  0  0  0  0  0  0  0  0  0
  1  2  1  0
  2 12  1  0
  2  3  2  0
 12 13  1  0
 13 14  1  0
 14 15  2  0
 14 16  1  0
 16 17  2  0
 16 21  1  0
 17 18  1  0
 18 19  2  0
 19 20  1  0
 20 21  2  0
  3  4  1  0
  3 10  1  0
  4  5  2  0
  4  6  1  0
  6  7  1  0
  7  8  2  0
  7  9  1  0
  9 22  1  0
  9 10  1  0
 22 23  1  0
 23 24  2  0
 23 28  1  0
 24 25  1  0
 25 26  2  0
 26 27  1  0
 27 28  2  0
 10 11  2  0
M  END
>  <minimizedAffinity>  (581) 
-8.87997

$$$$
data/200k_reference_output/data/smiles/49128.pdb
     RDKit          3D

 28 31  0  0  0  0  0  0  0  0999 V2000
   72.5121   51.6576   53.8539 O   0  0  0  0  0  0  0  0  0  0  0  0
   72.2113   50.9615   54.8557 C   0  0  0  0  0  0  0  0  0  0  0  0
   73.2886   50.4457   55.6862 C   0  0  0  0  0  0  0  0  0  0  0  0
   74.6273   50.7024   55.3829 C   0  0  0  0  0  0  0  0  0  0  0  0
   75.5861   50.1882   56.1911 C   0  0  0  0  0  0  0  0  0  0  0  0
   75.2404   49.4284   57.2868 C   0  0  0  0  0  0  0  0  0  0  0  0
   73.9305   49.1558   57.6155 C   0  0  0  0  0  0  0  0  0  0  0  0
   72.9245   49.6781   56.7942 C   0  0  0  0  0  0  0  0  0  0  0  0
   71.5488   49.4306   57.0730 N   0  0  0  0  0  0  0  0  0  0  0  0
   70.6052   50.4169   56.6124 C   0  0  1  0  0  0  0  0  0  0  0  0
   70.8509   50.6576   55.2118 N   0  0  0  0  0  0  0  0  0  0  0  0
   69.2325   50.1887   57.0097 C   0  0  0  0  0  0  0  0  0  0  0  0
   68.7522   48.9386   57.3085 C   0  0  0  0  0  0  0  0  0  0  0  0
   67.4405   48.7752   57.7037 C   0  0  0  0  0  0  0  0  0  0  0  0
   66.5599   49.8468   57.8158 C   0  0  0  0  0  0  0  0  0  0  0  0
   67.0408   51.1036   57.5161 C   0  0  0  0  0  0  0  0  0  0  0  0
   68.3545   51.2457   57.1236 C   0  0  0  0  0  0  0  0  0  0  0  0
   68.8071   52.5365   56.8285 O   0  0  0  0  0  0  0  0  0  0  0  0
   69.9294   50.6608   54.1999 N   0  0  0  0  0  0  0  0  0  0  0  0
   70.1103   49.5486   52.9483 S   0  0  0  0  0  0  0  0  0  0  0  0
   69.8174   50.0560   51.5744 O   0  0  0  0  0  0  0  0  0  0  0  0
   71.5735   49.0956   52.8866 O   0  0  0  0  0  0  0  0  0  0  0  0
   69.1972   48.0811   53.1621 C   0  0  0  0  0  0  0  0  0  0  0  0
   68.7882   47.6183   54.3856 C   0  0  0  0  0  0  0  0  0  0  0  0
   68.0613   46.4338   54.4683 C   0  0  0  0  0  0  0  0  0  0  0  0
   67.7375   45.7042   53.3399 C   0  0  0  0  0  0  0  0  0  0  0  0
   68.1539   46.1777   52.1131 C   0  0  0  0  0  0  0  0  0  0  0  0
   68.8755   47.3553   52.0482 C   0  0  0  0  0  0  0  0  0  0  0  0
  1  2  2  0
  2  3  1  0
  2 11  1  0
  3  4  1  0
  3  8  2  0
  4  5  2  0
  5  6  1  0
  6  7  2  0
  7  8  1  0
  8  9  1  0
  9 10  1  0
 10 12  1  6
 10 11  1  0
 12 13  2  0
 12 17  1  0
 13 14  1  0
 14 15  2  0
 15 16  1  0
 16 17  2  0
 17 18  1  0
 11 19  1  0
 19 20  1  0
 20 21  2  0
 20 22  2  0
 20 23  1  0
 23 24  2  0
 23 28  1  0
 24 25  1  0
 25 26  2  0
 26 27  1  0
 27 28  2  0
M  END
>  <minimizedAffinity>  (582) 
-8.89247

$$$$
data/200k_reference_output/data/smiles/49253.pdb
     RDKit          3D

 26 28  0  0  0  0  0  0  0  0999 V2000
   69.6474   44.2131   57.2245 C   0  0  0  0  0  0  0  0  0  0  0  0
   69.7652   45.2177   57.9946 O   0  0  0  0  0  0  0  0  0  0  0  0
   68.8293   44.3707   56.0976 N   0  0  0  0  0  0  0  0  0  0  0  0
   73.8513   42.0926   58.5288 C   0  0  0  0  0  0  0  0  0  0  0  0
   72.4167   42.0219   58.2594 N   0  0  0  0  0  0  0  0  0  0  0  0
   71.7035   43.0575   57.8785 N   0  0  0  0  0  0  0  0  0  0  0  0
   70.3832   43.0320   57.6137 C   0  0  0  0  0  0  0  0  0  0  0  0
   69.7317   41.8185   57.7607 C   0  0  0  0  0  0  0  0  0  0  0  0
   68.3802   41.6986   57.5478 C   0  0  0  0  0  0  0  0  0  0  0  0
   67.7603   40.4605   57.7352 C   0  0  0  0  0  0  0  0  0  0  0  0
   68.4755   39.3600   58.1273 C   0  0  0  0  0  0  0  0  0  0  0  0
   69.8387   39.4651   58.3486 C   0  0  0  0  0  0  0  0  0  0  0  0
   70.4289   40.6898   58.1603 C   0  0  0  0  0  0  0  0  0  0  0  0
   71.7933   40.8422   58.4020 C   0  0  0  0  0  0  0  0  0  0  0  0
   72.4157   39.8042   58.7655 O   0  0  0  0  0  0  0  0  0  0  0  0
   68.1071   45.5245   55.7509 N   0  0  0  0  0  0  0  0  0  0  0  0
   68.4060   46.2529   54.5588 C   0  0  0  0  0  0  0  0  0  0  0  0
   67.9502   45.8554   53.3240 C   0  0  0  0  0  0  0  0  0  0  0  0
   67.1950   44.7288   53.2675 F   0  0  0  0  0  0  0  0  0  0  0  0
   68.2405   46.5647   52.1700 C   0  0  0  0  0  0  0  0  0  0  0  0
   67.7981   46.1684   50.9620 F   0  0  0  0  0  0  0  0  0  0  0  0
   69.0119   47.7145   52.2290 C   0  0  0  0  0  0  0  0  0  0  0  0
   69.4714   48.1185   53.4607 C   0  0  0  0  0  0  0  0  0  0  0  0
   70.2206   49.2436   53.5197 F   0  0  0  0  0  0  0  0  0  0  0  0
   69.1732   47.3967   54.6186 C   0  0  0  0  0  0  0  0  0  0  0  0
   69.6390   47.8317   55.8154 F   0  0  0  0  0  0  0  0  0  0  0  0
  4  5  1  0
  5  6  1  0
  5 14  1  0
  6  7  2  0
  7  1  1  0
  7  8  1  0
  1  2  2  0
  1  3  1  0
  3 16  1  0
 16 17  1  0
 17 18  2  0
 17 25  1  0
 18 19  1  0
 18 20  1  0
 20 21  1  0
 20 22  2  0
 22 23  1  0
 23 24  1  0
 23 25  2  0
 25 26  1  0
  8  9  1  0
  8 13  2  0
  9 10  2  0
 10 11  1  0
 11 12  2  0
 12 13  1  0
 13 14  1  0
 14 15  2  0
M  END
>  <minimizedAffinity>  (583) 
-8.77871

$$$$
data/200k_reference_output/data/smiles/49273.pdb
     RDKit          3D

 26 28  0  0  0  0  0  0  0  0999 V2000
   68.2303   38.6263   58.8280 C   0  0  0  0  0  0  0  0  0  0  0  0
   68.9117   39.8439   58.3284 C   0  0  0  0  0  0  0  0  0  0  0  0
   68.2163   40.7608   57.5710 C   0  0  0  0  0  0  0  0  0  0  0  0
   68.8411   41.9196   57.0878 C   0  0  0  0  0  0  0  0  0  0  0  0
   70.1602   42.0778   57.4136 C   0  0  0  0  0  0  0  0  0  0  0  0
   70.8944   41.1771   58.1743 C   0  0  0  0  0  0  0  0  0  0  0  0
   70.2431   40.0500   58.6293 C   0  0  0  0  0  0  0  0  0  0  0  0
   72.2639   41.4254   58.4628 N   0  0  0  0  0  0  0  0  0  0  0  0
   73.0241   42.3029   57.7881 C   0  0  0  0  0  0  0  0  0  0  0  0
   74.2948   42.2922   58.3271 C   0  0  0  0  0  0  0  0  0  0  0  0
   75.3089   43.0608   57.8818 F   0  0  0  0  0  0  0  0  0  0  0  0
   74.2592   41.3690   59.3529 C   0  0  0  0  0  0  0  0  0  0  0  0
   73.0014   40.8787   59.3842 N   0  0  0  0  0  0  0  0  0  0  0  0
   68.0880   42.8564   56.3007 C   0  0  0  0  0  0  0  0  0  0  0  0
   66.9919   42.5093   55.7945 O   0  0  0  0  0  0  0  0  0  0  0  0
   68.5323   44.1656   56.0667 N   0  0  0  0  0  0  0  0  0  0  0  0
   67.8023   45.0930   55.2958 N   0  0  0  0  0  0  0  0  0  0  0  0
   68.4656   46.6536   55.5893 S   0  0  0  0  0  0  0  0  0  0  0  0
   69.5928   46.5180   56.5790 O   0  0  0  0  0  0  0  0  0  0  0  0
   67.3623   47.4825   56.2243 O   0  0  0  0  0  0  0  0  0  0  0  0
   68.9881   47.4593   54.1305 C   0  0  0  0  0  0  0  0  0  0  0  0
   68.9230   46.8097   52.9142 C   0  0  0  0  0  0  0  0  0  0  0  0
   69.3289   47.4348   51.7550 C   0  0  0  0  0  0  0  0  0  0  0  0
   69.8160   48.7256   51.7514 C   0  0  0  0  0  0  0  0  0  0  0  0
   69.8697   49.3490   52.9798 C   0  0  0  0  0  0  0  0  0  0  0  0
   69.4716   48.7486   54.1484 C   0  0  0  0  0  0  0  0  0  0  0  0
  1  2  1  0
  2  3  2  0
  2  7  1  0
  3  4  1  0
  4 14  1  0
  4  5  2  0
 14 15  2  0
 14 16  1  0
 16 17  1  0
 17 18  1  0
 18 19  2  0
 18 20  2  0
 18 21  1  0
 21 22  2  0
 21 26  1  0
 22 23  1  0
 23 24  2  0
 24 25  1  0
 25 26  2  0
  5  6  1  0
  6  8  1  0
  6  7  2  0
  8  9  1  0
  8 13  1  0
  9 10  2  0
 10 11  1  0
 10 12  1  0
 12 13  2  0
M  END
>  <minimizedAffinity>  (584) 
-8.50920

$$$$
data/200k_reference_output/data/smiles/49303.pdb
     RDKit          3D

 21 22  0  0  0  0  0  0  0  0999 V2000
   69.7326   46.1677   57.1060 C   0  0  0  0  0  0  0  0  0  0  0  0
   68.7126   46.8749   56.7999 N   0  0  0  0  0  0  0  0  0  0  0  0
   72.4558   47.1780   60.2510 C   0  0  0  0  0  0  0  0  0  0  0  0
   71.7919   48.1498   59.5316 C   0  0  0  0  0  0  0  0  0  0  0  0
   70.9128   47.8238   58.5161 C   0  0  0  0  0  0  0  0  0  0  0  0
   70.6594   46.5130   58.1760 C   0  0  0  0  0  0  0  0  0  0  0  0
   71.3266   45.5427   58.8988 C   0  0  0  0  0  0  0  0  0  0  0  0
   72.2075   45.8645   59.9152 C   0  0  0  0  0  0  0  0  0  0  0  0
   72.9385   48.0631   62.3653 O   0  0  0  0  0  0  0  0  0  0  0  0
   73.3898   47.5341   61.3289 C   0  0  0  0  0  0  0  0  0  0  0  0
   74.7343   47.3061   61.2370 O   0  0  0  0  0  0  0  0  0  0  0  0
   67.8298   46.5655   55.7960 O   0  0  0  0  0  0  0  0  0  0  0  0
   68.1506   46.6754   54.4529 C   0  0  0  0  0  0  0  0  0  0  0  0
   67.5983   45.8013   53.5411 C   0  0  0  0  0  0  0  0  0  0  0  0
   67.9113   45.8990   52.1851 C   0  0  0  0  0  0  0  0  0  0  0  0
   68.7762   46.8686   51.7241 C   0  0  0  0  0  0  0  0  0  0  0  0
   69.3311   47.7438   52.6310 C   0  0  0  0  0  0  0  0  0  0  0  0
   69.0157   47.6430   53.9908 C   0  0  0  0  0  0  0  0  0  0  0  0
   70.2418   48.7634   52.1435 C   0  0  0  0  0  0  0  0  0  0  0  0
   70.0212   49.3185   51.0497 O   0  0  0  0  0  0  0  0  0  0  0  0
   71.3464   49.1172   52.8885 O   0  0  0  0  0  0  0  0  0  0  0  0
  9 10  2  0
 10 11  1  0
 10  3  1  0
  3  4  2  0
  3  8  1  0
  4  5  1  0
  5  6  2  0
  6  1  1  0
  6  7  1  0
  1  2  2  0
  2 12  1  0
 12 13  1  0
 13 14  2  0
 13 18  1  0
 14 15  1  0
 15 16  2  0
 16 17  1  0
 17 19  1  0
 17 18  2  0
 19 20  2  0
 19 21  1  0
  7  8  2  0
M  END
>  <minimizedAffinity>  (585) 
-8.52570

$$$$
data/200k_reference_output/data/smiles/49352.pdb
     RDKit          3D

 28 29  0  0  0  0  0  0  0  0999 V2000
   69.9365   37.7921   59.2777 C   0  0  0  0  0  0  0  0  0  0  0  0
   69.6891   38.8425   58.4300 C   0  0  0  0  0  0  0  0  0  0  0  0
   68.4215   39.3965   58.2945 C   0  0  0  0  0  0  0  0  0  0  0  0
   67.4209   38.8335   59.0599 C   0  0  0  0  0  0  0  0  0  0  0  0
   67.6027   37.7844   59.9246 C   0  0  0  0  0  0  0  0  0  0  0  0
   68.9009   37.2677   60.0202 C   0  0  0  0  0  0  0  0  0  0  0  0
   68.2198   40.4839   57.4006 N   0  0  0  0  0  0  0  0  0  0  0  0
   68.6751   41.7428   57.5242 C   0  0  0  0  0  0  0  0  0  0  0  0
   68.2712   42.5184   56.4448 C   0  0  0  0  0  0  0  0  0  0  0  0
   67.5602   41.6711   55.6814 N   0  0  0  0  0  0  0  0  0  0  0  0
   67.5335   40.4759   56.2490 N   0  0  0  0  0  0  0  0  0  0  0  0
   68.5706   43.9281   56.2262 C   0  0  0  0  0  0  0  0  0  0  0  0
   69.3346   44.5372   57.0084 O   0  0  0  0  0  0  0  0  0  0  0  0
   68.0031   44.6291   55.1334 N   0  0  0  0  0  0  0  0  0  0  0  0
   68.2473   46.0371   54.8476 C   0  0  0  0  0  0  0  0  0  0  0  0
   68.3705   46.2902   53.3752 C   0  0  0  0  0  0  0  0  0  0  0  0
   68.8274   47.6315   53.1238 N   0  0  0  0  0  0  0  0  0  0  0  0
   69.8257   47.9542   52.1613 C   0  0  0  0  0  0  0  0  0  0  0  0
   69.9483   47.2434   51.0987 N   0  0  0  0  0  0  0  0  0  0  0  0
   70.6845   49.0671   52.3667 N   0  0  0  0  0  0  0  0  0  0  0  0
   71.2737   35.7162   59.6240 C   0  0  0  0  0  0  0  0  0  0  0  0
   71.2849   37.2151   59.4088 C   0  0  0  0  0  0  0  0  0  0  0  0
   72.0258   37.8364   60.5964 C   0  0  0  0  0  0  0  0  0  0  0  0
   72.1215   37.4949   58.1809 C   0  0  0  0  0  0  0  0  0  0  0  0
   66.5092   37.1882   60.7402 C   0  0  0  0  0  0  0  0  0  0  0  0
   65.9885   38.2083   61.7474 C   0  0  0  0  0  0  0  0  0  0  0  0
   65.3858   36.7639   59.8138 C   0  0  0  0  0  0  0  0  0  0  0  0
   66.9583   35.9817   61.5185 C   0  0  0  0  0  0  0  0  0  0  0  0
 21 22  1  0
 22 23  1  0
 22 24  1  0
 22  1  1  0
  1  2  2  0
  1  6  1  0
  2  3  1  0
  3  7  1  0
  3  4  2  0
  7  8  1  0
  7 11  1  0
  8  9  2  0
  9 12  1  0
  9 10  1  0
 12 13  2  0
 12 14  1  0
 14 15  1  0
 15 16  1  0
 16 17  1  0
 17 18  1  0
 18 19  2  0
 18 20  1  0
 10 11  2  0
  4  5  1  0
  5 25  1  0
  5  6  2  0
 25 26  1  0
 25 27  1  0
 25 28  1  0
M  CHG  1  19   1
M  END
>  <minimizedAffinity>  (586) 
-8.91135

$$$$
data/200k_reference_output/data/smiles/49409.pdb
     RDKit          3D

 25 27  0  0  0  0  0  0  0  0999 V2000
   68.6407   42.9072   56.6347 C   0  0  0  0  0  0  0  0  0  0  0  0
   67.6245   42.0346   56.2984 C   0  0  0  0  0  0  0  0  0  0  0  0
   67.6455   40.7500   56.7802 C   0  0  0  0  0  0  0  0  0  0  0  0
   68.6677   40.2737   57.6115 C   0  0  0  0  0  0  0  0  0  0  0  0
   69.6240   41.1452   57.9099 N   0  0  0  0  0  0  0  0  0  0  0  0
   69.6281   42.4316   57.4433 C   0  0  0  0  0  0  0  0  0  0  0  0
   70.0160   47.5871   57.2954 C   0  0  0  0  0  0  0  0  0  0  0  0
   69.3280   46.5243   56.4873 C   0  0  0  0  0  0  0  0  0  0  0  0
   69.2827   45.2478   56.8893 N   0  0  0  0  0  0  0  0  0  0  0  0
   68.6543   44.2808   56.1454 C   0  0  0  0  0  0  0  0  0  0  0  0
   68.0928   44.6869   55.0003 N   0  0  0  0  0  0  0  0  0  0  0  0
   68.1083   45.9647   54.5447 C   0  0  0  0  0  0  0  0  0  0  0  0
   67.5712   46.3016   53.4705 O   0  0  0  0  0  0  0  0  0  0  0  0
   68.7428   46.9252   55.3033 C   0  0  0  0  0  0  0  0  0  0  0  0
   68.8143   48.3482   54.8930 C   0  0  0  0  0  0  0  0  0  0  0  0
   68.6603   38.9315   58.0574 N   0  0  0  0  0  0  0  0  0  0  0  0
   68.8617   38.5534   59.4044 C   0  0  0  0  0  0  0  0  0  0  0  0
   70.2749   38.3740   59.8434 C   0  0  0  0  0  0  0  0  0  0  0  0
   71.0308   37.3456   59.1141 C   0  0  0  0  0  0  0  0  0  0  0  0
   70.8996   36.0203   59.5478 C   0  0  0  0  0  0  0  0  0  0  0  0
   71.5950   35.0370   58.8675 C   0  0  0  0  0  0  0  0  0  0  0  0
   72.4045   35.3000   57.7905 C   0  0  0  0  0  0  0  0  0  0  0  0
   73.0878   34.3168   57.1247 O   0  0  0  0  0  0  0  0  0  0  0  0
   72.5098   36.6284   57.3889 C   0  0  0  0  0  0  0  0  0  0  0  0
   71.8333   37.6274   58.0418 C   0  0  0  0  0  0  0  0  0  0  0  0
  7  8  1  0
  8  9  1  0
  8 14  2  0
  9 10  2  0
 10  1  1  0
 10 11  1  0
  1  2  2  0
  1  6  1  0
  2  3  1  0
  3  4  2  0
  4 16  1  0
  4  5  1  0
 16 17  1  0
 17 18  1  0
 18 19  1  0
 19 20  2  0
 19 25  1  0
 20 21  1  0
 21 22  2  0
 22 23  1  0
 22 24  1  0
 24 25  2  0
  5  6  2  0
 11 12  1  0
 12 13  2  0
 12 14  1  0
 14 15  1  0
M  END
>  <minimizedAffinity>  (587) 
-8.64141

$$$$
data/200k_reference_output/data/smiles/49822.pdb
     RDKit          3D

 27 30  0  0  0  0  0  0  0  0999 V2000
   69.9601   47.8314   57.2519 C   0  0  0  0  0  0  0  0  0  0  0  0
   70.6918   48.5385   58.1858 C   0  0  0  0  0  0  0  0  0  0  0  0
   71.5383   47.8992   59.0529 C   0  0  0  0  0  0  0  0  0  0  0  0
   71.6813   46.5287   59.0142 C   0  0  0  0  0  0  0  0  0  0  0  0
   70.9503   45.7977   58.0766 C   0  0  0  0  0  0  0  0  0  0  0  0
   70.1060   46.4674   57.2165 C   0  0  0  0  0  0  0  0  0  0  0  0
   69.0664   48.5499   56.2956 C   0  0  0  0  0  0  0  0  0  0  0  0
   70.6976   48.6290   51.1682 O   0  0  0  0  0  0  0  0  0  0  0  0
   70.3188   48.6002   52.3646 C   0  0  0  0  0  0  0  0  0  0  0  0
   70.8766   49.4134   53.2603 N   0  0  0  0  0  0  0  0  0  0  0  0
   70.4579   49.3588   54.5038 N   0  0  0  0  0  0  0  0  0  0  0  0
   69.4719   48.4970   54.9065 C   0  0  0  0  0  0  0  0  0  0  0  0
   68.8698   47.6359   54.0036 C   0  0  0  0  0  0  0  0  0  0  0  0
   69.2965   47.6860   52.7144 C   0  0  0  0  0  0  0  0  0  0  0  0
   68.7346   46.8316   51.6466 C   0  0  0  0  0  0  0  0  0  0  0  0
   67.6476   45.9742   52.1600 C   0  0  0  0  0  0  0  0  0  0  0  0
   67.9387   45.4545   53.5664 C   0  0  0  0  0  0  0  0  0  0  0  0
   67.8335   46.7059   54.4607 C   0  0  0  0  0  0  0  0  0  0  0  0
   71.1004   44.3762   58.0086 N   0  0  0  0  0  0  0  0  0  0  0  0
   70.0015   43.2372   58.6063 S   0  0  0  0  0  0  0  0  0  0  0  0
   69.2445   43.8515   59.7531 O   0  0  0  0  0  0  0  0  0  0  0  0
   70.7649   42.0417   59.1148 O   0  0  0  0  0  0  0  0  0  0  0  0
   68.8453   42.6582   57.4320 C   0  0  0  0  0  0  0  0  0  0  0  0
   68.5329   41.3436   57.1549 C   0  0  0  0  0  0  0  0  0  0  0  0
   67.5745   41.3146   56.1649 C   0  0  0  0  0  0  0  0  0  0  0  0
   67.3358   42.6415   55.8712 C   0  0  0  0  0  0  0  0  0  0  0  0
   68.0997   43.3968   56.6354 O   0  0  0  0  0  0  0  0  0  0  0  0
  8  9  2  0
  9 10  1  0
  9 14  1  0
 10 11  1  0
 11 12  2  0
 12  7  1  0
 12 13  1  0
  7  1  1  0
  1  2  2  0
  1  6  1  0
  2  3  1  0
  3  4  2  0
  4  5  1  0
  5 19  1  0
  5  6  2  0
 19 20  1  0
 20 21  2  0
 20 22  2  0
 20 23  1  0
 23 24  2  0
 23 27  1  0
 24 25  1  0
 25 26  2  0
 26 27  1  0
 13 14  2  0
 13 18  1  0
 14 15  1  0
 15 16  1  0
 16 17  1  0
 17 18  1  0
M  END
>  <minimizedAffinity>  (588) 
-9.97055

$$$$
data/200k_reference_output/data/smiles/50104.pdb
     RDKit          3D

 23 25  0  0  0  0  0  0  0  0999 V2000
   66.7806   42.8597   55.9971 O   0  0  0  0  0  0  0  0  0  0  0  0
   67.6682   42.2059   56.5710 C   0  0  0  0  0  0  0  0  0  0  0  0
   67.4681   40.8564   56.9800 N   0  0  0  0  0  0  0  0  0  0  0  0
   68.4935   40.1243   57.6345 C   0  0  0  0  0  0  0  0  0  0  0  0
   68.2795   38.9190   57.9866 O   0  0  0  0  0  0  0  0  0  0  0  0
   69.7965   40.7089   57.9214 C   0  0  0  0  0  0  0  0  0  0  0  0
   70.7575   39.9545   58.5595 C   0  0  0  0  0  0  0  0  0  0  0  0
   71.9845   40.5169   58.8246 C   0  0  0  0  0  0  0  0  0  0  0  0
   72.2143   41.8127   58.4463 C   0  0  0  0  0  0  0  0  0  0  0  0
   73.8891   42.6355   58.7886 Br  0  0  0  0  0  0  0  0  0  0  0  0
   71.2358   42.5782   57.7970 C   0  0  0  0  0  0  0  0  0  0  0  0
   70.0039   42.0354   57.5229 C   0  0  0  0  0  0  0  0  0  0  0  0
   68.9689   42.8031   56.8516 C   0  0  0  0  0  0  0  0  0  0  0  0
   69.1629   44.0427   56.4795 C   0  0  0  0  0  0  0  0  0  0  0  0
   68.1335   44.8135   55.8099 N   0  0  0  0  0  0  0  0  0  0  0  0
   68.5298   46.1547   55.4255 C   0  0  0  0  0  0  0  0  0  0  0  0
   68.4530   46.3920   53.9646 C   0  0  0  0  0  0  0  0  0  0  0  0
   69.2472   47.3414   53.3617 C   0  0  0  0  0  0  0  0  0  0  0  0
   69.1901   47.5803   51.9902 C   0  0  0  0  0  0  0  0  0  0  0  0
   68.3297   46.8634   51.2163 N   0  0  0  0  0  0  0  0  0  0  0  0
   67.5446   45.9291   51.7974 C   0  0  0  0  0  0  0  0  0  0  0  0
   66.7583   45.2857   51.0306 O   0  0  0  0  0  0  0  0  0  0  0  0
   67.5918   45.6814   53.1560 C   0  0  0  0  0  0  0  0  0  0  0  0
  1  2  2  0
  2  3  1  0
  2 13  1  0
  3  4  1  0
  4  5  2  0
  4  6  1  0
  6  7  1  0
  6 12  2  0
  7  8  2  0
  8  9  1  0
  9 10  1  0
  9 11  2  0
 11 12  1  0
 12 13  1  0
 13 14  2  0
 14 15  1  0
 15 16  1  0
 16 17  1  0
 17 18  1  0
 17 23  2  0
 18 19  2  0
 19 20  1  0
 20 21  1  0
 21 22  2  0
 21 23  1  0
M  END
>  <minimizedAffinity>  (589) 
-8.50491

$$$$
data/200k_reference_output/data/smiles/50107.pdb
     RDKit          3D

 24 26  0  0  0  0  0  0  0  0999 V2000
   69.0458   48.0192   56.3859 C   0  0  0  0  0  0  0  0  0  0  0  0
   69.4019   48.2282   55.0000 N   0  0  0  0  0  0  0  0  0  0  0  0
   70.2622   49.2225   54.6325 C   0  0  0  0  0  0  0  0  0  0  0  0
   70.7281   49.9463   55.5485 O   0  0  0  0  0  0  0  0  0  0  0  0
   70.6128   49.4423   53.3531 N   0  0  0  0  0  0  0  0  0  0  0  0
   70.1243   48.6789   52.3602 C   0  0  0  0  0  0  0  0  0  0  0  0
   70.4661   48.9050   51.1871 O   0  0  0  0  0  0  0  0  0  0  0  0
   69.2520   47.6629   52.6928 C   0  0  0  0  0  0  0  0  0  0  0  0
   68.7612   46.8892   51.6638 C   0  0  0  0  0  0  0  0  0  0  0  0
   67.8965   45.8744   51.9547 C   0  0  0  0  0  0  0  0  0  0  0  0
   67.5381   45.6481   53.2586 C   0  0  0  0  0  0  0  0  0  0  0  0
   68.0418   46.4365   54.2728 C   0  0  0  0  0  0  0  0  0  0  0  0
   68.9189   47.4696   54.0028 C   0  0  0  0  0  0  0  0  0  0  0  0
   70.2171   47.4929   57.1927 C   0  0  0  0  0  0  0  0  0  0  0  0
   69.7376   45.7739   58.8073 O   0  0  0  0  0  0  0  0  0  0  0  0
   69.9597   46.0796   57.6001 C   0  0  0  0  0  0  0  0  0  0  0  0
   69.9490   45.0125   56.6657 N   0  0  0  0  0  0  0  0  0  0  0  0
   69.7000   43.6817   57.0884 C   0  0  0  0  0  0  0  0  0  0  0  0
   70.5822   43.0660   57.9793 C   0  0  0  0  0  0  0  0  0  0  0  0
   70.3292   41.7725   58.3827 C   0  0  0  0  0  0  0  0  0  0  0  0
   69.2158   41.1065   57.9043 C   0  0  0  0  0  0  0  0  0  0  0  0
   68.3749   41.7386   57.0345 C   0  0  0  0  0  0  0  0  0  0  0  0
   68.5861   43.0424   56.5972 C   0  0  0  0  0  0  0  0  0  0  0  0
   67.7339   43.6544   55.7280 F   0  0  0  0  0  0  0  0  0  0  0  0
 15 16  2  0
 16 14  1  0
 16 17  1  0
 14  1  1  0
  1  2  1  0
  2  3  1  0
  2 13  1  0
  3  4  2  0
  3  5  1  0
  5  6  1  0
  6  7  2  0
  6  8  1  0
  8  9  1  0
  8 13  2  0
  9 10  2  0
 10 11  1  0
 11 12  2  0
 12 13  1  0
 17 18  1  0
 18 19  2  0
 18 23  1  0
 19 20  1  0
 20 21  2  0
 21 22  1  0
 22 23  2  0
 23 24  1  0
M  END
>  <minimizedAffinity>  (590) 
-8.65640

$$$$
data/200k_reference_output/data/smiles/50115.pdb
     RDKit          3D

 23 25  0  0  0  0  0  0  0  0999 V2000
   71.8608   40.7212   59.6671 C   0  0  0  0  0  0  0  0  0  0  0  0
   70.6302   40.5472   58.8500 C   0  0  0  0  0  0  0  0  0  0  0  0
   69.9526   39.3549   58.7789 C   0  0  0  0  0  0  0  0  0  0  0  0
   68.8095   39.1774   58.0248 C   0  0  0  0  0  0  0  0  0  0  0  0
   68.3216   40.2569   57.3044 C   0  0  0  0  0  0  0  0  0  0  0  0
   68.9828   41.4726   57.3549 C   0  0  0  0  0  0  0  0  0  0  0  0
   70.1296   41.6096   58.1259 C   0  0  0  0  0  0  0  0  0  0  0  0
   68.3000   42.4572   56.5285 C   0  0  0  0  0  0  0  0  0  0  0  0
   68.6006   43.7015   56.3129 N   0  0  0  0  0  0  0  0  0  0  0  0
   67.1552   41.7657   55.9513 C   0  0  0  0  0  0  0  0  0  0  0  0
   66.3338   42.3017   55.1803 O   0  0  0  0  0  0  0  0  0  0  0  0
   67.1914   40.4209   56.4406 N   0  0  0  0  0  0  0  0  0  0  0  0
   67.7980   44.4804   55.4721 N   0  0  0  0  0  0  0  0  0  0  0  0
   68.3038   45.6674   54.8547 C   0  0  0  0  0  0  0  0  0  0  0  0
   68.2675   45.8602   53.4917 C   0  0  0  0  0  0  0  0  0  0  0  0
   68.7592   47.0095   52.9090 C   0  0  0  0  0  0  0  0  0  0  0  0
   69.3119   48.0206   53.6675 C   0  0  0  0  0  0  0  0  0  0  0  0
   69.3517   47.8351   55.0331 C   0  0  0  0  0  0  0  0  0  0  0  0
   68.8557   46.6779   55.6135 C   0  0  0  0  0  0  0  0  0  0  0  0
   69.9346   49.4812   52.9130 S   0  0  0  0  0  0  0  0  0  0  0  0
   69.8721   49.3808   51.1974 N   0  0  0  0  0  0  0  0  0  0  0  0
   69.1219   50.6565   53.3729 O   0  0  0  0  0  0  0  0  0  0  0  0
   71.3681   49.7122   53.2994 O   0  0  0  0  0  0  0  0  0  0  0  0
  1  2  1  0
  2  3  2  0
  2  7  1  0
  3  4  1  0
  4  5  2  0
  5  6  1  0
  5 12  1  0
  6  7  2  0
  6  8  1  0
  8  9  2  0
  8 10  1  0
  9 13  1  0
 13 14  1  0
 14 15  2  0
 14 19  1  0
 15 16  1  0
 16 17  2  0
 17 20  1  0
 17 18  1  0
 20 21  1  0
 20 22  2  0
 20 23  2  0
 18 19  2  0
 10 11  2  0
 10 12  1  0
M  END
>  <minimizedAffinity>  (591) 
-8.74585

$$$$
data/200k_reference_output/data/smiles/50148.pdb
     RDKit          3D

 28 30  0  0  0  0  0  0  0  0999 V2000
   69.8614   45.6295   58.9020 N   0  0  0  0  0  0  0  0  0  0  0  0
   70.8954   46.5358   58.5539 C   0  0  0  0  0  0  0  0  0  0  0  0
   72.0703   46.0470   58.6271 O   0  0  0  0  0  0  0  0  0  0  0  0
   70.1075   43.2085   58.4273 C   0  0  0  0  0  0  0  0  0  0  0  0
   69.7992   43.4182   57.2285 O   0  0  0  0  0  0  0  0  0  0  0  0
   70.1489   44.3061   59.3049 N   0  0  0  0  0  0  0  0  0  0  0  0
   71.3856   41.0823   58.1400 N   0  0  0  0  0  0  0  0  0  0  0  0
   70.4008   41.8372   58.8207 C   0  0  0  0  0  0  0  0  0  0  0  0
   69.8067   41.2596   59.7670 O   0  0  0  0  0  0  0  0  0  0  0  0
   73.7853   40.5759   59.4997 C   0  0  0  0  0  0  0  0  0  0  0  0
   72.8500   39.4543   59.1937 C   0  0  0  0  0  0  0  0  0  0  0  0
   73.1420   38.1582   59.5691 C   0  0  0  0  0  0  0  0  0  0  0  0
   72.2820   37.1174   59.2897 C   0  0  0  0  0  0  0  0  0  0  0  0
   71.1075   37.4242   58.6146 C   0  0  0  0  0  0  0  0  0  0  0  0
   70.8061   38.7157   58.2351 C   0  0  0  0  0  0  0  0  0  0  0  0
   71.6735   39.7479   58.5194 C   0  0  0  0  0  0  0  0  0  0  0  0
   70.6770   47.9387   58.1299 C   0  0  0  0  0  0  0  0  0  0  0  0
   69.4817   48.1425   57.4324 O   0  0  0  0  0  0  0  0  0  0  0  0
   69.3112   47.9543   56.0697 C   0  0  0  0  0  0  0  0  0  0  0  0
   69.8484   48.8431   55.1447 C   0  0  0  0  0  0  0  0  0  0  0  0
   69.6738   48.6551   53.7921 C   0  0  0  0  0  0  0  0  0  0  0  0
   68.9632   47.5852   53.2935 C   0  0  0  0  0  0  0  0  0  0  0  0
   68.7943   47.4065   51.9311 C   0  0  0  0  0  0  0  0  0  0  0  0
   68.0780   46.3273   51.4256 C   0  0  0  0  0  0  0  0  0  0  0  0
   67.5306   45.4246   52.3245 C   0  0  0  0  0  0  0  0  0  0  0  0
   67.7159   45.6305   53.6673 C   0  0  0  0  0  0  0  0  0  0  0  0
   68.4230   46.6940   54.1814 C   0  0  0  0  0  0  0  0  0  0  0  0
   68.6064   46.8948   55.5320 C   0  0  0  0  0  0  0  0  0  0  0  0
 10 11  1  0
 11 12  2  0
 11 16  1  0
 12 13  1  0
 13 14  2  0
 14 15  1  0
 15 16  2  0
 16  7  1  0
  7  8  1  0
  8  9  2  0
  8  4  1  0
  4  5  2  0
  4  6  1  0
  6  1  1  0
  1  2  1  0
  2  3  2  0
  2 17  1  0
 17 18  1  0
 18 19  1  0
 19 20  2  0
 19 28  1  0
 20 21  1  0
 21 22  2  0
 22 23  1  0
 22 27  1  0
 23 24  2  0
 24 25  1  0
 25 26  2  0
 26 27  1  0
 27 28  2  0
M  END
>  <minimizedAffinity>  (592) 
-8.75657

$$$$
data/200k_reference_output/data/smiles/50155.pdb
     RDKit          3D

 23 25  0  0  0  0  0  0  0  0999 V2000
   70.0464   46.6297   58.2751 S   0  0  0  0  0  0  0  0  0  0  0  0
   69.4302   46.5624   56.6192 C   0  0  0  0  0  0  0  0  0  0  0  0
   69.6131   47.4852   55.6828 N   0  0  0  0  0  0  0  0  0  0  0  0
   69.1148   47.3779   54.4324 C   0  0  0  0  0  0  0  0  0  0  0  0
   68.3880   46.2524   54.1347 C   0  0  0  0  0  0  0  0  0  0  0  0
   68.1869   45.2900   55.0806 C   0  0  0  0  0  0  0  0  0  0  0  0
   67.5173   44.2702   54.7792 O   0  0  0  0  0  0  0  0  0  0  0  0
   68.7033   45.4582   56.2898 N   0  0  0  0  0  0  0  0  0  0  0  0
   67.8391   46.1277   52.7653 C   0  0  0  0  0  0  0  0  0  0  0  0
   68.8795   46.6576   51.8091 C   0  0  0  0  0  0  0  0  0  0  0  0
   69.2093   48.0982   52.0463 C   0  0  0  0  0  0  0  0  0  0  0  0
   69.3833   48.4708   53.4759 C   0  0  0  0  0  0  0  0  0  0  0  0
   71.2117   45.3307   58.6648 C   0  0  0  0  0  0  0  0  0  0  0  0
   71.5092   43.2299   57.6591 O   0  0  0  0  0  0  0  0  0  0  0  0
   70.7368   43.9903   58.2945 C   0  0  0  0  0  0  0  0  0  0  0  0
   69.4437   43.4963   58.6147 N   0  0  0  0  0  0  0  0  0  0  0  0
   69.0175   42.2002   58.2423 C   0  0  0  0  0  0  0  0  0  0  0  0
   69.1228   41.1523   59.1267 C   0  0  0  0  0  0  0  0  0  0  0  0
   68.7082   39.8643   58.7820 C   0  0  0  0  0  0  0  0  0  0  0  0
   68.1761   39.6387   57.5136 C   0  0  0  0  0  0  0  0  0  0  0  0
   68.0687   40.6745   56.6287 C   0  0  0  0  0  0  0  0  0  0  0  0
   67.5326   40.4158   55.3701 O   0  0  0  0  0  0  0  0  0  0  0  0
   68.4885   41.9432   56.9986 C   0  0  0  0  0  0  0  0  0  0  0  0
 14 15  2  0
 15 13  1  0
 15 16  1  0
 13  1  1  0
  1  2  1  0
  2  3  2  0
  2  8  1  0
  3  4  1  0
  4  5  2  0
  4 12  1  0
  5  6  1  0
  5  9  1  0
  6  7  2  0
  6  8  1  0
  9 10  1  0
 10 11  1  0
 11 12  1  0
 16 17  1  0
 17 18  2  0
 17 23  1  0
 18 19  1  0
 19 20  2  0
 20 21  1  0
 21 22  1  0
 21 23  2  0
M  END
>  <minimizedAffinity>  (593) 
-8.53181

$$$$
data/200k_reference_output/data/smiles/50174.pdb
     RDKit          3D

 27 30  0  0  0  0  0  0  0  0999 V2000
   71.8689   46.6774   58.8999 C   0  0  0  0  0  0  0  0  0  0  0  0
   71.7525   48.0466   58.7971 C   0  0  0  0  0  0  0  0  0  0  0  0
   70.7648   48.6228   57.9837 C   0  0  0  0  0  0  0  0  0  0  0  0
   69.8964   47.8430   57.2746 C   0  0  0  0  0  0  0  0  0  0  0  0
   70.0436   46.4657   57.4033 C   0  0  0  0  0  0  0  0  0  0  0  0
   70.9961   45.8761   58.1888 C   0  0  0  0  0  0  0  0  0  0  0  0
   71.1318   44.4490   58.3086 N   0  0  0  0  0  0  0  0  0  0  0  0
   72.2044   43.6547   57.8349 C   0  0  0  0  0  0  0  0  0  0  0  0
   73.2691   44.0732   57.3174 O   0  0  0  0  0  0  0  0  0  0  0  0
   71.9139   42.2169   58.0288 C   0  0  0  0  0  0  0  0  0  0  0  0
   70.4965   42.1532   58.4991 C   0  0  0  0  0  0  0  0  0  0  0  0
   70.2232   43.5499   58.9228 C   0  0  0  0  0  0  0  0  0  0  0  0
   69.3192   43.9495   59.7188 O   0  0  0  0  0  0  0  0  0  0  0  0
   72.9279   46.4240   61.0369 C   0  0  0  0  0  0  0  0  0  0  0  0
   72.8298   46.0659   59.6919 O   0  0  0  0  0  0  0  0  0  0  0  0
   68.8241   48.3076   56.3743 C   0  0  0  0  0  0  0  0  0  0  0  0
   69.2680   48.3518   54.9721 C   0  0  0  0  0  0  0  0  0  0  0  0
   70.1524   49.3195   54.5881 N   0  0  0  0  0  0  0  0  0  0  0  0
   70.5760   49.4712   53.3566 N   0  0  0  0  0  0  0  0  0  0  0  0
   70.1407   48.6495   52.3789 C   0  0  0  0  0  0  0  0  0  0  0  0
   70.5783   48.8397   51.2124 O   0  0  0  0  0  0  0  0  0  0  0  0
   69.2471   47.6390   52.6602 C   0  0  0  0  0  0  0  0  0  0  0  0
   68.8265   46.8057   51.6568 C   0  0  0  0  0  0  0  0  0  0  0  0
   67.9474   45.8052   51.9861 C   0  0  0  0  0  0  0  0  0  0  0  0
   67.4917   45.6259   53.2765 C   0  0  0  0  0  0  0  0  0  0  0  0
   67.9383   46.4899   54.2752 C   0  0  0  0  0  0  0  0  0  0  0  0
   68.8199   47.5096   53.9916 C   0  0  0  0  0  0  0  0  0  0  0  0
 14 15  1  0
 15  1  1  0
  1  2  2  0
  1  6  1  0
  2  3  1  0
  3  4  2  0
  4 16  1  0
  4  5  1  0
 16 17  1  0
 17 18  2  0
 17 27  1  0
 18 19  1  0
 19 20  1  0
 20 21  2  0
 20 22  1  0
 22 23  1  0
 22 27  2  0
 23 24  2  0
 24 25  1  0
 25 26  2  0
 26 27  1  0
  5  6  2  0
  6  7  1  0
  7  8  1  0
  7 12  1  0
  8  9  2  0
  8 10  1  0
 10 11  1  0
 11 12  1  0
 12 13  2  0
M  END
>  <minimizedAffinity>  (594) 
-9.11976

$$$$
data/200k_reference_output/data/smiles/50278.pdb
     RDKit          3D

 29 32  0  0  0  0  0  0  0  0999 V2000
   70.9237   42.0435   58.5589 C   0  0  0  0  0  0  0  0  0  0  0  0
   71.0613   43.3371   58.5061 C   0  0  0  0  0  0  0  0  0  0  0  0
   70.2784   44.2533   57.6839 C   0  0  0  0  0  0  0  0  0  0  0  0
   70.4214   45.6182   57.8178 C   0  0  0  0  0  0  0  0  0  0  0  0
   69.6761   46.4864   57.0391 C   0  0  0  0  0  0  0  0  0  0  0  0
   68.7957   46.0745   56.1347 N   0  0  0  0  0  0  0  0  0  0  0  0
   68.6520   44.7236   55.9986 C   0  0  0  0  0  0  0  0  0  0  0  0
   69.3709   43.8149   56.7513 C   0  0  0  0  0  0  0  0  0  0  0  0
   67.9731   46.9109   55.2915 C   0  0  0  0  0  0  0  0  0  0  0  0
   68.6644   47.2573   54.0316 C   0  0  0  0  0  0  0  0  0  0  0  0
   69.5447   48.3496   53.9843 C   0  0  0  0  0  0  0  0  0  0  0  0
   70.2216   48.7038   52.8360 C   0  0  0  0  0  0  0  0  0  0  0  0
   70.0555   47.9841   51.6701 C   0  0  0  0  0  0  0  0  0  0  0  0
   69.1954   46.9116   51.7036 C   0  0  0  0  0  0  0  0  0  0  0  0
   68.5061   46.5502   52.8713 C   0  0  0  0  0  0  0  0  0  0  0  0
   67.6625   45.4936   52.8472 F   0  0  0  0  0  0  0  0  0  0  0  0
   72.5938   41.7132   60.1812 O   0  0  0  0  0  0  0  0  0  0  0  0
   71.7372   41.1780   59.4015 C   0  0  0  0  0  0  0  0  0  0  0  0
   71.6136   39.7270   59.3929 C   0  0  0  0  0  0  0  0  0  0  0  0
   72.2363   38.9081   58.4765 C   0  0  0  0  0  0  0  0  0  0  0  0
   72.0773   37.5308   58.5214 C   0  0  0  0  0  0  0  0  0  0  0  0
   72.6864   36.6882   57.6200 C   0  0  0  0  0  0  0  0  0  0  0  0
   72.5130   35.3075   57.6813 C   0  0  0  0  0  0  0  0  0  0  0  0
   71.7217   34.7340   58.6538 C   0  0  0  0  0  0  0  0  0  0  0  0
   71.1130   35.5823   59.5548 C   0  0  0  0  0  0  0  0  0  0  0  0
   71.2844   36.9662   59.4962 C   0  0  0  0  0  0  0  0  0  0  0  0
   70.7064   37.7704   60.3507 O   0  0  0  0  0  0  0  0  0  0  0  0
   70.8357   39.0799   60.3372 C   0  0  0  0  0  0  0  0  0  0  0  0
   70.2510   39.8176   61.1939 O   0  0  0  0  0  0  0  0  0  0  0  0
 17 18  2  0
 18  1  1  0
 18 19  1  0
  1  2  2  0
  2  3  1  0
  3  4  2  0
  3  8  1  0
  4  5  1  0
  5  6  2  0
  6  9  1  0
  6  7  1  0
  9 10  1  0
 10 11  2  0
 10 15  1  0
 11 12  1  0
 12 13  2  0
 13 14  1  0
 14 15  2  0
 15 16  1  0
  7  8  2  0
 19 20  2  0
 19 28  1  0
 20 21  1  0
 21 22  2  0
 21 26  1  0
 22 23  1  0
 23 24  2  0
 24 25  1  0
 25 26  2  0
 26 27  1  0
 27 28  1  0
 28 29  2  0
M  CHG  1   6   1
M  END
>  <minimizedAffinity>  (595) 
-8.51597

$$$$
data/200k_reference_output/data/smiles/50346.pdb
     RDKit          3D

 28 30  0  0  0  0  0  0  0  0999 V2000
   70.9860   46.2068   58.1772 O   0  0  0  0  0  0  0  0  0  0  0  0
   70.3579   45.3589   57.5908 C   0  0  0  0  0  0  0  0  0  0  0  0
   69.5071   45.7559   56.5147 N   0  0  0  0  0  0  0  0  0  0  0  0
   70.3732   43.8874   57.9077 C   0  0  0  0  0  0  0  0  0  0  0  0
   69.3401   43.0546   57.7869 C   0  0  0  0  0  0  0  0  0  0  0  0
   69.4623   41.6380   57.9434 C   0  0  0  0  0  0  0  0  0  0  0  0
   70.6870   41.0840   58.2283 C   0  0  0  0  0  0  0  0  0  0  0  0
   71.7648   41.9891   58.3587 C   0  0  0  0  0  0  0  0  0  0  0  0
   71.6390   43.3642   58.2046 C   0  0  0  0  0  0  0  0  0  0  0  0
   70.9875   39.6855   58.3045 C   0  0  0  0  0  0  0  0  0  0  0  0
   71.2396   38.5202   58.3866 C   0  0  0  0  0  0  0  0  0  0  0  0
   71.5743   37.0871   58.4770 C   0  0  0  0  0  0  0  0  0  0  0  0
   70.9728   36.3431   59.5117 C   0  0  0  0  0  0  0  0  0  0  0  0
   71.3000   34.9854   59.4985 C   0  0  0  0  0  0  0  0  0  0  0  0
   72.1460   34.4109   58.5584 C   0  0  0  0  0  0  0  0  0  0  0  0
   72.7365   35.1878   57.5274 C   0  0  0  0  0  0  0  0  0  0  0  0
   72.3563   36.5135   57.6096 C   0  0  0  0  0  0  0  0  0  0  0  0
   69.1701   46.9458   55.9112 C   0  0  2  0  0  0  0  0  0  0  0  0
   68.4676   47.8608   56.9430 C   0  0  0  0  0  0  0  0  0  0  0  0
   69.1242   48.6836   57.6192 O   0  0  0  0  0  0  0  0  0  0  0  0
   67.0709   47.7431   57.1212 N   0  0  0  0  0  0  0  0  0  0  0  0
   66.4015   48.5085   58.0089 O   0  0  0  0  0  0  0  0  0  0  0  0
   68.2943   47.0296   54.7276 C   0  0  0  0  0  0  0  0  0  0  0  0
   68.9585   47.3889   53.4475 C   0  0  0  0  0  0  0  0  0  0  0  0
   68.8748   46.5899   52.2614 C   0  0  0  0  0  0  0  0  0  0  0  0
   69.5941   47.1772   51.3092 N   0  0  0  0  0  0  0  0  0  0  0  0
   70.1379   48.3247   51.8531 C   0  0  0  0  0  0  0  0  0  0  0  0
   69.7272   48.3795   53.1013 N   0  0  0  0  0  0  0  0  0  0  0  0
  1  2  2  0
  2  3  1  0
  2  4  1  0
  3 18  1  0
 18 23  1  6
 18 19  1  0
 23 24  1  0
 24 25  2  0
 24 28  1  0
 25 26  1  0
 26 27  2  0
 27 28  1  0
 19 20  2  0
 19 21  1  0
 21 22  1  0
  4  5  2  0
  4  9  1  0
  5  6  1  0
  6  7  2  0
  7 10  1  0
  7  8  1  0
 10 11  3  0
 11 12  1  0
 12 13  2  0
 12 17  1  0
 13 14  1  0
 14 15  2  0
 15 16  1  0
 16 17  2  0
  8  9  2  0
M  CHG  1  26   1
M  END
>  <minimizedAffinity>  (596) 
-9.39355

$$$$
data/200k_reference_output/data/smiles/50452.pdb
     RDKit          3D

 28 29  0  0  0  0  0  0  0  0999 V2000
   70.6365   44.2877   58.3470 C   0  0  0  0  0  0  0  0  0  0  0  0
   71.4214   45.4763   59.1317 S   0  0  0  0  0  0  0  0  0  0  0  0
   70.5569   41.8334   58.7741 C   0  0  0  0  0  0  0  0  0  0  0  0
   69.4461   42.0164   59.3431 O   0  0  0  0  0  0  0  0  0  0  0  0
   71.1889   42.9780   58.2540 N   0  0  0  0  0  0  0  0  0  0  0  0
   72.0255   37.8022   58.5561 C   0  0  0  0  0  0  0  0  0  0  0  0
   72.8584   38.8372   58.9209 C   0  0  0  0  0  0  0  0  0  0  0  0
   72.3866   40.1509   58.9938 C   0  0  0  0  0  0  0  0  0  0  0  0
   71.0769   40.4730   58.7070 C   0  0  0  0  0  0  0  0  0  0  0  0
   70.2533   39.4211   58.3428 C   0  0  0  0  0  0  0  0  0  0  0  0
   70.7147   38.1234   58.2695 C   0  0  0  0  0  0  0  0  0  0  0  0
   72.7121   35.9523   57.0479 C   0  0  0  0  0  0  0  0  0  0  0  0
   72.5074   36.3975   58.4732 C   0  0  0  0  0  0  0  0  0  0  0  0
   73.8068   36.3194   59.2700 C   0  0  0  0  0  0  0  0  0  0  0  0
   71.5248   35.4752   59.1212 C   0  0  0  0  0  0  0  0  0  0  0  0
   69.3797   44.5515   57.7448 N   0  0  0  0  0  0  0  0  0  0  0  0
   69.3042   44.8380   56.3548 N   0  0  0  0  0  0  0  0  0  0  0  0
   68.6979   46.0211   55.8805 C   0  0  0  0  0  0  0  0  0  0  0  0
   68.2075   46.8487   56.7072 O   0  0  0  0  0  0  0  0  0  0  0  0
   68.6159   46.3211   54.4726 C   0  0  0  0  0  0  0  0  0  0  0  0
   67.7914   45.6644   53.5944 C   0  0  0  0  0  0  0  0  0  0  0  0
   67.7599   46.0039   52.2366 C   0  0  0  0  0  0  0  0  0  0  0  0
   68.5696   47.0141   51.7754 C   0  0  0  0  0  0  0  0  0  0  0  0
   69.4206   47.7059   52.6287 C   0  0  0  0  0  0  0  0  0  0  0  0
   69.4078   47.3305   53.9428 C   0  0  0  0  0  0  0  0  0  0  0  0
   70.2433   48.7434   52.1189 N   0  0  0  0  0  0  0  0  0  0  0  0
   69.9442   49.2690   51.0373 O   0  0  0  0  0  0  0  0  0  0  0  0
   71.3379   49.1556   52.7995 O   0  0  0  0  0  0  0  0  0  0  0  0
 12 13  1  0
 13 14  1  0
 13 15  1  0
 13  6  1  0
  6  7  2  0
  6 11  1  0
  7  8  1  0
  8  9  2  0
  9  3  1  0
  9 10  1  0
  3  4  2  0
  3  5  1  0
  5  1  1  0
  1  2  2  0
  1 16  1  0
 16 17  1  0
 17 18  1  0
 18 19  2  0
 18 20  1  0
 20 21  2  0
 20 25  1  0
 21 22  1  0
 22 23  2  0
 23 24  1  0
 24 26  1  0
 24 25  2  0
 26 27  2  0
 26 28  1  0
 10 11  2  0
M  CHG  2  26   1  28  -1
M  END
>  <minimizedAffinity>  (597) 
-9.52301

$$$$
data/200k_reference_output/data/smiles/50590.pdb
     RDKit          3D

 25 27  0  0  0  0  0  0  0  0999 V2000
   67.8121   43.6101   56.2728 N   0  0  0  0  0  0  0  0  0  0  0  0
   68.6078   42.6821   56.9674 C   0  0  0  0  0  0  0  0  0  0  0  0
   69.8463   43.0451   57.0440 O   0  0  0  0  0  0  0  0  0  0  0  0
   68.2016   41.4368   57.5685 C   0  0  0  0  0  0  0  0  0  0  0  0
   68.0658   41.3006   58.9548 C   0  0  0  0  0  0  0  0  0  0  0  0
   67.6805   40.1268   59.5518 C   0  0  0  0  0  0  0  0  0  0  0  0
   67.5478   39.9971   60.9219 C   0  0  0  0  0  0  0  0  0  0  0  0
   67.1600   38.8104   61.5047 C   0  0  0  0  0  0  0  0  0  0  0  0
   66.9793   38.6436   63.4090 Br  0  0  0  0  0  0  0  0  0  0  0  0
   66.9045   37.7422   60.6719 C   0  0  0  0  0  0  0  0  0  0  0  0
   67.0360   37.8704   59.3144 C   0  0  0  0  0  0  0  0  0  0  0  0
   67.4263   39.0601   58.7140 C   0  0  0  0  0  0  0  0  0  0  0  0
   67.5500   39.1748   57.4175 O   0  0  0  0  0  0  0  0  0  0  0  0
   67.9261   40.3229   56.8345 C   0  0  0  0  0  0  0  0  0  0  0  0
   67.9930   40.2555   55.5872 O   0  0  0  0  0  0  0  0  0  0  0  0
   67.2752   44.5172   53.7375 O   0  0  0  0  0  0  0  0  0  0  0  0
   68.0483   45.2305   54.4237 C   0  0  0  0  0  0  0  0  0  0  0  0
   68.3519   44.8023   55.7313 N   0  0  0  0  0  0  0  0  0  0  0  0
   68.5805   46.4504   53.8236 C   0  0  0  0  0  0  0  0  0  0  0  0
   68.8162   46.5278   52.4655 C   0  0  0  0  0  0  0  0  0  0  0  0
   69.3157   47.6525   51.8516 C   0  0  0  0  0  0  0  0  0  0  0  0
   69.6079   48.7746   52.5920 C   0  0  0  0  0  0  0  0  0  0  0  0
   70.1143   49.9320   52.0073 O   0  0  0  0  0  0  0  0  0  0  0  0
   69.3822   48.7246   53.9497 C   0  0  0  0  0  0  0  0  0  0  0  0
   68.8727   47.5749   54.5644 C   0  0  0  0  0  0  0  0  0  0  0  0
 16 17  2  0
 17 18  1  0
 17 19  1  0
 18  1  1  0
  1  2  1  0
  2  3  2  0
  2  4  1  0
  4  5  2  0
  4 14  1  0
  5  6  1  0
  6  7  2  0
  6 12  1  0
  7  8  1  0
  8  9  1  0
  8 10  2  0
 10 11  1  0
 11 12  2  0
 12 13  1  0
 13 14  1  0
 14 15  2  0
 19 20  2  0
 19 25  1  0
 20 21  1  0
 21 22  2  0
 22 23  1  0
 22 24  1  0
 24 25  2  0
M  END
>  <minimizedAffinity>  (598) 
-8.55783

$$$$
data/200k_reference_output/data/smiles/50595.pdb
     RDKit          3D

 19 20  0  0  0  0  0  0  0  0999 V2000
   69.4918   48.3457   54.0334 C   0  0  0  0  0  0  0  0  0  0  0  0
   69.2372   48.1622   55.4043 C   0  0  0  0  0  0  0  0  0  0  0  0
   68.3404   47.2181   55.8589 C   0  0  0  0  0  0  0  0  0  0  0  0
   68.0965   47.0371   57.0796 O   0  0  0  0  0  0  0  0  0  0  0  0
   67.6975   46.4590   55.0043 O   0  0  0  0  0  0  0  0  0  0  0  0
   67.8644   46.5490   53.6999 C   0  0  0  0  0  0  0  0  0  0  0  0
   67.1732   45.7351   52.8848 N   0  0  0  0  0  0  0  0  0  0  0  0
   67.3380   45.8158   51.5617 C   0  0  0  0  0  0  0  0  0  0  0  0
   66.6914   45.0525   50.7648 O   0  0  0  0  0  0  0  0  0  0  0  0
   68.1978   46.7124   51.0552 N   0  0  0  0  0  0  0  0  0  0  0  0
   68.9098   47.5474   51.8578 C   0  0  0  0  0  0  0  0  0  0  0  0
   69.7111   48.3788   51.3835 O   0  0  0  0  0  0  0  0  0  0  0  0
   68.7684   47.4991   53.2215 C   0  0  0  0  0  0  0  0  0  0  0  0
   70.4118   49.3804   53.5521 C   0  0  0  0  0  0  0  0  0  0  0  0
   70.5985   50.5549   54.4412 C   0  0  0  0  0  0  0  0  0  0  0  0
   69.8310   51.7558   53.9313 C   0  0  0  0  0  0  0  0  0  0  0  0
   68.5312   51.8237   54.7214 C   0  0  0  0  0  0  0  0  0  0  0  0
   67.8328   51.3240   57.0791 C   0  0  0  0  0  0  0  0  0  0  0  0
   68.7934   52.0789   56.1951 C   0  0  0  0  0  0  0  0  0  0  0  0
 18 19  1  0
 19 17  1  0
 17 16  1  0
 16 15  1  0
 15 14  1  0
 14  1  1  0
  1  2  2  0
  1 13  1  0
  2  3  1  0
  3  4  2  0
  3  5  1  0
  5  6  1  0
  6  7  1  0
  6 13  2  0
  7  8  1  0
  8  9  2  0
  8 10  1  0
 10 11  1  0
 11 12  2  0
 11 13  1  0
M  END
>  <minimizedAffinity>  (599) 
-8.74912

$$$$
data/200k_reference_output/data/smiles/50640.pdb
     RDKit          3D

 30 33  0  0  0  0  0  0  0  0999 V2000
   69.7770   39.3516   58.7692 N   0  0  0  0  0  0  0  0  0  0  0  0
   68.7432   38.7041   58.1488 C   0  0  0  0  0  0  0  0  0  0  0  0
   67.9515   39.3646   57.2976 N   0  0  0  0  0  0  0  0  0  0  0  0
   68.1160   40.6651   57.0084 C   0  0  0  0  0  0  0  0  0  0  0  0
   67.3128   41.3553   56.1372 C   0  0  0  0  0  0  0  0  0  0  0  0
   67.5028   42.6884   55.8555 C   0  0  0  0  0  0  0  0  0  0  0  0
   68.5440   43.4098   56.4573 C   0  0  0  0  0  0  0  0  0  0  0  0
   69.3399   42.7013   57.3287 C   0  0  0  0  0  0  0  0  0  0  0  0
   69.1489   41.3590   57.6124 C   0  0  0  0  0  0  0  0  0  0  0  0
   69.9556   40.6523   58.4906 C   0  0  0  0  0  0  0  0  0  0  0  0
   70.8919   41.2932   59.0347 O   0  0  0  0  0  0  0  0  0  0  0  0
   68.7162   44.7993   56.1392 C   0  0  0  0  0  0  0  0  0  0  0  0
   68.8379   45.9433   55.8829 C   0  0  0  0  0  0  0  0  0  0  0  0
   69.0099   47.3844   55.5762 C   0  0  0  0  0  0  0  0  0  0  0  0
   68.8921   47.6876   54.2077 N   0  0  0  0  0  0  0  0  0  0  0  0
   69.7142   48.7294   53.7668 C   0  0  0  0  0  0  0  0  0  0  0  0
   69.8000   48.9465   52.2867 C   0  0  0  0  0  0  0  0  0  0  0  0
   69.8147   47.6670   51.4950 C   0  0  0  0  0  0  0  0  0  0  0  0
   68.6428   46.8259   51.9017 C   0  0  0  0  0  0  0  0  0  0  0  0
   68.5573   46.6114   53.3842 C   0  0  0  0  0  0  0  0  0  0  0  0
   70.6154   38.6056   59.6892 C   0  0  0  0  0  0  0  0  0  0  0  0
   72.4452   35.2338   57.7663 C   0  0  0  0  0  0  0  0  0  0  0  0
   71.5988   35.0484   58.8279 C   0  0  0  0  0  0  0  0  0  0  0  0
   71.0319   36.1480   59.4288 C   0  0  0  0  0  0  0  0  0  0  0  0
   71.2848   37.4565   59.0010 C   0  0  0  0  0  0  0  0  0  0  0  0
   72.1373   37.5760   57.9374 C   0  0  0  0  0  0  0  0  0  0  0  0
   72.7259   36.5012   57.3080 C   0  0  0  0  0  0  0  0  0  0  0  0
   72.8166   33.8089   55.9082 O   0  0  0  0  0  0  0  0  0  0  0  0
   73.0640   34.0712   57.1022 C   0  0  0  0  0  0  0  0  0  0  0  0
   73.9322   33.2521   57.7999 O   0  0  0  0  0  0  0  0  0  0  0  0
 28 29  2  0
 29 30  1  0
 29 22  1  0
 22 23  2  0
 22 27  1  0
 23 24  1  0
 24 25  2  0
 25 21  1  0
 25 26  1  0
 21  1  1  0
  1  2  1  0
  1 10  1  0
  2  3  2  0
  3  4  1  0
  4  5  2  0
  4  9  1  0
  5  6  1  0
  6  7  2  0
  7 12  1  0
  7  8  1  0
 12 13  3  0
 13 14  1  0
 14 15  1  0
 15 16  1  0
 15 20  1  0
 16 17  1  0
 17 18  1  0
 18 19  1  0
 19 20  1  0
  8  9  2  0
  9 10  1  0
 10 11  2  0
 26 27  2  0
M  CHG  1  15   1
M  END
>  <minimizedAffinity>  (600) 
-8.68570

$$$$
data/200k_reference_output/data/smiles/50658.pdb
     RDKit          3D

 33 36  0  0  0  0  0  0  0  0999 V2000
   65.4759   39.7316   60.9071 C   0  0  0  0  0  0  0  0  0  0  0  0
   66.3103   40.2297   60.0067 C   0  0  0  0  0  0  0  0  0  0  0  0
   66.9883   39.3770   59.2171 N   0  0  0  0  0  0  0  0  0  0  0  0
   67.8406   39.8664   58.2953 C   0  0  0  0  0  0  0  0  0  0  0  0
   68.4885   39.0980   57.5441 O   0  0  0  0  0  0  0  0  0  0  0  0
   68.0504   41.2321   58.1266 C   0  0  0  0  0  0  0  0  0  0  0  0
   68.8881   41.7087   57.2207 C   0  0  0  0  0  0  0  0  0  0  0  0
   67.3718   42.0846   58.9170 N   0  0  0  0  0  0  0  0  0  0  0  0
   66.5176   41.5826   59.8385 C   0  0  0  0  0  0  0  0  0  0  0  0
   65.8851   42.3770   60.5748 O   0  0  0  0  0  0  0  0  0  0  0  0
   69.1252   43.1371   57.0239 C   0  0  0  0  0  0  0  0  0  0  0  0
   70.0759   43.8357   57.7413 C   0  0  0  0  0  0  0  0  0  0  0  0
   70.3191   45.1788   57.5759 C   0  0  0  0  0  0  0  0  0  0  0  0
   69.5555   45.8603   56.6290 C   0  0  0  0  0  0  0  0  0  0  0  0
   68.5968   45.1998   55.8930 C   0  0  0  0  0  0  0  0  0  0  0  0
   68.3903   43.8555   56.0935 C   0  0  0  0  0  0  0  0  0  0  0  0
   67.8570   45.9347   54.9536 O   0  0  0  0  0  0  0  0  0  0  0  0
   68.4884   46.7108   53.9916 C   0  0  0  0  0  0  0  0  0  0  0  0
   68.5926   46.2440   52.6889 C   0  0  0  0  0  0  0  0  0  0  0  0
   69.2114   46.9814   51.6999 C   0  0  0  0  0  0  0  0  0  0  0  0
   69.7492   48.2191   51.9901 C   0  0  0  0  0  0  0  0  0  0  0  0
   70.3648   48.9620   51.0259 F   0  0  0  0  0  0  0  0  0  0  0  0
   69.6487   48.6870   53.2819 C   0  0  0  0  0  0  0  0  0  0  0  0
   69.0240   47.9466   54.2842 C   0  0  0  0  0  0  0  0  0  0  0  0
   66.0079   37.5237   61.9634 C   0  0  0  0  0  0  0  0  0  0  0  0
   65.5766   36.2574   61.8112 N   0  0  0  0  0  0  0  0  0  0  0  0
   64.6356   36.2338   60.8463 C   0  0  0  0  0  0  0  0  0  0  0  0
   64.4541   37.4791   60.3726 N   0  0  0  0  0  0  0  0  0  0  0  0
   65.2878   38.2721   61.0490 C   0  0  0  0  0  0  0  0  0  0  0  0
   68.3725   38.2481   62.2372 C   0  0  0  0  0  0  0  0  0  0  0  0
   67.0404   38.0101   62.9160 C   0  0  0  0  0  0  0  0  0  0  0  0
   66.5843   39.2732   63.6276 C   0  0  0  0  0  0  0  0  0  0  0  0
   67.2538   36.9501   63.9769 C   0  0  0  0  0  0  0  0  0  0  0  0
 30 31  1  0
 31 32  1  0
 31 33  1  0
 31 25  1  0
 25 26  1  0
 25 29  2  0
 26 27  1  0
 27 28  2  0
 28 29  1  0
 29  1  1  0
  1  2  2  0
  2  3  1  0
  2  9  1  0
  3  4  1  0
  4  5  2  0
  4  6  1  0
  6  7  2  0
  6  8  1  0
  7 11  1  0
 11 12  2  0
 11 16  1  0
 12 13  1  0
 13 14  2  0
 14 15  1  0
 15 17  1  0
 15 16  2  0
 17 18  1  0
 18 19  2  0
 18 24  1  0
 19 20  1  0
 20 21  2  0
 21 22  1  0
 21 23  1  0
 23 24  2  0
  8  9  1  0
  9 10  2  0
M  CHG  1  28   1
M  END
>  <minimizedAffinity>  (601) 
-9.35111

$$$$
data/200k_reference_output/data/smiles/50797.pdb
     RDKit          3D

 28 32  0  0  0  0  0  0  0  0999 V2000
   70.7068   45.8916   58.0700 N   0  0  0  0  0  0  0  0  0  0  0  0
   71.1449   47.0938   58.4823 C   0  0  0  0  0  0  0  0  0  0  0  0
   70.3906   48.0781   57.8953 C   0  0  0  0  0  0  0  0  0  0  0  0
   69.4674   47.4540   57.1033 N   0  0  0  0  0  0  0  0  0  0  0  0
   69.6698   46.1443   57.2195 C   0  0  0  0  0  0  0  0  0  0  0  0
   71.1857   44.5662   58.4142 C   0  0  0  0  0  0  0  0  0  0  0  0
   68.7618   41.3710   56.9967 C   0  0  0  0  0  0  0  0  0  0  0  0
   69.7157   41.1675   57.9609 C   0  0  0  0  0  0  0  0  0  0  0  0
   70.4876   42.2120   58.4051 C   0  0  0  0  0  0  0  0  0  0  0  0
   70.3388   43.4843   57.9076 C   0  0  0  0  0  0  0  0  0  0  0  0
   69.3797   43.6820   56.9391 C   0  0  0  0  0  0  0  0  0  0  0  0
   68.5878   42.6469   56.4755 C   0  0  0  0  0  0  0  0  0  0  0  0
   67.8038   39.2895   57.2465 O   0  0  0  0  0  0  0  0  0  0  0  0
   67.9601   40.2894   56.5363 N   0  0  0  0  0  0  0  0  0  0  0  0
   67.3682   40.3747   55.3031 O   0  0  0  0  0  0  0  0  0  0  0  0
   68.4939   48.1803   56.3160 C   0  0  0  0  0  0  0  0  0  0  0  0
   68.9309   48.3850   54.9153 C   0  0  0  0  0  0  0  0  0  0  0  0
   69.5143   49.5710   54.5420 C   0  0  0  0  0  0  0  0  0  0  0  0
   69.9093   49.7159   53.2135 C   0  0  0  0  0  0  0  0  0  0  0  0
   69.7266   48.7087   52.2863 C   0  0  0  0  0  0  0  0  0  0  0  0
   69.1406   47.5201   52.6615 C   0  0  0  0  0  0  0  0  0  0  0  0
   68.7539   47.3855   53.9773 C   0  0  0  0  0  0  0  0  0  0  0  0
   68.1811   46.1129   54.1627 O   0  0  0  0  0  0  0  0  0  0  0  0
   67.6765   45.7346   52.8703 C   0  0  0  0  0  0  0  0  0  0  0  0
   68.7892   46.2471   51.9846 C   0  0  0  0  0  0  0  0  0  0  0  0
   70.4682   50.9712   53.0463 O   0  0  0  0  0  0  0  0  0  0  0  0
   70.1026   51.8012   54.1366 C   0  0  0  0  0  0  0  0  0  0  0  0
   69.8456   50.8179   55.2742 C   0  0  0  0  0  0  0  0  0  0  0  0
 13 14  2  0
 14 15  1  0
 14  7  1  0
  7  8  2  0
  7 12  1  0
  8  9  1  0
  9 10  2  0
 10  6  1  0
 10 11  1  0
  6  1  1  0
  1  2  1  0
  1  5  2  0
  2  3  2  0
  3  4  1  0
  4 16  1  0
  4  5  1  0
 16 17  1  0
 17 18  2  0
 17 22  1  0
 18 19  1  0
 18 28  1  0
 19 20  2  0
 19 26  1  0
 20 21  1  0
 21 22  2  0
 21 25  1  0
 22 23  1  0
 23 24  1  0
 24 25  1  0
 26 27  1  0
 27 28  1  0
 11 12  2  0
M  CHG  3   1   1  14   1  15  -1
M  END
>  <minimizedAffinity>  (602) 
-8.74163

$$$$
data/200k_reference_output/data/smiles/50929.pdb
     RDKit          3D

 22 23  0  0  0  0  0  0  0  0999 V2000
   69.2324   47.5820   54.3042 C   0  0  0  0  0  0  0  0  0  0  0  0
   68.3793   46.5403   54.7297 C   0  0  0  0  0  0  0  0  0  0  0  0
   67.6756   45.7987   53.8161 C   0  0  0  0  0  0  0  0  0  0  0  0
   67.7501   46.0128   52.4597 C   0  0  0  0  0  0  0  0  0  0  0  0
   68.5758   47.0229   52.0481 C   0  0  0  0  0  0  0  0  0  0  0  0
   69.3160   47.8101   52.9583 C   0  0  0  0  0  0  0  0  0  0  0  0
   70.2848   49.1040   52.3353 S   0  0  0  0  0  0  0  0  0  0  0  0
   69.5877   50.6412   52.3451 N   0  0  0  0  0  0  0  0  0  0  0  0
   71.6070   49.1805   53.0568 O   0  0  0  0  0  0  0  0  0  0  0  0
   70.5754   48.7527   50.8763 O   0  0  0  0  0  0  0  0  0  0  0  0
   67.0017   45.2177   51.5462 N   0  0  0  0  0  0  0  0  0  0  0  0
   66.6793   45.6697   50.4341 O   0  0  0  0  0  0  0  0  0  0  0  0
   66.6052   43.9354   51.8391 O   0  0  0  0  0  0  0  0  0  0  0  0
   69.9105   48.3580   55.2652 N   0  0  0  0  0  0  0  0  0  0  0  0
   66.3864   49.8274   58.4188 C   0  0  0  0  0  0  0  0  0  0  0  0
   67.5281   50.1633   57.4977 C   0  0  0  0  0  0  0  0  0  0  0  0
   67.9238   51.4682   57.2993 C   0  0  0  0  0  0  0  0  0  0  0  0
   68.9717   51.7670   56.4544 C   0  0  0  0  0  0  0  0  0  0  0  0
   69.3589   53.1974   56.2754 C   0  0  0  0  0  0  0  0  0  0  0  0
   69.6251   50.7418   55.8049 C   0  0  0  0  0  0  0  0  0  0  0  0
   69.2707   49.4042   55.9654 C   0  0  0  0  0  0  0  0  0  0  0  0
   68.2039   49.1637   56.8322 C   0  0  0  0  0  0  0  0  0  0  0  0
 15 16  1  0
 16 17  2  0
 16 22  1  0
 17 18  1  0
 18 19  1  0
 18 20  2  0
 20 21  1  0
 21 14  1  0
 21 22  2  0
 14  1  1  0
  1  2  2  0
  1  6  1  0
  2  3  1  0
  3  4  2  0
  4 11  1  0
  4  5  1  0
 11 12  2  0
 11 13  1  0
  5  6  2  0
  6  7  1  0
  7  8  1  0
  7  9  2  0
  7 10  2  0
M  CHG  2  11   1  13  -1
M  END
>  <minimizedAffinity>  (603) 
-8.62840

$$$$
data/200k_reference_output/data/smiles/50935.pdb
     RDKit          3D

 22 24  0  0  0  0  0  0  0  0999 V2000
   69.9522   46.4806   57.4079 O   0  0  0  0  0  0  0  0  0  0  0  0
   69.0788   46.3216   56.5154 C   0  0  0  0  0  0  0  0  0  0  0  0
   68.6615   44.9860   56.2797 N   0  0  0  0  0  0  0  0  0  0  0  0
   69.1826   43.8946   56.9902 N   0  0  0  0  0  0  0  0  0  0  0  0
   68.6817   42.7153   56.9281 C   0  0  0  0  0  0  0  0  0  0  0  0
   67.5364   42.3276   56.1433 C   0  0  0  0  0  0  0  0  0  0  0  0
   66.8736   43.1212   55.4069 O   0  0  0  0  0  0  0  0  0  0  0  0
   67.3305   40.9455   56.3669 N   0  0  0  0  0  0  0  0  0  0  0  0
   68.3062   40.4353   57.2690 C   0  0  0  0  0  0  0  0  0  0  0  0
   68.5309   39.1788   57.7945 C   0  0  0  0  0  0  0  0  0  0  0  0
   69.5776   38.9276   58.6801 C   0  0  0  0  0  0  0  0  0  0  0  0
   70.3919   39.9878   59.0184 C   0  0  0  0  0  0  0  0  0  0  0  0
   70.1627   41.2441   58.4906 C   0  0  0  0  0  0  0  0  0  0  0  0
   69.1255   41.4904   57.6141 C   0  0  0  0  0  0  0  0  0  0  0  0
   68.5719   47.4987   55.8075 C   0  0  0  0  0  0  0  0  0  0  0  0
   68.6759   47.3224   54.3411 C   0  0  0  0  0  0  0  0  0  0  0  0
   69.4853   48.1090   53.5526 C   0  0  0  0  0  0  0  0  0  0  0  0
   69.5662   47.9268   52.1846 C   0  0  0  0  0  0  0  0  0  0  0  0
   68.8216   46.9319   51.5817 C   0  0  0  0  0  0  0  0  0  0  0  0
   67.9990   46.1240   52.3503 C   0  0  0  0  0  0  0  0  0  0  0  0
   67.0596   44.8664   51.5727 Cl  0  0  0  0  0  0  0  0  0  0  0  0
   67.9400   46.3357   53.7264 C   0  0  0  0  0  0  0  0  0  0  0  0
  1  2  2  0
  2 15  1  0
  2  3  1  0
 15 16  1  0
 16 17  2  0
 16 22  1  0
 17 18  1  0
 18 19  2  0
 19 20  1  0
 20 21  1  0
 20 22  2  0
  3  4  1  0
  4  5  2  0
  5  6  1  0
  5 14  1  0
  6  7  2  0
  6  8  1  0
  8  9  1  0
  9 10  1  0
  9 14  2  0
 10 11  2  0
 11 12  1  0
 12 13  2  0
 13 14  1  0
M  END
>  <minimizedAffinity>  (604) 
-8.73461

$$$$
data/200k_reference_output/data/smiles/50982.pdb
     RDKit          3D

 25 27  0  0  0  0  0  0  0  0999 V2000
   68.6126   46.4393   54.1066 C   0  0  0  0  0  0  0  0  0  0  0  0
   68.3659   46.0803   52.8071 C   0  0  0  0  0  0  0  0  0  0  0  0
   68.7159   46.9509   51.7619 C   0  0  0  0  0  0  0  0  0  0  0  0
   69.3038   48.1644   52.0294 C   0  0  0  0  0  0  0  0  0  0  0  0
   69.5584   48.5433   53.3051 C   0  0  0  0  0  0  0  0  0  0  0  0
   69.2075   47.6744   54.3153 C   0  0  0  0  0  0  0  0  0  0  0  0
   68.3848   46.0447   56.3856 O   0  0  0  0  0  0  0  0  0  0  0  0
   68.2737   45.5831   55.2234 C   0  0  0  0  0  0  0  0  0  0  0  0
   67.8288   44.2612   55.0276 N   0  0  0  0  0  0  0  0  0  0  0  0
   67.5035   43.4429   56.1380 N   0  0  0  0  0  0  0  0  0  0  0  0
   68.0795   42.3399   56.3777 C   0  0  0  0  0  0  0  0  0  0  0  0
   67.7570   41.4809   57.5193 C   0  0  0  0  0  0  0  0  0  0  0  0
   68.1018   40.1453   57.5405 C   0  0  0  0  0  0  0  0  0  0  0  0
   67.7913   39.3308   58.6306 C   0  0  0  0  0  0  0  0  0  0  0  0
   67.1280   39.8598   59.7157 C   0  0  0  0  0  0  0  0  0  0  0  0
   66.7984   41.1982   59.6615 C   0  0  0  0  0  0  0  0  0  0  0  0
   67.1099   41.9605   58.5966 N   0  0  0  0  0  0  0  0  0  0  0  0
   70.3136   50.0934   53.7047 S   0  0  0  0  0  0  0  0  0  0  0  0
   70.1243   51.0503   52.5472 O   0  0  0  0  0  0  0  0  0  0  0  0
   71.7861   49.8369   53.8104 O   0  0  0  0  0  0  0  0  0  0  0  0
   69.5942   50.6922   55.0626 N   0  0  0  0  0  0  0  0  0  0  0  0
   70.3166   50.8340   56.2504 C   0  0  0  0  0  0  0  0  0  0  0  0
   70.4423   52.3437   56.3591 C   0  0  0  0  0  0  0  0  0  0  0  0
   69.3793   52.9184   55.4378 C   0  0  0  0  0  0  0  0  0  0  0  0
   68.6109   51.6798   54.9952 C   0  0  0  0  0  0  0  0  0  0  0  0
  7  8  2  0
  8  9  1  0
  8  1  1  0
  9 10  1  0
 10 11  2  0
 11 12  1  0
 12 13  2  0
 12 17  1  0
 13 14  1  0
 14 15  2  0
 15 16  1  0
 16 17  2  0
  1  2  2  0
  1  6  1  0
  2  3  1  0
  3  4  2  0
  4  5  1  0
  5 18  1  0
  5  6  2  0
 18 19  2  0
 18 20  2  0
 18 21  1  0
 21 22  1  0
 21 25  1  0
 22 23  1  0
 23 24  1  0
 24 25  1  0
M  END
>  <minimizedAffinity>  (605) 
-8.93327

$$$$
data/200k_reference_output/data/smiles/51005.pdb
     RDKit          3D

 27 29  0  0  0  0  0  0  0  0999 V2000
   73.5196   35.8965   57.6832 C   0  0  0  0  0  0  0  0  0  0  0  0
   73.6908   35.5588   56.4150 C   0  0  0  0  0  0  0  0  0  0  0  0
   72.6976   35.8669   55.5464 N   0  0  0  0  0  0  0  0  0  0  0  0
   72.8772   35.5203   54.2567 C   0  0  0  0  0  0  0  0  0  0  0  0
   71.9883   35.7813   53.4074 O   0  0  0  0  0  0  0  0  0  0  0  0
   74.0082   34.8786   53.7971 C   0  0  0  0  0  0  0  0  0  0  0  0
   74.1784   34.5386   52.5181 C   0  0  0  0  0  0  0  0  0  0  0  0
   74.9797   34.5773   54.6470 N   0  0  0  0  0  0  0  0  0  0  0  0
   74.8218   34.9161   55.9493 C   0  0  0  0  0  0  0  0  0  0  0  0
   75.7152   34.6546   56.8094 O   0  0  0  0  0  0  0  0  0  0  0  0
   71.5003   36.0931   59.1680 C   0  0  0  0  0  0  0  0  0  0  0  0
   70.5182   36.9611   59.3329 O   0  0  0  0  0  0  0  0  0  0  0  0
   70.6772   37.9535   58.4893 C   0  0  0  0  0  0  0  0  0  0  0  0
   71.7823   37.7394   57.7529 N   0  0  0  0  0  0  0  0  0  0  0  0
   72.3113   36.5801   58.1628 C   0  0  0  0  0  0  0  0  0  0  0  0
   70.4753   34.5541   60.7505 C   0  0  0  0  0  0  0  0  0  0  0  0
   71.7141   34.8207   59.9136 C   0  0  0  0  0  0  0  0  0  0  0  0
   72.8881   34.9067   60.8609 C   0  0  0  0  0  0  0  0  0  0  0  0
   71.9295   33.6506   59.0103 C   0  0  0  0  0  0  0  0  0  0  0  0
   75.3390   33.8658   51.9742 C   0  0  0  0  0  0  0  0  0  0  0  0
   76.3895   34.8962   51.6297 C   0  0  0  0  0  0  0  0  0  0  0  0
   76.7614   34.9106   50.2139 C   0  0  0  0  0  0  0  0  0  0  0  0
   77.7830   35.7335   49.7815 C   0  0  0  0  0  0  0  0  0  0  0  0
   78.1866   35.7997   48.4628 C   0  0  0  0  0  0  0  0  0  0  0  0
   77.5608   35.0247   47.5289 C   0  0  0  0  0  0  0  0  0  0  0  0
   76.5402   34.1932   47.9157 C   0  0  0  0  0  0  0  0  0  0  0  0
   76.1458   34.1374   49.2420 C   0  0  0  0  0  0  0  0  0  0  0  0
 16 17  1  0
 17 18  1  0
 17 19  1  0
 17 11  1  0
 11 12  1  0
 11 15  2  0
 12 13  1  0
 13 14  2  0
 14 15  1  0
 15  1  1  0
  1  2  2  0
  2  3  1  0
  2  9  1  0
  3  4  1  0
  4  5  2  0
  4  6  1  0
  6  7  2  0
  6  8  1  0
  7 20  1  0
 20 21  1  0
 21 22  1  0
 22 23  2  0
 22 27  1  0
 23 24  1  0
 24 25  2  0
 25 26  1  0
 26 27  2  0
  8  9  1  0
  9 10  2  0
M  END
>  <minimizedAffinity>  (606) 
-8.75442

$$$$
data/200k_reference_output/data/smiles/51034.pdb
     RDKit          3D

 25 27  0  0  0  0  0  0  0  0999 V2000
   71.3673   46.5545   59.0015 S   0  0  0  0  0  0  0  0  0  0  0  0
   71.4145   46.8936   60.4637 O   0  0  0  0  0  0  0  0  0  0  0  0
   71.6716   47.8058   58.2156 O   0  0  0  0  0  0  0  0  0  0  0  0
   72.5695   45.3192   58.7019 C   0  0  0  0  0  0  0  0  0  0  0  0
   72.1899   44.0737   58.1918 C   0  0  0  0  0  0  0  0  0  0  0  0
   73.1165   43.0898   57.9492 C   0  0  0  0  0  0  0  0  0  0  0  0
   74.4478   43.3113   58.2045 C   0  0  0  0  0  0  0  0  0  0  0  0
   75.3955   42.3178   57.9609 C   0  0  0  0  0  0  0  0  0  0  0  0
   76.7332   42.5354   58.2153 C   0  0  0  0  0  0  0  0  0  0  0  0
   77.1399   43.7447   58.7160 C   0  0  0  0  0  0  0  0  0  0  0  0
   76.2067   44.7216   58.9551 C   0  0  0  0  0  0  0  0  0  0  0  0
   74.8631   44.5188   58.7047 C   0  0  0  0  0  0  0  0  0  0  0  0
   73.9082   45.4900   58.9393 C   0  0  0  0  0  0  0  0  0  0  0  0
   69.7802   45.9825   58.5657 N   0  0  0  0  0  0  0  0  0  0  0  0
   68.8923   46.7896   56.4374 C   0  0  0  0  0  0  0  0  0  0  0  0
   68.1960   47.5804   57.1518 O   0  0  0  0  0  0  0  0  0  0  0  0
   69.7376   45.9350   57.1713 N   0  0  0  0  0  0  0  0  0  0  0  0
   69.8264   48.6571   51.8914 C   0  0  0  0  0  0  0  0  0  0  0  0
   69.1766   47.6447   52.7464 C   0  0  0  0  0  0  0  0  0  0  0  0
   68.4198   46.6634   52.1708 C   0  0  0  0  0  0  0  0  0  0  0  0
   67.8294   45.7365   53.0186 C   0  0  0  0  0  0  0  0  0  0  0  0
   68.0059   45.8114   54.3799 C   0  0  0  0  0  0  0  0  0  0  0  0
   68.7796   46.8134   54.9849 C   0  0  0  0  0  0  0  0  0  0  0  0
   69.3527   47.7183   54.1350 C   0  0  0  0  0  0  0  0  0  0  0  0
   70.1112   48.7078   54.6614 F   0  0  0  0  0  0  0  0  0  0  0  0
 18 19  1  0
 19 20  2  0
 19 24  1  0
 20 21  1  0
 21 22  2  0
 22 23  1  0
 23 15  1  0
 23 24  2  0
 15 16  2  0
 15 17  1  0
 17 14  1  0
 14  1  1  0
  1  2  2  0
  1  3  2  0
  1  4  1  0
  4  5  2  0
  4 13  1  0
  5  6  1  0
  6  7  2  0
  7  8  1  0
  7 12  1  0
  8  9  2  0
  9 10  1  0
 10 11  2  0
 11 12  1  0
 12 13  2  0
 24 25  1  0
M  END
>  <minimizedAffinity>  (607) 
-8.86557

$$$$
data/200k_reference_output/data/smiles/51068.pdb
     RDKit          3D

 32 37  0  0  0  0  0  0  0  0999 V2000
   76.0251   34.6038   55.7600 C   0  0  0  0  0  0  0  0  0  0  0  0
   70.9477   35.9839   59.8543 C   0  0  0  0  0  0  0  0  0  0  0  0
   70.6335   37.2922   59.5502 C   0  0  0  0  0  0  0  0  0  0  0  0
   71.1546   37.8969   58.4018 C   0  0  0  0  0  0  0  0  0  0  0  0
   71.9895   37.1578   57.5813 C   0  0  0  0  0  0  0  0  0  0  0  0
   72.3155   35.8531   57.8664 C   0  0  0  0  0  0  0  0  0  0  0  0
   71.8006   35.2813   58.9852 C   0  0  0  0  0  0  0  0  0  0  0  0
   72.1075   33.9064   59.3404 C   0  0  0  0  0  0  0  0  0  0  0  0
   72.6830   33.0276   58.3088 C   0  0  0  0  0  0  0  0  0  0  0  0
   72.9302   33.6244   56.9683 C   0  0  2  0  0  0  0  0  0  0  0  0
   74.2361   33.1394   56.3757 C   0  0  0  0  0  0  0  0  0  0  0  0
   75.2731   34.0316   56.8635 N   0  0  2  0  0  0  0  0  0  0  0  0
   74.6113   35.1046   57.5972 C   0  0  0  0  0  0  0  0  0  0  0  0
   73.1998   35.1021   56.9871 C   0  0  2  0  0  0  0  0  0  0  0  0
   69.1573   35.6873   61.4576 C   0  0  0  0  0  0  0  0  0  0  0  0
   70.4427   35.3702   60.9867 O   0  0  0  0  0  0  0  0  0  0  0  0
   75.2278   35.2344   54.6938 C   0  0  0  0  0  0  0  0  0  0  0  0
   75.5283   34.9824   53.3311 N   0  0  0  0  0  0  0  0  0  0  0  0
   74.7525   34.1256   52.5912 C   0  0  0  0  0  0  0  0  0  0  0  0
   73.7839   33.5379   53.1862 O   0  0  0  0  0  0  0  0  0  0  0  0
   74.9574   33.8795   51.2931 N   0  0  0  0  0  0  0  0  0  0  0  0
   75.9616   34.4886   50.6751 C   0  0  0  0  0  0  0  0  0  0  0  0
   76.7866   35.3679   51.3616 C   0  0  0  0  0  0  0  0  0  0  0  0
   77.7147   35.8636   50.5104 N   0  0  0  0  0  0  0  0  0  0  0  0
   77.5331   35.3432   49.2785 C   0  0  0  0  0  0  0  0  0  0  0  0
   78.1436   35.4797   48.0651 C   0  0  0  0  0  0  0  0  0  0  0  0
   77.6849   34.7867   46.9758 C   0  0  0  0  0  0  0  0  0  0  0  0
   76.5814   33.9187   47.0744 C   0  0  0  0  0  0  0  0  0  0  0  0
   75.9674   33.7793   48.2882 C   0  0  0  0  0  0  0  0  0  0  0  0
   76.4463   34.4887   49.3746 C   0  0  0  0  0  0  0  0  0  0  0  0
   76.5343   35.5871   52.6981 C   0  0  0  0  0  0  0  0  0  0  0  0
   77.3175   36.3981   53.2788 O   0  0  0  0  0  0  0  0  0  0  0  0
 15 16  1  0
 16  2  1  0
  2  3  2  0
  2  7  1  0
  3  4  1  0
  4  5  2  0
  5  6  1  0
  6  7  2  0
  6 14  1  0
  7  8  1  0
  8  9  1  0
 10  9  1  1
 10 11  1  0
 10 14  1  0
 11 12  1  0
 12  1  1  6
 12 13  1  0
  1 17  1  0
 17 18  1  0
 18 19  1  0
 18 31  1  0
 19 20  2  0
 19 21  1  0
 21 22  1  0
 22 23  2  0
 22 30  1  0
 23 24  1  0
 23 31  1  0
 24 25  1  0
 25 26  1  0
 25 30  2  0
 26 27  2  0
 27 28  1  0
 28 29  2  0
 29 30  1  0
 31 32  2  0
 14 13  1  1
M  CHG  1  12   1
M  END
>  <minimizedAffinity>  (608) 
-8.88683

$$$$
data/200k_reference_output/data/smiles/51421.pdb
     RDKit          3D

 24 25  0  0  0  0  0  0  0  0999 V2000
   66.6125   41.6951   55.2324 C   0  0  0  0  0  0  0  0  0  0  0  0
   67.1886   42.2025   56.4753 C   0  0  0  0  0  0  0  0  0  0  0  0
   67.8008   43.3330   56.4390 N   0  0  0  0  0  0  0  0  0  0  0  0
   67.8705   44.0031   55.1921 N   0  0  0  0  0  0  0  0  0  0  0  0
   68.2144   45.3473   55.0598 C   0  0  0  0  0  0  0  0  0  0  0  0
   68.4709   45.9734   56.1360 O   0  0  0  0  0  0  0  0  0  0  0  0
   68.2791   46.0104   53.7640 C   0  0  0  0  0  0  0  0  0  0  0  0
   67.6261   45.5786   52.6337 C   0  0  0  0  0  0  0  0  0  0  0  0
   67.6966   46.2167   51.4111 C   0  0  0  0  0  0  0  0  0  0  0  0
   68.4383   47.3182   51.3107 N   0  0  0  0  0  0  0  0  0  0  0  0
   69.1032   47.7956   52.3762 C   0  0  0  0  0  0  0  0  0  0  0  0
   69.0460   47.1736   53.6033 C   0  0  0  0  0  0  0  0  0  0  0  0
   67.0630   41.4130   57.7580 C   0  0  0  0  0  0  0  0  0  0  0  0
   68.1324   40.3506   57.7835 C   0  0  0  0  0  0  0  0  0  0  0  0
   67.9825   39.3421   57.0667 O   0  0  0  0  0  0  0  0  0  0  0  0
   69.2663   40.4816   58.5866 N   0  0  0  0  0  0  0  0  0  0  0  0
   70.3473   39.5828   58.7205 C   0  0  0  0  0  0  0  0  0  0  0  0
   70.2290   38.2488   58.9718 C   0  0  0  0  0  0  0  0  0  0  0  0
   71.3134   37.3943   59.0978 C   0  0  0  0  0  0  0  0  0  0  0  0
   71.1396   35.9438   59.3713 C   0  0  0  0  0  0  0  0  0  0  0  0
   72.5794   37.8977   58.9656 C   0  0  0  0  0  0  0  0  0  0  0  0
   72.7518   39.2400   58.7106 C   0  0  0  0  0  0  0  0  0  0  0  0
   71.6541   40.0562   58.5930 C   0  0  0  0  0  0  0  0  0  0  0  0
   71.8712   41.5134   58.3163 C   0  0  0  0  0  0  0  0  0  0  0  0
  1  2  1  0
  2 13  1  0
  2  3  2  0
 13 14  1  0
 14 15  2  0
 14 16  1  0
 16 17  1  0
 17 18  2  0
 17 23  1  0
 18 19  1  0
 19 20  1  0
 19 21  2  0
 21 22  1  0
 22 23  2  0
 23 24  1  0
  3  4  1  0
  4  5  1  0
  5  6  2  0
  5  7  1  0
  7  8  2  0
  7 12  1  0
  8  9  1  0
  9 10  2  0
 10 11  1  0
 11 12  2  0
M  END
>  <minimizedAffinity>  (609) 
-8.88061

$$$$
data/200k_reference_output/data/smiles/51459.pdb
     RDKit          3D

 24 26  0  0  0  0  0  0  0  0999 V2000
   68.6803   42.5090   57.2304 C   0  0  0  0  0  0  0  0  0  0  0  0
   69.8947   42.8230   57.3328 O   0  0  0  0  0  0  0  0  0  0  0  0
   67.8541   43.3883   56.4894 N   0  0  0  0  0  0  0  0  0  0  0  0
   67.1871   38.9929   59.1772 C   0  0  0  0  0  0  0  0  0  0  0  0
   66.8532   40.2540   59.6202 C   0  0  0  0  0  0  0  0  0  0  0  0
   67.3518   41.3586   58.9697 C   0  0  0  0  0  0  0  0  0  0  0  0
   68.1894   41.2775   57.8693 C   0  0  0  0  0  0  0  0  0  0  0  0
   68.5231   40.0205   57.4274 C   0  0  0  0  0  0  0  0  0  0  0  0
   68.0202   38.8994   58.0836 C   0  0  0  0  0  0  0  0  0  0  0  0
   66.6663   37.7602   59.8566 C   0  0  0  0  0  0  0  0  0  0  0  0
   64.5716   36.7662   60.7648 C   0  0  0  0  0  0  0  0  0  0  0  0
   65.1545   37.9380   60.0182 C   0  0  0  0  0  0  0  0  0  0  0  0
   68.3608   44.5587   55.8931 N   0  0  0  0  0  0  0  0  0  0  0  0
   67.9112   45.0526   54.8043 C   0  0  0  0  0  0  0  0  0  0  0  0
   68.4342   46.2654   54.1832 C   0  0  0  0  0  0  0  0  0  0  0  0
   68.4756   47.4602   54.8688 C   0  0  0  0  0  0  0  0  0  0  0  0
   68.9722   48.6218   54.2871 C   0  0  0  0  0  0  0  0  0  0  0  0
   69.4444   48.5987   52.9804 C   0  0  0  0  0  0  0  0  0  0  0  0
   69.4056   47.4057   52.2884 C   0  0  0  0  0  0  0  0  0  0  0  0
   68.9034   46.2469   52.8865 C   0  0  0  0  0  0  0  0  0  0  0  0
   69.9166   47.6819   51.0751 N   0  0  0  0  0  0  0  0  0  0  0  0
   70.2405   48.9393   51.0319 O   0  0  0  0  0  0  0  0  0  0  0  0
   69.9746   49.5300   52.1517 N   0  0  0  0  0  0  0  0  0  0  0  0
   70.1603   50.8452   52.5225 O   0  0  0  0  0  0  0  0  0  0  0  0
 11 12  1  0
 12 10  1  0
 10  4  1  0
  4  5  2  0
  4  9  1  0
  5  6  1  0
  6  7  2  0
  7  1  1  0
  7  8  1  0
  1  2  2  0
  1  3  1  0
  3 13  1  0
 13 14  2  0
 14 15  1  0
 15 16  1  0
 15 20  2  0
 16 17  2  0
 17 18  1  0
 18 19  1  0
 18 23  2  0
 19 20  1  0
 19 21  2  0
 21 22  1  0
 22 23  1  0
 23 24  1  0
  8  9  2  0
M  CHG  2  23   1  24  -1
M  END
>  <minimizedAffinity>  (610) 
-9.11568

$$$$
data/200k_reference_output/data/smiles/51467.pdb
     RDKit          3D

 29 33  0  0  0  0  0  0  0  0999 V2000
   70.1875   49.4262   57.3012 C   0  0  0  0  0  0  0  0  0  0  0  0
   69.3819   48.3328   57.4611 C   0  0  0  0  0  0  0  0  0  0  0  0
   68.9033   47.6004   56.3638 C   0  0  0  0  0  0  0  0  0  0  0  0
   69.2313   47.9612   55.0879 C   0  0  0  0  0  0  0  0  0  0  0  0
   70.0426   49.0637   54.9287 C   0  0  0  0  0  0  0  0  0  0  0  0
   70.5194   49.7940   56.0203 C   0  0  0  0  0  0  0  0  0  0  0  0
   70.3851   49.4437   53.6378 C   0  0  0  0  0  0  0  0  0  0  0  0
   71.1252   50.4495   53.4896 O   0  0  0  0  0  0  0  0  0  0  0  0
   69.9301   48.7451   52.5813 N   0  0  0  0  0  0  0  0  0  0  0  0
   69.1371   47.6684   52.7398 C   0  0  0  0  0  0  0  0  0  0  0  0
   68.6860   46.9723   51.6314 C   0  0  0  0  0  0  0  0  0  0  0  0
   67.8800   45.8739   51.7541 C   0  0  0  0  0  0  0  0  0  0  0  0
   67.5214   45.4712   53.0333 C   0  0  0  0  0  0  0  0  0  0  0  0
   67.9441   46.1308   54.1647 C   0  0  0  0  0  0  0  0  0  0  0  0
   68.7557   47.2341   54.0025 C   0  0  0  0  0  0  0  0  0  0  0  0
   70.6954   50.1982   58.4303 C   0  0  0  0  0  0  0  0  0  0  0  0
   71.9910   49.7127   58.9978 C   0  0  1  0  0  0  0  0  0  0  0  0
   72.1908   48.2864   58.8092 N   0  0  0  0  0  0  0  0  0  0  0  0
   72.2507   47.3680   59.8935 C   0  0  0  0  0  0  0  0  0  0  0  0
   72.1258   47.7987   61.0749 O   0  0  0  0  0  0  0  0  0  0  0  0
   72.4568   45.9306   59.6380 C   0  0  1  0  0  0  0  0  0  0  0  0
   71.5541   45.0911   60.4016 N   0  0  0  0  0  0  0  0  0  0  0  0
   71.1315   44.0724   59.4617 C   0  0  2  0  0  0  0  0  0  0  0  0
   72.3452   43.3116   59.0089 C   0  0  0  0  0  0  0  0  0  0  0  0
   73.0935   44.2223   58.0309 C   0  0  0  0  0  0  0  0  0  0  0  0
   72.3150   45.5283   58.2108 C   0  0  1  0  0  0  0  0  0  0  0  0
   70.8928   44.9418   58.2137 C   0  0  0  0  0  0  0  0  0  0  0  0
   74.0494   51.1016   58.1662 N   0  0  0  0  0  0  0  0  0  0  0  0
   73.1454   50.4862   58.5421 C   0  0  0  0  0  0  0  0  0  0  0  0
 28 29  3  0
 17 29  1  6
 17 16  1  0
 17 18  1  0
 16  1  1  0
  1  2  2  0
  1  6  1  0
  2  3  1  0
  3  4  2  0
  4  5  1  0
  4 15  1  0
  5  6  2  0
  5  7  1  0
  7  8  2  0
  7  9  1  0
  9 10  1  0
 10 11  1  0
 10 15  2  0
 11 12  2  0
 12 13  1  0
 13 14  2  0
 14 15  1  0
 18 19  1  0
 19 20  2  0
 21 19  1  6
 21 22  1  0
 21 26  1  0
 22 23  1  0
 23 24  1  6
 23 27  1  0
 24 25  1  0
 26 25  1  1
 26 27  1  0
M  CHG  1  22   1
M  END
>  <minimizedAffinity>  (611) 
-8.62069

$$$$
data/200k_reference_output/data/smiles/51605.pdb
     RDKit          3D

 31 34  0  0  0  0  0  0  0  0999 V2000
   69.6190   49.7253   57.4279 C   0  0  0  0  0  0  0  0  0  0  0  0
   70.5032   48.9445   57.8472 O   0  0  0  0  0  0  0  0  0  0  0  0
   69.8565   51.1183   57.5104 N   0  0  0  0  0  0  0  0  0  0  0  0
   71.1064   51.6228   58.0796 C   0  0  0  0  0  0  0  0  0  0  0  0
   71.5777   52.8314   57.3359 C   0  0  0  0  0  0  0  0  0  0  0  0
   71.0380   52.9203   55.9266 C   0  0  2  0  0  0  0  0  0  0  0  0
   69.5443   52.8890   55.8973 C   0  0  1  0  0  0  0  0  0  0  0  0
   69.2437   52.1623   54.6260 C   0  0  0  0  0  0  0  0  0  0  0  0
   70.4737   51.3827   54.3581 C   0  0  0  0  0  0  0  0  0  0  0  0
   70.8901   50.3628   53.5922 N   0  0  0  0  0  0  0  0  0  0  0  0
   72.1676   50.1960   53.8844 N   0  0  0  0  0  0  0  0  0  0  0  0
   72.5525   51.0786   54.8046 C   0  0  0  0  0  0  0  0  0  0  0  0
   71.5005   51.8193   55.1034 N   0  0  0  0  0  0  0  0  0  0  0  0
   68.9329   52.1339   57.0592 C   0  0  0  0  0  0  0  0  0  0  0  0
   73.9400   51.1447   55.3424 C   0  0  0  0  0  0  0  0  0  0  0  0
   74.7399   50.3068   54.5789 F   0  0  0  0  0  0  0  0  0  0  0  0
   74.4265   52.4245   55.4155 F   0  0  0  0  0  0  0  0  0  0  0  0
   73.9909   50.6282   56.6335 F   0  0  0  0  0  0  0  0  0  0  0  0
   68.3848   49.1278   56.8744 C   0  0  0  0  0  0  0  0  0  0  0  0
   69.1260   46.8591   57.3708 N   0  0  0  0  0  0  0  0  0  0  0  0
   68.6102   47.7149   56.3597 C   0  0  2  0  0  0  0  0  0  0  0  0
   69.3900   47.7942   55.0869 C   0  0  0  0  0  0  0  0  0  0  0  0
   68.7672   47.0834   53.9593 C   0  0  0  0  0  0  0  0  0  0  0  0
   68.0434   45.9311   54.1297 C   0  0  0  0  0  0  0  0  0  0  0  0
   67.4655   45.2769   53.0294 C   0  0  0  0  0  0  0  0  0  0  0  0
   66.7618   44.1483   53.2358 F   0  0  0  0  0  0  0  0  0  0  0  0
   67.6221   45.7903   51.7554 C   0  0  0  0  0  0  0  0  0  0  0  0
   67.0802   45.1880   50.6664 F   0  0  0  0  0  0  0  0  0  0  0  0
   68.3395   46.9313   51.5885 C   0  0  0  0  0  0  0  0  0  0  0  0
   68.9022   47.5656   52.6767 C   0  0  0  0  0  0  0  0  0  0  0  0
   69.5979   48.6849   52.4756 F   0  0  0  0  0  0  0  0  0  0  0  0
 21 20  1  1
 21 19  1  0
 21 22  1  0
 19  1  1  0
  1  2  2  0
  1  3  1  0
  3  4  1  0
  3 14  1  0
  4  5  1  0
  6  5  1  1
  6  7  1  0
  6 13  1  0
  7  8  1  6
  7 14  1  0
  8  9  1  0
  9 10  2  0
  9 13  1  0
 10 11  1  0
 11 12  2  0
 12 15  1  0
 12 13  1  0
 15 16  1  0
 15 17  1  0
 15 18  1  0
 22 23  1  0
 23 24  2  0
 23 30  1  0
 24 25  1  0
 25 26  1  0
 25 27  2  0
 27 28  1  0
 27 29  1  0
 29 30  2  0
 30 31  1  0
M  CHG  1  20   1
M  END
>  <minimizedAffinity>  (612) 
-8.81854

$$$$
data/200k_reference_output/data/smiles/51645.pdb
     RDKit          3D

 22 23  0  0  0  0  0  0  0  0999 V2000
   69.4525   45.6049   57.1153 C   0  0  0  0  0  0  0  0  0  0  0  0
   70.5524   46.6249   57.9373 S   0  0  0  0  0  0  0  0  0  0  0  0
   67.8265   43.2782   56.4451 O   0  0  0  0  0  0  0  0  0  0  0  0
   68.8626   43.1301   57.1251 C   0  0  0  0  0  0  0  0  0  0  0  0
   69.6216   44.2705   57.4291 N   0  0  0  0  0  0  0  0  0  0  0  0
   69.2196   41.7624   57.5651 C   0  0  0  0  0  0  0  0  0  0  0  0
   68.2547   40.7916   57.4415 C   0  0  0  0  0  0  0  0  0  0  0  0
   68.4751   39.4640   57.8234 C   0  0  0  0  0  0  0  0  0  0  0  0
   69.7163   39.1821   58.3305 C   0  0  0  0  0  0  0  0  0  0  0  0
   70.6868   40.1367   58.4604 C   0  0  0  0  0  0  0  0  0  0  0  0
   70.4315   41.4507   58.0690 C   0  0  0  0  0  0  0  0  0  0  0  0
   68.6056   46.2930   56.2995 N   0  0  0  0  0  0  0  0  0  0  0  0
   68.5768   46.4076   54.8989 C   0  0  0  0  0  0  0  0  0  0  0  0
   67.7991   45.5495   54.1216 C   0  0  0  0  0  0  0  0  0  0  0  0
   67.7604   45.7277   52.7541 C   0  0  0  0  0  0  0  0  0  0  0  0
   68.4719   46.7338   52.1359 C   0  0  0  0  0  0  0  0  0  0  0  0
   68.4016   46.8697   50.7767 O   0  0  0  0  0  0  0  0  0  0  0  0
   69.2421   47.5868   52.8821 C   0  0  0  0  0  0  0  0  0  0  0  0
   69.2811   47.4089   54.2460 C   0  0  0  0  0  0  0  0  0  0  0  0
   70.0172   48.6713   52.2767 C   0  0  0  0  0  0  0  0  0  0  0  0
   69.5641   49.2920   51.2894 O   0  0  0  0  0  0  0  0  0  0  0  0
   71.2539   49.0105   52.7972 O   0  0  0  0  0  0  0  0  0  0  0  0
  3  4  2  0
  4  5  1  0
  4  6  1  0
  5  1  1  0
  1  2  2  0
  1 12  1  0
 12 13  1  0
 13 14  2  0
 13 19  1  0
 14 15  1  0
 15 16  2  0
 16 17  1  0
 16 18  1  0
 18 20  1  0
 18 19  2  0
 20 21  2  0
 20 22  1  0
  6  7  2  0
  6 11  1  0
  7  8  1  0
  8  9  2  0
  9 10  1  0
 10 11  2  0
M  END
>  <minimizedAffinity>  (613) 
-8.72572

$$$$
data/200k_reference_output/data/smiles/51887.pdb
     RDKit          3D

 27 30  0  0  0  0  0  0  0  0999 V2000
   68.9599   44.6275   56.3366 C   0  0  0  0  0  0  0  0  0  0  0  0
   69.8933   44.0712   57.1717 C   0  0  0  0  0  0  0  0  0  0  0  0
   69.5157   42.7561   57.3516 C   0  0  0  0  0  0  0  0  0  0  0  0
   68.3995   42.5374   56.6514 N   0  0  0  0  0  0  0  0  0  0  0  0
   68.0696   43.6862   56.0362 N   0  0  0  0  0  0  0  0  0  0  0  0
   67.7084   41.2672   56.5987 C   0  0  0  0  0  0  0  0  0  0  0  0
   68.3270   40.2028   57.3869 C   0  0  0  0  0  0  0  0  0  0  0  0
   67.7578   39.0530   57.3798 O   0  0  0  0  0  0  0  0  0  0  0  0
   69.5057   40.3643   58.1505 N   0  0  0  0  0  0  0  0  0  0  0  0
   70.0965   41.6516   58.1269 C   0  0  0  0  0  0  0  0  0  0  0  0
   71.1348   41.8662   58.7759 O   0  0  0  0  0  0  0  0  0  0  0  0
   68.8635   48.6635   54.8871 C   0  0  0  0  0  0  0  0  0  0  0  0
   68.5180   47.6084   54.0729 C   0  0  0  0  0  0  0  0  0  0  0  0
   68.5520   46.2933   54.5533 C   0  0  0  0  0  0  0  0  0  0  0  0
   68.9298   46.0229   55.8474 C   0  0  0  0  0  0  0  0  0  0  0  0
   69.2735   47.0815   56.6561 C   0  0  0  0  0  0  0  0  0  0  0  0
   69.2400   48.3838   56.1824 C   0  0  0  0  0  0  0  0  0  0  0  0
   69.6469   50.3340   53.3140 C   0  0  0  0  0  0  0  0  0  0  0  0
   68.8257   49.9702   54.3989 O   0  0  0  0  0  0  0  0  0  0  0  0
   70.0669   39.2647   58.9092 C   0  0  0  0  0  0  0  0  0  0  0  0
   71.3640   38.7714   58.3282 C   0  0  0  0  0  0  0  0  0  0  0  0
   71.5525   37.3133   58.4673 C   0  0  0  0  0  0  0  0  0  0  0  0
   70.9627   36.5845   59.4687 C   0  0  0  0  0  0  0  0  0  0  0  0
   71.1450   35.2261   59.5898 C   0  0  0  0  0  0  0  0  0  0  0  0
   71.9412   34.5799   58.6820 C   0  0  0  0  0  0  0  0  0  0  0  0
   72.5358   35.3042   57.6743 C   0  0  0  0  0  0  0  0  0  0  0  0
   72.3516   36.6623   57.5563 C   0  0  0  0  0  0  0  0  0  0  0  0
 18 19  1  0
 19 12  1  0
 12 13  2  0
 12 17  1  0
 13 14  1  0
 14 15  2  0
 15  1  1  0
 15 16  1  0
  1  2  1  0
  1  5  2  0
  2  3  2  0
  3  4  1  0
  3 10  1  0
  4  5  1  0
  4  6  1  0
  6  7  1  0
  7  8  2  0
  7  9  1  0
  9 20  1  0
  9 10  1  0
 20 21  1  0
 21 22  1  0
 22 23  2  0
 22 27  1  0
 23 24  1  0
 24 25  2  0
 25 26  1  0
 26 27  2  0
 10 11  2  0
 16 17  2  0
M  END
>  <minimizedAffinity>  (614) 
-8.63745

$$$$
data/200k_reference_output/data/smiles/51949.pdb
     RDKit          3D

 26 29  0  0  0  0  0  0  0  0999 V2000
   71.0462   46.8116   58.6982 C   0  0  0  0  0  0  0  0  0  0  0  0
   70.6866   48.0343   58.1657 C   0  0  0  0  0  0  0  0  0  0  0  0
   69.8503   48.1392   57.0566 C   0  0  0  0  0  0  0  0  0  0  0  0
   69.3427   47.0271   56.4362 C   0  0  0  0  0  0  0  0  0  0  0  0
   69.7048   45.7877   56.9736 C   0  0  0  0  0  0  0  0  0  0  0  0
   70.5337   45.6933   58.0731 C   0  0  0  0  0  0  0  0  0  0  0  0
   74.6323   45.8631   63.4680 C   0  0  0  0  0  0  0  0  0  0  0  0
   74.5141   47.2540   63.5631 C   0  0  0  0  0  0  0  0  0  0  0  0
   73.7645   47.9633   62.6555 C   0  0  0  0  0  0  0  0  0  0  0  0
   73.0977   47.3524   61.6158 C   0  0  0  0  0  0  0  0  0  0  0  0
   72.3124   47.7734   60.6114 N   0  0  0  0  0  0  0  0  0  0  0  0
   71.9153   46.7090   59.8675 C   0  0  0  0  0  0  0  0  0  0  0  0
   72.4751   45.6426   60.4425 N   0  0  0  0  0  0  0  0  0  0  0  0
   73.2163   45.9736   61.5243 C   0  0  0  0  0  0  0  0  0  0  0  0
   73.9671   45.2512   62.4321 C   0  0  0  0  0  0  0  0  0  0  0  0
   76.1778   45.8384   65.3961 N   0  0  0  0  0  0  0  0  0  0  0  0
   75.4245   45.1382   64.4411 C   0  0  0  0  0  0  0  0  0  0  0  0
   75.4326   43.8936   64.4238 O   0  0  0  0  0  0  0  0  0  0  0  0
   68.4488   47.0974   55.2880 C   0  0  0  0  0  0  0  0  0  0  0  0
   67.1764   46.9674   55.4714 O   0  0  0  0  0  0  0  0  0  0  0  0
   68.8872   47.3052   53.9397 C   0  0  0  0  0  0  0  0  0  0  0  0
   69.7485   48.3164   53.5753 C   0  0  0  0  0  0  0  0  0  0  0  0
   70.1276   48.4206   52.2403 C   0  0  0  0  0  0  0  0  0  0  0  0
   69.6843   47.5726   51.2979 N   0  0  0  0  0  0  0  0  0  0  0  0
   68.8337   46.5732   51.6493 C   0  0  0  0  0  0  0  0  0  0  0  0
   68.4259   46.4224   52.9523 C   0  0  0  0  0  0  0  0  0  0  0  0
 16 17  1  0
 17 18  2  0
 17  7  1  0
  7  8  2  0
  7 15  1  0
  8  9  1  0
  9 10  2  0
 10 11  1  0
 10 14  1  0
 11 12  1  0
 12  1  1  0
 12 13  2  0
  1  2  2  0
  1  6  1  0
  2  3  1  0
  3  4  2  0
  4 19  1  0
  4  5  1  0
 19 20  2  0
 19 21  1  0
 21 22  2  0
 21 26  1  0
 22 23  1  0
 23 24  2  0
 24 25  1  0
 25 26  2  0
  5  6  2  0
 13 14  1  0
 14 15  2  0
M  CHG  1  13   1
M  END
>  <minimizedAffinity>  (615) 
-8.53297

$$$$
data/200k_reference_output/data/smiles/52018.pdb
     RDKit          3D

 21 22  0  0  0  0  0  0  0  0999 V2000
   69.0860   45.8567   56.6348 C   0  0  0  0  0  0  0  0  0  0  0  0
   69.9848   46.3873   57.5268 C   0  0  0  0  0  0  0  0  0  0  0  0
   70.7561   45.5111   58.2806 C   0  0  0  0  0  0  0  0  0  0  0  0
   71.9044   46.2243   59.4195 Cl  0  0  0  0  0  0  0  0  0  0  0  0
   70.6273   44.1795   58.1417 N   0  0  0  0  0  0  0  0  0  0  0  0
   69.7403   43.6694   57.2619 C   0  0  0  0  0  0  0  0  0  0  0  0
   68.9988   44.5184   56.5373 N   0  0  0  0  0  0  0  0  0  0  0  0
   68.2668   46.7179   55.8175 N   0  0  0  0  0  0  0  0  0  0  0  0
   69.9264   48.8830   51.8106 C   0  0  0  0  0  0  0  0  0  0  0  0
   69.1510   47.7709   52.4315 C   0  0  0  0  0  0  0  0  0  0  0  0
   68.5520   46.7950   51.6434 C   0  0  0  0  0  0  0  0  0  0  0  0
   67.8382   45.7728   52.2363 C   0  0  0  0  0  0  0  0  0  0  0  0
   67.7455   45.7607   53.6129 C   0  0  0  0  0  0  0  0  0  0  0  0
   68.3441   46.7361   54.4125 C   0  0  0  0  0  0  0  0  0  0  0  0
   69.0540   47.7498   53.8087 C   0  0  0  0  0  0  0  0  0  0  0  0
   69.7185   48.7908   54.5930 C   0  0  0  0  0  0  0  0  0  0  0  0
   69.6176   42.2774   57.1296 O   0  0  0  0  0  0  0  0  0  0  0  0
   68.4305   41.5937   57.3700 C   0  0  0  0  0  0  0  0  0  0  0  0
   67.5736   41.3923   56.2018 C   0  0  0  0  0  0  0  0  0  0  0  0
   66.7389   42.2687   55.8765 O   0  0  0  0  0  0  0  0  0  0  0  0
   67.6438   40.2513   55.4195 O   0  0  0  0  0  0  0  0  0  0  0  0
  9 10  1  0
 10 11  2  0
 10 15  1  0
 11 12  1  0
 12 13  2  0
 13 14  1  0
 14  8  1  0
 14 15  2  0
  8  1  1  0
  1  2  2  0
  1  7  1  0
  2  3  1  0
  3  4  1  0
  3  5  2  0
  5  6  1  0
  6 17  1  0
  6  7  2  0
 17 18  1  0
 18 19  1  0
 19 20  2  0
 19 21  1  0
 15 16  1  0
M  END
>  <minimizedAffinity>  (616) 
-8.62243

$$$$
data/200k_reference_output/data/smiles/52131.pdb
     RDKit          3D

 29 33  0  0  0  0  0  0  0  0999 V2000
   71.4243   46.7654   58.7428 C   0  0  0  0  0  0  0  0  0  0  0  0
   70.4847   47.4813   58.0280 C   0  0  0  0  0  0  0  0  0  0  0  0
   69.5579   46.9203   57.1990 C   0  0  0  0  0  0  0  0  0  0  0  0
   69.6074   45.5193   57.1028 C   0  0  0  0  0  0  0  0  0  0  0  0
   70.5265   44.7669   57.7974 C   0  0  0  0  0  0  0  0  0  0  0  0
   71.4394   45.3962   58.6217 C   0  0  0  0  0  0  0  0  0  0  0  0
   72.3387   44.6353   59.2988 F   0  0  0  0  0  0  0  0  0  0  0  0
   71.9802   47.7829   60.7430 O   0  0  0  0  0  0  0  0  0  0  0  0
   72.3816   47.4428   59.6074 C   0  0  0  0  0  0  0  0  0  0  0  0
   73.7081   47.7242   59.2268 N   0  0  0  0  0  0  0  0  0  0  0  0
   74.3866   47.4254   57.9698 C   0  0  0  0  0  0  0  0  0  0  0  0
   75.2035   48.6908   57.7044 C   0  0  0  0  0  0  0  0  0  0  0  0
   75.2462   49.4019   59.0277 C   0  0  0  0  0  0  0  0  0  0  0  0
   76.5165   50.0801   59.3956 C   0  0  0  0  0  0  0  0  0  0  0  0
   75.8844   51.3623   59.1563 N   0  0  0  0  0  0  0  0  0  0  0  0
   74.5904   50.7421   59.0728 C   0  0  0  0  0  0  0  0  0  0  0  0
   74.7203   48.3922   60.0233 C   0  0  0  0  0  0  0  0  0  0  0  0
   68.5253   47.6545   56.4280 C   0  0  0  0  0  0  0  0  0  0  0  0
   69.0704   47.9763   55.1144 C   0  0  0  0  0  0  0  0  0  0  0  0
   70.0242   48.9559   55.0642 N   0  0  0  0  0  0  0  0  0  0  0  0
   70.5940   49.2568   53.9209 N   0  0  0  0  0  0  0  0  0  0  0  0
   70.2776   48.6346   52.7784 C   0  0  0  0  0  0  0  0  0  0  0  0
   70.8388   48.9396   51.6978 O   0  0  0  0  0  0  0  0  0  0  0  0
   69.3205   47.6323   52.7532 C   0  0  0  0  0  0  0  0  0  0  0  0
   68.9837   47.0002   51.5776 C   0  0  0  0  0  0  0  0  0  0  0  0
   68.0137   46.0256   51.6253 C   0  0  0  0  0  0  0  0  0  0  0  0
   67.4106   45.7098   52.8221 C   0  0  0  0  0  0  0  0  0  0  0  0
   67.7489   46.3413   53.9929 C   0  0  0  0  0  0  0  0  0  0  0  0
   68.7137   47.3147   53.9794 C   0  0  0  0  0  0  0  0  0  0  0  0
  8  9  2  0
  9  1  1  0
  9 10  1  0
  1  2  2  0
  1  6  1  0
  2  3  1  0
  3 18  1  0
  3  4  2  0
 18 19  1  0
 19 20  2  0
 19 29  1  0
 20 21  1  0
 21 22  1  0
 22 23  2  0
 22 24  1  0
 24 25  1  0
 24 29  2  0
 25 26  2  0
 26 27  1  0
 27 28  2  0
 28 29  1  0
  4  5  1  0
  5  6  2  0
  6  7  1  0
 10 11  1  0
 10 17  1  0
 11 12  1  0
 12 13  1  0
 13 14  1  0
 13 16  1  0
 13 17  1  0
 14 15  1  0
 15 16  1  0
M  CHG  1  15   1
M  END
>  <minimizedAffinity>  (617) 
-9.06453

$$$$
data/200k_reference_output/data/smiles/52135.pdb
     RDKit          3D

 31 35  0  0  0  0  0  0  0  0999 V2000
   71.1028   50.0781   56.2396 C   0  0  0  0  0  0  0  0  0  0  0  0
   70.8953   50.2063   54.9121 C   0  0  0  0  0  0  0  0  0  0  0  0
   70.1141   49.3321   54.1728 C   0  0  0  0  0  0  0  0  0  0  0  0
   69.5425   48.2961   54.8618 C   0  0  0  0  0  0  0  0  0  0  0  0
   69.7252   48.1346   56.2321 C   0  0  0  0  0  0  0  0  0  0  0  0
   70.5160   49.0465   56.9570 C   0  0  0  0  0  0  0  0  0  0  0  0
   69.2590   46.9985   56.8547 C   0  0  0  0  0  0  0  0  0  0  0  0
   69.3976   46.7887   58.0974 O   0  0  0  0  0  0  0  0  0  0  0  0
   68.6085   46.0126   56.1493 N   0  0  0  0  0  0  0  0  0  0  0  0
   68.4099   46.1280   54.8487 C   0  0  0  0  0  0  0  0  0  0  0  0
   67.7787   45.1278   54.1209 C   0  0  0  0  0  0  0  0  0  0  0  0
   67.3755   43.9747   54.7557 F   0  0  0  0  0  0  0  0  0  0  0  0
   67.5711   45.2033   52.7752 C   0  0  0  0  0  0  0  0  0  0  0  0
   68.0284   46.3471   52.1371 C   0  0  0  0  0  0  0  0  0  0  0  0
   67.8219   46.4697   50.8097 F   0  0  0  0  0  0  0  0  0  0  0  0
   68.6724   47.3783   52.8317 C   0  0  0  0  0  0  0  0  0  0  0  0
   68.8720   47.2783   54.1716 C   0  0  0  0  0  0  0  0  0  0  0  0
   72.1689   50.9536   56.8967 C   0  0  0  0  0  0  0  0  0  0  0  0
   73.1985   51.4014   55.8786 C   0  0  2  0  0  0  0  0  0  0  0  0
   74.4463   50.8658   56.3409 N   0  0  0  0  0  0  0  0  0  0  0  0
   75.4047   50.0454   55.7752 C   0  0  0  0  0  0  0  0  0  0  0  0
   75.2781   49.5740   54.6064 O   0  0  0  0  0  0  0  0  0  0  0  0
   76.6346   49.6972   56.5798 C   0  0  1  0  0  0  0  0  0  0  0  0
   77.2947   50.8121   57.1632 N   0  0  0  0  0  0  0  0  0  0  0  0
   77.2929   50.5930   58.5700 C   0  0  2  0  0  0  0  0  0  0  0  0
   78.1847   49.4333   58.9049 C   0  0  0  0  0  0  0  0  0  0  0  0
   77.5222   48.2117   58.2950 C   0  0  0  0  0  0  0  0  0  0  0  0
   76.2202   48.7860   57.7405 C   0  0  1  0  0  0  0  0  0  0  0  0
   75.9270   49.8907   58.7655 C   0  0  0  0  0  0  0  0  0  0  0  0
   73.4999   54.0775   55.9149 N   0  0  0  0  0  0  0  0  0  0  0  0
   73.3552   52.8592   55.9070 C   0  0  0  0  0  0  0  0  0  0  0  0
 30 31  3  0
 19 31  1  1
 19 18  1  0
 19 20  1  0
 18  1  1  0
  1  2  2  0
  1  6  1  0
  2  3  1  0
  3  4  2  0
  4  5  1  0
  4 17  1  0
  5  6  2  0
  5  7  1  0
  7  8  2  0
  7  9  1  0
  9 10  1  0
 10 11  1  0
 10 17  2  0
 11 12  1  0
 11 13  2  0
 13 14  1  0
 14 15  1  0
 14 16  2  0
 16 17  1  0
 20 21  1  0
 21 22  2  0
 23 21  1  1
 23 24  1  0
 23 28  1  0
 24 25  1  0
 25 26  1  6
 25 29  1  0
 26 27  1  0
 28 27  1  1
 28 29  1  0
M  CHG  1  24   1
M  END
>  <minimizedAffinity>  (618) 
-9.35492

$$$$
data/200k_reference_output/data/smiles/52146.pdb
     RDKit          3D

 25 28  0  0  0  0  0  0  0  0999 V2000
   67.6863   43.6351   55.4022 N   0  0  0  0  0  0  0  0  0  0  0  0
   68.3169   43.0087   56.4714 C   0  0  0  0  0  0  0  0  0  0  0  0
   69.2402   43.5359   57.0930 O   0  0  0  0  0  0  0  0  0  0  0  0
   67.9333   41.6910   56.9319 N   0  0  0  0  0  0  0  0  0  0  0  0
   68.5441   41.0088   58.0207 C   0  0  1  0  0  0  0  0  0  0  0  0
   67.9884   41.4955   59.3422 C   0  0  0  0  0  0  0  0  0  0  0  0
   68.4885   40.6216   60.4744 C   0  0  2  0  0  0  0  0  0  0  0  0
   69.9815   40.7890   60.5453 C   0  0  0  0  0  0  0  0  0  0  0  0
   70.5720   40.3359   59.2173 C   0  0  1  0  0  0  0  0  0  0  0  0
   70.2833   38.8723   59.0782 C   0  0  0  0  0  0  0  0  0  0  0  0
   68.7779   38.7064   59.0140 C   0  0  1  0  0  0  0  0  0  0  0  0
   68.1014   39.1902   60.2773 C   0  0  0  0  0  0  0  0  0  0  0  0
   68.2728   39.5226   57.8732 C   0  0  0  0  0  0  0  0  0  0  0  0
   70.0468   41.1607   58.0665 C   0  0  0  0  0  0  0  0  0  0  0  0
   68.5529   47.4383   53.6759 C   0  0  0  0  0  0  0  0  0  0  0  0
   67.9601   46.4187   52.9669 C   0  0  0  0  0  0  0  0  0  0  0  0
   67.6959   45.2054   53.5549 C   0  0  0  0  0  0  0  0  0  0  0  0
   68.0002   44.9156   54.8930 C   0  0  0  0  0  0  0  0  0  0  0  0
   68.5893   45.9386   55.5870 C   0  0  0  0  0  0  0  0  0  0  0  0
   68.8586   47.1696   54.9898 C   0  0  0  0  0  0  0  0  0  0  0  0
   68.8335   48.6778   53.1045 O   0  0  0  0  0  0  0  0  0  0  0  0
   69.7369   49.9923   50.8474 N   0  0  0  0  0  0  0  0  0  0  0  0
   70.1331   48.7333   51.9901 S   0  0  0  0  0  0  0  0  0  0  0  0
   71.4258   49.0003   52.6649 O   0  0  0  0  0  0  0  0  0  0  0  0
   70.1423   47.4400   51.2170 O   0  0  0  0  0  0  0  0  0  0  0  0
 22 23  1  0
 23 24  2  0
 23 25  2  0
 23 21  1  0
 21 15  1  0
 15 16  2  0
 15 20  1  0
 16 17  1  0
 17 18  2  0
 18  1  1  0
 18 19  1  0
  1  2  1  0
  2  3  2  0
  2  4  1  0
  5  4  1  6
  5  6  1  0
  5 13  1  0
  5 14  1  0
  7  6  1  6
  7  8  1  0
  7 12  1  0
  9  8  1  1
  9 10  1  0
  9 14  1  0
 11 10  1  1
 11 12  1  0
 11 13  1  0
 19 20  2  0
M  END
>  <minimizedAffinity>  (619) 
-8.78531

$$$$
data/200k_reference_output/data/smiles/52279.pdb
     RDKit          3D

 27 30  0  0  0  0  0  0  0  0999 V2000
   70.5986   41.0547   58.6095 C   0  0  0  0  0  0  0  0  0  0  0  0
   71.3037   42.2389   58.2768 C   0  0  0  0  0  0  0  0  0  0  0  0
   70.7997   43.3905   57.6847 C   0  0  0  0  0  0  0  0  0  0  0  0
   69.3967   43.2411   57.4169 C   0  0  0  0  0  0  0  0  0  0  0  0
   68.6514   42.2679   57.6669 C   0  0  0  0  0  0  0  0  0  0  0  0
   69.0829   41.1090   58.2631 C   0  0  0  0  0  0  0  0  0  0  0  0
   69.0637   44.3366   56.4693 N   0  0  0  0  0  0  0  0  0  0  0  0
   68.1443   44.4255   55.4775 C   0  0  0  0  0  0  0  0  0  0  0  0
   67.2850   43.5275   55.2264 O   0  0  0  0  0  0  0  0  0  0  0  0
   68.2256   45.6843   54.6421 C   0  0  0  0  0  0  0  0  0  0  0  0
   67.9718   45.5462   53.2729 C   0  0  0  0  0  0  0  0  0  0  0  0
   68.3535   46.6200   52.4763 C   0  0  0  0  0  0  0  0  0  0  0  0
   68.9147   47.7434   52.8824 C   0  0  0  0  0  0  0  0  0  0  0  0
   69.1741   47.8623   54.3435 C   0  0  0  0  0  0  0  0  0  0  0  0
   68.8129   46.8227   55.1273 C   0  0  0  0  0  0  0  0  0  0  0  0
   71.4946   38.5722   58.2749 C   0  0  0  0  0  0  0  0  0  0  0  0
   70.9868   40.0000   58.4758 C   0  0  0  0  0  0  0  0  0  0  0  0
   69.7465   32.9400   61.6258 N   0  0  0  0  0  0  0  0  0  0  0  0
   70.5743   33.6087   60.7056 C   0  0  0  0  0  0  0  0  0  0  0  0
   70.3599   34.9548   60.6505 C   0  0  0  0  0  0  0  0  0  0  0  0
   70.9772   35.6733   59.6580 N   0  0  0  0  0  0  0  0  0  0  0  0
   70.9978   36.8011   59.3587 N   0  0  0  0  0  0  0  0  0  0  0  0
   71.8923   37.4077   58.0964 C   0  0  0  0  0  0  0  0  0  0  0  0
   72.4838   36.4009   57.5814 C   0  0  0  0  0  0  0  0  0  0  0  0
   72.3745   35.1144   58.0127 C   0  0  0  0  0  0  0  0  0  0  0  0
   71.7149   34.5429   58.9807 C   0  0  0  0  0  0  0  0  0  0  0  0
   71.3804   33.4726   59.7137 N   0  0  0  0  0  0  0  0  0  0  0  0
 18 19  1  0
 19 20  2  0
 19 27  1  0
 20 21  1  0
 21 22  1  0
 21 26  1  0
 22 23  2  0
 23 16  1  0
 23 24  1  0
 16 17  3  0
 17  1  1  0
  1  2  2  0
  1  6  1  0
  2  3  1  0
  3  4  2  0
  4  7  1  0
  4  5  1  0
  7  8  1  0
  8  9  2  0
  8 10  1  0
 10 11  2  0
 10 15  1  0
 11 12  1  0
 12 13  2  0
 13 14  1  0
 14 15  2  0
  5  6  2  0
 24 25  2  0
 25 26  1  0
 26 27  2  0
M  END
>  <minimizedAffinity>  (620) 
-8.92818

$$$$
data/200k_reference_output/data/smiles/52359.pdb
     RDKit          3D

 25 27  0  0  0  0  0  0  0  0999 V2000
   70.7194   43.8873   58.0797 O   0  0  0  0  0  0  0  0  0  0  0  0
   69.6762   43.8303   57.3768 C   0  0  0  0  0  0  0  0  0  0  0  0
   69.1492   45.0416   56.8694 N   0  0  0  0  0  0  0  0  0  0  0  0
   69.0595   42.5504   57.1141 C   0  0  0  0  0  0  0  0  0  0  0  0
   68.0634   42.3577   56.1962 C   0  0  0  0  0  0  0  0  0  0  0  0
   67.5306   41.0786   56.0151 C   0  0  0  0  0  0  0  0  0  0  0  0
   66.5466   40.9090   55.1024 F   0  0  0  0  0  0  0  0  0  0  0  0
   67.9907   40.0057   56.7458 C   0  0  0  0  0  0  0  0  0  0  0  0
   69.0044   40.1852   57.6856 C   0  0  0  0  0  0  0  0  0  0  0  0
   69.4989   41.4593   57.8304 C   0  0  0  0  0  0  0  0  0  0  0  0
   69.5073   39.0633   58.4711 C   0  0  0  0  0  0  0  0  0  0  0  0
   68.9758   38.6871   59.6964 C   0  0  0  0  0  0  0  0  0  0  0  0
   69.6771   37.5967   60.1690 C   0  0  0  0  0  0  0  0  0  0  0  0
   70.6221   37.3449   59.2008 C   0  0  0  0  0  0  0  0  0  0  0  0
   70.4686   38.2372   58.2377 O   0  0  0  0  0  0  0  0  0  0  0  0
   69.7696   46.2902   57.1380 N   0  0  0  0  0  0  0  0  0  0  0  0
   68.9223   47.5374   56.3113 S   0  0  0  0  0  0  0  0  0  0  0  0
   69.5715   48.8560   56.6195 O   0  0  0  0  0  0  0  0  0  0  0  0
   67.5185   47.6093   56.8566 O   0  0  0  0  0  0  0  0  0  0  0  0
   68.8172   47.2644   54.6058 C   0  0  0  0  0  0  0  0  0  0  0  0
   68.0651   46.2029   54.1475 C   0  0  0  0  0  0  0  0  0  0  0  0
   67.9552   45.9507   52.7911 C   0  0  0  0  0  0  0  0  0  0  0  0
   68.6075   46.7714   51.8723 C   0  0  0  0  0  0  0  0  0  0  0  0
   69.3571   47.8327   52.3536 C   0  0  0  0  0  0  0  0  0  0  0  0
   69.4705   48.0884   53.6973 C   0  0  0  0  0  0  0  0  0  0  0  0
  1  2  2  0
  2  3  1  0
  2  4  1  0
  3 16  1  0
 16 17  1  0
 17 18  2  0
 17 19  2  0
 17 20  1  0
 20 21  2  0
 20 25  1  0
 21 22  1  0
 22 23  2  0
 23 24  1  0
 24 25  2  0
  4  5  2  0
  4 10  1  0
  5  6  1  0
  6  7  1  0
  6  8  2  0
  8  9  1  0
  9 11  1  0
  9 10  2  0
 11 12  2  0
 11 15  1  0
 12 13  1  0
 13 14  2  0
 14 15  1  0
M  END
>  <minimizedAffinity>  (621) 
-8.50392

$$$$
data/200k_reference_output/data/smiles/52362.pdb
     RDKit          3D

 28 31  0  0  0  0  0  0  0  0999 V2000
   71.7474   50.5466   56.1196 C   0  0  0  0  0  0  0  0  0  0  0  0
   71.7452   49.5743   57.0884 C   0  0  0  0  0  0  0  0  0  0  0  0
   70.8391   48.5254   57.1133 C   0  0  0  0  0  0  0  0  0  0  0  0
   69.9017   48.4699   56.1109 C   0  0  0  0  0  0  0  0  0  0  0  0
   69.9040   49.4434   55.1402 C   0  0  0  0  0  0  0  0  0  0  0  0
   70.8057   50.4805   55.1228 C   0  0  0  0  0  0  0  0  0  0  0  0
   68.7231   47.1565   56.0974 S   0  0  0  0  0  0  0  0  0  0  0  0
   69.3583   45.9939   56.7817 O   0  0  0  0  0  0  0  0  0  0  0  0
   67.4420   47.5559   56.7450 O   0  0  0  0  0  0  0  0  0  0  0  0
   68.4747   46.7378   54.4172 C   0  0  0  0  0  0  0  0  0  0  0  0
   68.9894   47.4787   53.3731 C   0  0  0  0  0  0  0  0  0  0  0  0
   68.7761   47.1197   52.0558 C   0  0  0  0  0  0  0  0  0  0  0  0
   68.0321   45.9957   51.7638 C   0  0  0  0  0  0  0  0  0  0  0  0
   67.5207   45.2579   52.7939 C   0  0  0  0  0  0  0  0  0  0  0  0
   67.7373   45.6226   54.1069 C   0  0  0  0  0  0  0  0  0  0  0  0
   72.7093   51.6434   56.1175 C   0  0  0  0  0  0  0  0  0  0  0  0
   74.3755   50.1895   54.3076 O   0  0  0  0  0  0  0  0  0  0  0  0
   74.8849   50.5506   55.3992 C   0  0  0  0  0  0  0  0  0  0  0  0
   74.0745   51.2667   56.2937 N   0  0  0  0  0  0  0  0  0  0  0  0
   76.2835   50.2099   55.6753 C   0  0  0  0  0  0  0  0  0  0  0  0
   76.9676   50.7167   56.7169 N   0  0  0  0  0  0  0  0  0  0  0  0
   78.2298   50.2100   56.6997 C   0  0  0  0  0  0  0  0  0  0  0  0
   79.3511   50.3482   57.4751 C   0  0  0  0  0  0  0  0  0  0  0  0
   80.4891   49.6916   57.1907 N   0  0  0  0  0  0  0  0  0  0  0  0
   80.5815   48.8688   56.1323 C   0  0  0  0  0  0  0  0  0  0  0  0
   79.4876   48.6892   55.3150 C   0  0  0  0  0  0  0  0  0  0  0  0
   78.3216   49.3623   55.6078 C   0  0  0  0  0  0  0  0  0  0  0  0
   77.0998   49.4010   55.0182 N   0  0  0  0  0  0  0  0  0  0  0  0
 17 18  2  0
 18 19  1  0
 18 20  1  0
 19 16  1  0
 16  1  1  0
  1  2  2  0
  1  6  1  0
  2  3  1  0
  3  4  2  0
  4  7  1  0
  4  5  1  0
  7  8  2  0
  7  9  2  0
  7 10  1  0
 10 11  2  0
 10 15  1  0
 11 12  1  0
 12 13  2  0
 13 14  1  0
 14 15  2  0
  5  6  2  0
 20 21  2  0
 20 28  1  0
 21 22  1  0
 22 23  2  0
 22 27  1  0
 23 24  1  0
 24 25  2  0
 25 26  1  0
 26 27  2  0
 27 28  1  0
M  CHG  1  21   1
M  END
>  <minimizedAffinity>  (622) 
-9.14202

$$$$
data/200k_reference_output/data/smiles/52630.pdb
     RDKit          3D

 31 33  0  0  0  0  0  0  0  0999 V2000
   71.0918   47.5315   58.0309 C   0  0  0  0  0  0  0  0  0  0  0  0
   71.8472   48.5057   57.7967 O   0  0  0  0  0  0  0  0  0  0  0  0
   69.9677   47.3464   57.2079 N   0  0  0  0  0  0  0  0  0  0  0  0
   70.9558   43.0369   57.6157 N   0  0  0  0  0  0  0  0  0  0  0  0
   72.2510   42.4368   57.4378 C   0  0  0  0  0  0  0  0  0  0  0  0
   70.7527   44.3159   58.1456 C   0  0  0  0  0  0  0  0  0  0  0  0
   69.5108   44.6981   58.2390 O   0  0  0  0  0  0  0  0  0  0  0  0
   71.6970   45.2497   58.5916 N   0  0  0  0  0  0  0  0  0  0  0  0
   73.1305   45.1290   58.6134 C   0  0  0  0  0  0  0  0  0  0  0  0
   73.6824   46.5157   58.9422 C   0  0  0  0  0  0  0  0  0  0  0  0
   72.5788   47.0059   59.8902 C   0  0  0  0  0  0  0  0  0  0  0  0
   71.3407   46.5741   59.1385 C   0  0  1  0  0  0  0  0  0  0  0  0
   69.2633   41.2775   58.0765 C   0  0  0  0  0  0  0  0  0  0  0  0
   69.7434   41.1387   59.2307 O   0  0  0  0  0  0  0  0  0  0  0  0
   69.8421   42.2319   57.2103 N   0  0  0  0  0  0  0  0  0  0  0  0
   68.1958   39.0576   58.3756 C   0  0  0  0  0  0  0  0  0  0  0  0
   68.1164   40.4236   57.7095 C   0  0  2  0  0  0  0  0  0  0  0  0
   67.9605   40.2189   56.3108 N   0  0  0  0  0  0  0  0  0  0  0  0
   69.6449   48.2441   56.0896 C   0  0  0  0  0  0  0  0  0  0  0  0
   69.0709   47.3969   55.0307 C   0  0  0  0  0  0  0  0  0  0  0  0
   69.1212   47.8338   53.7245 C   0  0  0  0  0  0  0  0  0  0  0  0
   68.6011   47.0880   52.6777 C   0  0  0  0  0  0  0  0  0  0  0  0
   68.0118   45.8700   52.9425 C   0  0  0  0  0  0  0  0  0  0  0  0
   67.9457   45.4103   54.2235 C   0  0  0  0  0  0  0  0  0  0  0  0
   68.4726   46.1723   55.2513 C   0  0  0  0  0  0  0  0  0  0  0  0
   68.6778   49.2526   56.5915 C   0  0  0  0  0  0  0  0  0  0  0  0
   68.7474   50.5775   56.1996 C   0  0  0  0  0  0  0  0  0  0  0  0
   67.8303   51.4877   56.6860 C   0  0  0  0  0  0  0  0  0  0  0  0
   66.8214   51.1349   57.5677 C   0  0  0  0  0  0  0  0  0  0  0  0
   66.7596   49.8134   57.9533 C   0  0  0  0  0  0  0  0  0  0  0  0
   67.6731   48.9028   57.4687 C   0  0  0  0  0  0  0  0  0  0  0  0
 17 16  1  1
 17 18  1  0
 17 13  1  0
 13 14  2  0
 13 15  1  0
 15  4  1  0
  4  5  1  0
  4  6  1  0
  6  7  2  0
  6  8  1  0
  8  9  1  0
  8 12  1  0
  9 10  1  0
 10 11  1  0
 11 12  1  0
 12  1  1  6
  1  2  2  0
  1  3  1  0
  3 19  1  0
 19 20  1  0
 19 26  1  0
 20 21  2  0
 20 25  1  0
 21 22  1  0
 22 23  2  0
 23 24  1  0
 24 25  2  0
 26 27  2  0
 26 31  1  0
 27 28  1  0
 28 29  2  0
 29 30  1  0
 30 31  2  0
M  CHG  1  18   1
M  END
>  <minimizedAffinity>  (623) 
-8.65389

$$$$
data/200k_reference_output/data/smiles/52758.pdb
     RDKit          3D

 25 28  0  0  0  0  0  0  0  0999 V2000
   70.2379   42.1291   57.8965 N   0  0  0  0  0  0  0  0  0  0  0  0
   69.3016   42.6424   57.0790 C   0  0  0  0  0  0  0  0  0  0  0  0
   69.3853   44.0144   57.0108 C   0  0  0  0  0  0  0  0  0  0  0  0
   68.7490   45.0213   56.3899 N   0  0  0  0  0  0  0  0  0  0  0  0
   69.0650   46.3167   56.5204 C   0  0  0  0  0  0  0  0  0  0  0  0
   70.1031   46.6085   57.3411 N   0  0  0  0  0  0  0  0  0  0  0  0
   70.7871   45.6645   57.9953 C   0  0  0  0  0  0  0  0  0  0  0  0
   71.7388   45.9708   58.7445 O   0  0  0  0  0  0  0  0  0  0  0  0
   70.4521   44.3348   57.8529 C   0  0  0  0  0  0  0  0  0  0  0  0
   70.9120   43.1740   58.3442 N   0  0  0  0  0  0  0  0  0  0  0  0
   70.7658   38.0029   58.8268 C   0  0  0  0  0  0  0  0  0  0  0  0
   69.5208   38.5589   58.6237 C   0  0  0  0  0  0  0  0  0  0  0  0
   69.3695   39.9038   58.3211 C   0  0  0  0  0  0  0  0  0  0  0  0
   70.4526   40.7450   58.2103 C   0  0  0  0  0  0  0  0  0  0  0  0
   71.6990   40.1928   58.4141 C   0  0  0  0  0  0  0  0  0  0  0  0
   71.8522   38.8424   58.7177 C   0  0  0  0  0  0  0  0  0  0  0  0
   71.9147   35.8541   58.5081 C   0  0  0  0  0  0  0  0  0  0  0  0
   70.9251   36.6443   59.1331 O   0  0  0  0  0  0  0  0  0  0  0  0
   68.3345   47.4030   55.8142 C   0  0  0  0  0  0  0  0  0  0  0  0
   68.5197   47.1967   54.3342 C   0  0  0  0  0  0  0  0  0  0  0  0
   67.8435   46.2199   53.6571 C   0  0  0  0  0  0  0  0  0  0  0  0
   68.0331   46.0545   52.3038 C   0  0  0  0  0  0  0  0  0  0  0  0
   68.8952   46.8552   51.6045 C   0  0  0  0  0  0  0  0  0  0  0  0
   69.5911   47.8519   52.2765 C   0  0  0  0  0  0  0  0  0  0  0  0
   69.3904   48.0047   53.6331 C   0  0  0  0  0  0  0  0  0  0  0  0
 17 18  1  0
 18 11  1  0
 11 12  2  0
 11 16  1  0
 12 13  1  0
 13 14  2  0
 14  1  1  0
 14 15  1  0
  1  2  1  0
  1 10  1  0
  2  3  2  0
  3  4  1  0
  3  9  1  0
  4  5  2  0
  5 19  1  0
  5  6  1  0
 19 20  1  0
 20 21  2  0
 20 25  1  0
 21 22  1  0
 22 23  2  0
 23 24  1  0
 24 25  2  0
  6  7  1  0
  7  8  2  0
  7  9  1  0
  9 10  2  0
 15 16  2  0
M  END
>  <minimizedAffinity>  (624) 
-8.59500

$$$$
data/200k_reference_output/data/smiles/52797.pdb
     RDKit          3D

 23 25  0  0  0  0  0  0  0  0999 V2000
   69.9100   50.7286   53.9245 O   0  0  0  0  0  0  0  0  0  0  0  0
   70.6321   49.6849   53.3824 C   0  0  0  0  0  0  0  0  0  0  0  0
   71.8786   49.7273   53.5218 O   0  0  0  0  0  0  0  0  0  0  0  0
   70.0369   48.5617   52.6737 C   0  0  0  0  0  0  0  0  0  0  0  0
   70.1656   48.2574   51.3655 N   0  0  0  0  0  0  0  0  0  0  0  0
   69.4814   47.1645   51.0809 N   0  0  0  0  0  0  0  0  0  0  0  0
   68.8632   46.6862   52.1856 C   0  0  0  0  0  0  0  0  0  0  0  0
   68.0416   45.5910   52.4216 C   0  0  0  0  0  0  0  0  0  0  0  0
   67.5861   45.4168   53.7114 C   0  0  0  0  0  0  0  0  0  0  0  0
   67.9323   46.2877   54.7061 C   0  0  0  0  0  0  0  0  0  0  0  0
   68.7405   47.3672   54.4743 C   0  0  0  0  0  0  0  0  0  0  0  0
   69.2213   47.5779   53.1881 C   0  0  0  0  0  0  0  0  0  0  0  0
   70.3601   51.8883   54.4913 C   0  0  0  0  0  0  0  0  0  0  0  0
   71.3515   51.6351   58.2561 C   0  0  0  0  0  0  0  0  0  0  0  0
   70.4878   51.4671   57.0550 N   0  0  0  0  0  0  0  0  0  0  0  0
   70.9552   51.8970   55.8163 C   0  0  0  0  0  0  0  0  0  0  0  0
   72.1570   52.4131   55.8552 O   0  0  0  0  0  0  0  0  0  0  0  0
   69.2362   50.8684   57.3004 C   0  0  0  0  0  0  0  0  0  0  0  0
   69.2359   49.4752   57.4266 C   0  0  0  0  0  0  0  0  0  0  0  0
   68.0337   48.8252   57.6144 C   0  0  0  0  0  0  0  0  0  0  0  0
   66.8339   49.5120   57.6819 C   0  0  0  0  0  0  0  0  0  0  0  0
   66.8587   50.9005   57.5543 C   0  0  0  0  0  0  0  0  0  0  0  0
   68.0493   51.5620   57.3658 C   0  0  0  0  0  0  0  0  0  0  0  0
 14 15  1  0
 15 16  1  0
 15 18  1  0
 16 17  2  0
 16 13  1  0
 13  1  1  0
  1  2  1  0
  2  3  2  0
  2  4  1  0
  4  5  1  0
  4 12  2  0
  5  6  1  0
  6  7  2  0
  7  8  1  0
  7 12  1  0
  8  9  2  0
  9 10  1  0
 10 11  2  0
 11 12  1  0
 18 19  2  0
 18 23  1  0
 19 20  1  0
 20 21  2  0
 21 22  1  0
 22 23  2  0
M  END
>  <minimizedAffinity>  (625) 
-8.53551

$$$$
data/200k_reference_output/data/smiles/52847.pdb
     RDKit          3D

 25 27  0  0  0  0  0  0  0  0999 V2000
   70.5519   45.5566   58.2808 C   0  0  0  0  0  0  0  0  0  0  0  0
   70.7219   46.2764   59.2833 O   0  0  0  0  0  0  0  0  0  0  0  0
   69.7549   46.2143   57.2563 N   0  0  0  0  0  0  0  0  0  0  0  0
   71.0324   44.2244   58.0475 C   0  0  0  0  0  0  0  0  0  0  0  0
   72.3476   44.1416   57.9008 O   0  0  0  0  0  0  0  0  0  0  0  0
   70.0689   39.3992   58.6544 C   0  0  0  0  0  0  0  0  0  0  0  0
   69.9834   40.8025   58.2336 N   0  0  0  0  0  0  0  0  0  0  0  0
   70.7597   41.8100   58.5981 C   0  0  0  0  0  0  0  0  0  0  0  0
   70.3131   42.9887   57.9439 C   0  0  0  0  0  0  0  0  0  0  0  0
   69.2421   42.6315   57.1855 C   0  0  0  0  0  0  0  0  0  0  0  0
   68.3768   43.3192   56.3675 C   0  0  0  0  0  0  0  0  0  0  0  0
   67.3418   42.6538   55.7422 C   0  0  0  0  0  0  0  0  0  0  0  0
   67.1329   41.3084   55.9081 C   0  0  0  0  0  0  0  0  0  0  0  0
   68.0100   40.6312   56.7386 C   0  0  0  0  0  0  0  0  0  0  0  0
   69.0548   41.2546   57.3825 C   0  0  0  0  0  0  0  0  0  0  0  0
   69.2169   47.5093   57.4326 C   0  0  0  0  0  0  0  0  0  0  0  0
   68.4338   48.0376   56.3172 C   0  0  0  0  0  0  0  0  0  0  0  0
   68.7518   47.8156   54.9253 C   0  0  0  0  0  0  0  0  0  0  0  0
   68.2055   46.7082   54.2647 C   0  0  0  0  0  0  0  0  0  0  0  0
   68.4871   46.4259   52.9602 C   0  0  0  0  0  0  0  0  0  0  0  0
   69.3294   47.2243   52.2229 C   0  0  0  0  0  0  0  0  0  0  0  0
   69.6233   46.9456   50.8911 O   0  0  0  0  0  0  0  0  0  0  0  0
   69.8661   48.3166   52.8801 C   0  0  0  0  0  0  0  0  0  0  0  0
   70.7215   49.1068   52.0925 O   0  0  0  0  0  0  0  0  0  0  0  0
   69.6012   48.6213   54.1856 C   0  0  0  0  0  0  0  0  0  0  0  0
  6  7  1  0
  7  8  1  0
  7 15  1  0
  8  9  2  0
  9  4  1  0
  9 10  1  0
  4  5  2  0
  4  1  1  0
  1  2  2  0
  1  3  1  0
  3 16  1  0
 16 17  1  0
 17 18  1  0
 18 19  2  0
 18 25  1  0
 19 20  1  0
 20 21  2  0
 21 22  1  0
 21 23  1  0
 23 24  1  0
 23 25  2  0
 10 11  1  0
 10 15  2  0
 11 12  2  0
 12 13  1  0
 13 14  2  0
 14 15  1  0
M  END
>  <minimizedAffinity>  (626) 
-8.72840

$$$$
data/200k_reference_output/data/smiles/52974.pdb
     RDKit          3D

 30 33  0  0  0  0  0  0  0  0999 V2000
   69.0300   47.6402   54.7781 C   0  0  0  0  0  0  0  0  0  0  0  0
   69.8440   48.7122   54.7400 N   0  0  0  0  0  0  0  0  0  0  0  0
   70.2749   49.2977   53.6204 C   0  0  0  0  0  0  0  0  0  0  0  0
   69.8593   48.7680   52.4228 C   0  0  0  0  0  0  0  0  0  0  0  0
   70.2904   49.3542   51.2498 O   0  0  0  0  0  0  0  0  0  0  0  0
   69.0281   47.6725   52.4129 C   0  0  0  0  0  0  0  0  0  0  0  0
   68.5922   47.1128   51.2642 N   0  0  0  0  0  0  0  0  0  0  0  0
   67.7891   46.0508   51.2530 C   0  0  0  0  0  0  0  0  0  0  0  0
   67.3423   45.4443   52.4172 C   0  0  0  0  0  0  0  0  0  0  0  0
   67.7582   45.9776   53.6170 C   0  0  0  0  0  0  0  0  0  0  0  0
   68.5885   47.0764   53.5929 C   0  0  0  0  0  0  0  0  0  0  0  0
   70.1910   46.3341   57.6952 N   0  0  0  0  0  0  0  0  0  0  0  0
   69.4383   45.9212   56.5258 C   0  0  0  0  0  0  0  0  0  0  0  0
   68.6099   47.0774   56.0874 C   0  0  1  0  0  0  0  0  0  0  0  0
   68.8125   48.1782   57.1233 C   0  0  0  0  0  0  0  0  0  0  0  0
   69.9918   47.7297   57.9084 C   0  0  0  0  0  0  0  0  0  0  0  0
   70.7447   48.4011   58.6600 O   0  0  0  0  0  0  0  0  0  0  0  0
   70.5303   44.0069   58.3929 C   0  0  0  0  0  0  0  0  0  0  0  0
   71.0048   45.4415   58.4951 C   0  0  0  0  0  0  0  0  0  0  0  0
   71.1712   50.4760   53.6522 C   0  0  0  0  0  0  0  0  0  0  0  0
   70.7953   51.5845   53.2322 O   0  0  0  0  0  0  0  0  0  0  0  0
   72.4794   50.3386   54.1697 N   0  0  0  0  0  0  0  0  0  0  0  0
   73.4555   51.3726   54.2699 C   0  0  0  0  0  0  0  0  0  0  0  0
   73.1889   52.2095   55.4479 C   0  0  0  0  0  0  0  0  0  0  0  0
   72.5870   51.6806   56.5565 C   0  0  0  0  0  0  0  0  0  0  0  0
   72.3457   52.4747   57.6674 C   0  0  0  0  0  0  0  0  0  0  0  0
   72.7084   53.7914   57.6624 C   0  0  0  0  0  0  0  0  0  0  0  0
   72.4667   54.5737   58.7650 F   0  0  0  0  0  0  0  0  0  0  0  0
   73.3157   54.3497   56.5611 C   0  0  0  0  0  0  0  0  0  0  0  0
   73.5515   53.5339   55.4472 C   0  0  0  0  0  0  0  0  0  0  0  0
 18 19  1  0
 19 12  1  0
 12 13  1  0
 12 16  1  0
 13 14  1  0
 14  1  1  6
 14 15  1  0
  1  2  2  0
  1 11  1  0
  2  3  1  0
  3 20  1  0
  3  4  2  0
 20 21  2  0
 20 22  1  0
 22 23  1  0
 23 24  1  0
 24 25  2  0
 24 30  1  0
 25 26  1  0
 26 27  2  0
 27 28  1  0
 27 29  1  0
 29 30  2  0
  4  5  1  0
  4  6  1  0
  6  7  1  0
  6 11  2  0
  7  8  2  0
  8  9  1  0
  9 10  2  0
 10 11  1  0
 15 16  1  0
 16 17  2  0
M  END
>  <minimizedAffinity>  (627) 
-9.19354

$$$$
data/200k_reference_output/data/smiles/52994.pdb
     RDKit          3D

 22 23  0  0  0  0  0  0  0  0999 V2000
   68.5100   46.1536   56.3005 N   0  0  0  0  0  0  0  0  0  0  0  0
   68.2400   45.4346   55.1236 C   0  0  0  0  0  0  0  0  0  0  0  0
   67.8718   44.2133   55.1880 N   0  0  0  0  0  0  0  0  0  0  0  0
   68.3719   46.0537   53.8185 C   0  0  0  0  0  0  0  0  0  0  0  0
   67.6210   45.5618   52.7751 C   0  0  0  0  0  0  0  0  0  0  0  0
   67.6908   46.0970   51.5084 C   0  0  0  0  0  0  0  0  0  0  0  0
   68.5407   47.1566   51.2838 C   0  0  0  0  0  0  0  0  0  0  0  0
   69.3161   47.6843   52.3035 C   0  0  0  0  0  0  0  0  0  0  0  0
   69.2115   47.1128   53.5638 C   0  0  0  0  0  0  0  0  0  0  0  0
   70.1785   48.7700   52.0476 N   0  0  0  0  0  0  0  0  0  0  0  0
   69.9802   49.4943   51.0679 O   0  0  0  0  0  0  0  0  0  0  0  0
   71.2284   49.0245   52.8753 O   0  0  0  0  0  0  0  0  0  0  0  0
   67.7411   43.6081   56.4068 O   0  0  0  0  0  0  0  0  0  0  0  0
   67.6828   42.2499   56.6100 C   0  0  0  0  0  0  0  0  0  0  0  0
   66.6679   41.6438   56.1817 O   0  0  0  0  0  0  0  0  0  0  0  0
   68.7285   41.4916   57.2890 C   0  0  0  0  0  0  0  0  0  0  0  0
   69.9552   42.0640   57.5468 C   0  0  0  0  0  0  0  0  0  0  0  0
   70.9687   41.3587   58.1930 C   0  0  0  0  0  0  0  0  0  0  0  0
   70.7548   40.0555   58.5921 C   0  0  0  0  0  0  0  0  0  0  0  0
   69.5441   39.4710   58.3446 C   0  0  0  0  0  0  0  0  0  0  0  0
   69.2854   38.1855   58.7187 F   0  0  0  0  0  0  0  0  0  0  0  0
   68.5392   40.1890   57.6960 C   0  0  0  0  0  0  0  0  0  0  0  0
  1  2  1  0
  2  3  2  0
  2  4  1  0
  3 13  1  0
 13 14  1  0
 14 15  2  0
 14 16  1  0
 16 17  2  0
 16 22  1  0
 17 18  1  0
 18 19  2  0
 19 20  1  0
 20 21  1  0
 20 22  2  0
  4  5  2  0
  4  9  1  0
  5  6  1  0
  6  7  2  0
  7  8  1  0
  8 10  1  0
  8  9  2  0
 10 11  2  0
 10 12  1  0
M  CHG  3   3   1  10   1  12  -1
M  END
>  <minimizedAffinity>  (628) 
-9.25515

$$$$
data/200k_reference_output/data/smiles/53089.pdb
     RDKit          3D

 22 23  0  0  0  0  0  0  0  0999 V2000
   67.7953   47.4308   56.8314 N   0  0  0  0  0  0  0  0  0  0  0  0
   68.6955   46.6576   56.0544 C   0  0  0  0  0  0  0  0  0  0  0  0
   69.5598   45.8976   56.6187 N   0  0  0  0  0  0  0  0  0  0  0  0
   68.6511   46.7182   54.5980 C   0  0  0  0  0  0  0  0  0  0  0  0
   67.9227   45.7904   53.8603 C   0  0  0  0  0  0  0  0  0  0  0  0
   67.8829   45.8487   52.4845 C   0  0  0  0  0  0  0  0  0  0  0  0
   68.5749   46.8414   51.8243 C   0  0  0  0  0  0  0  0  0  0  0  0
   69.3081   47.7813   52.5086 C   0  0  0  0  0  0  0  0  0  0  0  0
   69.3245   47.6893   53.8817 C   0  0  0  0  0  0  0  0  0  0  0  0
   70.0229   48.8061   51.8276 N   0  0  0  0  0  0  0  0  0  0  0  0
   70.6985   48.5251   50.8262 O   0  0  0  0  0  0  0  0  0  0  0  0
   69.9719   50.0979   52.2640 O   0  0  0  0  0  0  0  0  0  0  0  0
   69.5974   45.8445   57.9857 O   0  0  0  0  0  0  0  0  0  0  0  0
   70.7574   45.7819   58.7043 C   0  0  0  0  0  0  0  0  0  0  0  0
   70.9149   46.5189   59.6883 O   0  0  0  0  0  0  0  0  0  0  0  0
   71.8001   44.8620   58.3239 C   0  0  0  0  0  0  0  0  0  0  0  0
   71.4536   43.5431   58.0294 C   0  0  0  0  0  0  0  0  0  0  0  0
   72.4097   42.6311   57.6624 C   0  0  0  0  0  0  0  0  0  0  0  0
   73.7258   42.9782   57.5744 C   0  0  0  0  0  0  0  0  0  0  0  0
   74.7028   42.0910   57.2113 F   0  0  0  0  0  0  0  0  0  0  0  0
   74.0531   44.2805   57.8674 C   0  0  0  0  0  0  0  0  0  0  0  0
   73.1321   45.2270   58.2386 C   0  0  0  0  0  0  0  0  0  0  0  0
  1  2  1  0
  2  3  2  0
  2  4  1  0
  3 13  1  0
 13 14  1  0
 14 15  2  0
 14 16  1  0
 16 17  2  0
 16 22  1  0
 17 18  1  0
 18 19  2  0
 19 20  1  0
 19 21  1  0
 21 22  2  0
  4  5  2  0
  4  9  1  0
  5  6  1  0
  6  7  2  0
  7  8  1  0
  8 10  1  0
  8  9  2  0
 10 11  2  0
 10 12  1  0
M  CHG  3   3   1  10   1  12  -1
M  END
>  <minimizedAffinity>  (629) 
-9.09663

$$$$
data/200k_reference_output/data/smiles/53112.pdb
     RDKit          3D

 23 25  0  0  0  0  0  0  0  0999 V2000
   69.8989   47.5272   57.3686 O   0  0  0  0  0  0  0  0  0  0  0  0
   68.6946   47.3837   56.4370 S   0  0  0  0  0  0  0  0  0  0  0  0
   68.5173   45.8670   56.3613 O   0  0  0  0  0  0  0  0  0  0  0  0
   69.1037   47.9031   54.8257 C   0  0  0  0  0  0  0  0  0  0  0  0
   69.9854   48.9774   54.6360 C   0  0  0  0  0  0  0  0  0  0  0  0
   70.3893   49.3528   53.3818 C   0  0  0  0  0  0  0  0  0  0  0  0
   69.9573   48.7056   52.2483 C   0  0  0  0  0  0  0  0  0  0  0  0
   70.3750   49.0935   50.9770 O   0  0  0  0  0  0  0  0  0  0  0  0
   69.0817   47.6363   52.3967 C   0  0  0  0  0  0  0  0  0  0  0  0
   68.6215   46.9993   51.3055 N   0  0  0  0  0  0  0  0  0  0  0  0
   67.7565   45.9813   51.3846 C   0  0  0  0  0  0  0  0  0  0  0  0
   67.3515   45.6126   52.6477 C   0  0  0  0  0  0  0  0  0  0  0  0
   67.7825   46.2209   53.8015 C   0  0  0  0  0  0  0  0  0  0  0  0
   68.6792   47.2674   53.6789 C   0  0  0  0  0  0  0  0  0  0  0  0
   67.2893   48.0048   57.0967 N   0  0  0  0  0  0  0  0  0  0  0  0
   67.3012   49.0504   58.0241 C   0  0  0  0  0  0  0  0  0  0  0  0
   67.9936   50.2436   57.4117 C   0  0  0  0  0  0  0  0  0  0  0  0
   67.4833   50.9031   56.3145 C   0  0  0  0  0  0  0  0  0  0  0  0
   68.1487   51.9993   55.7763 C   0  0  0  0  0  0  0  0  0  0  0  0
   69.3302   52.4625   56.3141 C   0  0  0  0  0  0  0  0  0  0  0  0
   69.8372   51.8008   57.4118 C   0  0  0  0  0  0  0  0  0  0  0  0
   69.1750   50.7069   57.9495 C   0  0  0  0  0  0  0  0  0  0  0  0
   69.6919   50.0761   59.0250 F   0  0  0  0  0  0  0  0  0  0  0  0
  1  2  2  0
  2  3  2  0
  2 15  1  0
  2  4  1  0
 15 16  1  0
 16 17  1  0
 17 18  2  0
 17 22  1  0
 18 19  1  0
 19 20  2  0
 20 21  1  0
 21 22  2  0
 22 23  1  0
  4  5  2  0
  4 14  1  0
  5  6  1  0
  6  7  2  0
  7  8  1  0
  7  9  1  0
  9 10  1  0
  9 14  2  0
 10 11  2  0
 11 12  1  0
 12 13  2  0
 13 14  1  0
M  END
>  <minimizedAffinity>  (630) 
-8.81576

$$$$
data/200k_reference_output/data/smiles/53195.pdb
     RDKit          3D

 22 24  0  0  0  0  0  0  0  0999 V2000
   71.4985   44.2450   57.5168 O   0  0  0  0  0  0  0  0  0  0  0  0
   70.0106   44.3285   57.6964 S   0  0  0  0  0  0  0  0  0  0  0  0
   69.7706   44.7716   59.1190 O   0  0  0  0  0  0  0  0  0  0  0  0
   69.3120   45.5157   56.6616 N   0  0  0  0  0  0  0  0  0  0  0  0
   68.3696   45.2162   55.8127 C   0  0  0  0  0  0  0  0  0  0  0  0
   67.8465   43.9123   55.6642 N   0  0  0  0  0  0  0  0  0  0  0  0
   68.2502   42.7661   56.3923 C   0  0  0  0  0  0  0  0  0  0  0  0
   67.6564   41.5200   56.1576 C   0  0  0  0  0  0  0  0  0  0  0  0
   66.6739   41.4606   55.1978 O   0  0  0  0  0  0  0  0  0  0  0  0
   68.0214   40.3868   56.8454 C   0  0  0  0  0  0  0  0  0  0  0  0
   69.0052   40.4365   57.8085 C   0  0  0  0  0  0  0  0  0  0  0  0
   69.4985   39.0166   58.7046 Cl  0  0  0  0  0  0  0  0  0  0  0  0
   69.5952   41.6826   58.0387 C   0  0  0  0  0  0  0  0  0  0  0  0
   69.2311   42.8025   57.3564 C   0  0  0  0  0  0  0  0  0  0  0  0
   67.9091   46.3144   55.0408 N   0  0  0  0  0  0  0  0  0  0  0  0
   68.6183   46.9404   53.9896 C   0  0  0  0  0  0  0  0  0  0  0  0
   69.3131   48.1086   54.1780 C   0  0  0  0  0  0  0  0  0  0  0  0
   70.0055   48.7499   53.1618 C   0  0  0  0  0  0  0  0  0  0  0  0
   70.0025   48.2058   51.9153 C   0  0  0  0  0  0  0  0  0  0  0  0
   69.3112   47.0262   51.6862 C   0  0  0  0  0  0  0  0  0  0  0  0
   68.6315   46.4100   52.7126 C   0  0  0  0  0  0  0  0  0  0  0  0
   67.9460   45.2568   52.5220 F   0  0  0  0  0  0  0  0  0  0  0  0
  1  2  2  0
  2  3  2  0
  2  4  1  0
  2 14  1  0
  4  5  2  0
  5 15  1  0
  5  6  1  0
 15 16  1  0
 16 17  2  0
 16 21  1  0
 17 18  1  0
 18 19  2  0
 19 20  1  0
 20 21  2  0
 21 22  1  0
  6  7  1  0
  7  8  1  0
  7 14  2  0
  8  9  1  0
  8 10  2  0
 10 11  1  0
 11 12  1  0
 11 13  2  0
 13 14  1  0
M  CHG  1   4   1
M  END
>  <minimizedAffinity>  (631) 
-8.68471

$$$$
data/200k_reference_output/data/smiles/53301.pdb
     RDKit          3D

 20 22  0  0  0  0  0  0  0  0999 V2000
   68.7295   46.8219   54.0769 C   0  0  0  0  0  0  0  0  0  0  0  0
   68.7891   46.2534   52.8130 C   0  0  0  0  0  0  0  0  0  0  0  0
   69.1313   47.0361   51.7348 C   0  0  0  0  0  0  0  0  0  0  0  0
   69.4096   48.3670   51.9213 C   0  0  0  0  0  0  0  0  0  0  0  0
   69.7655   49.3776   51.1028 N   0  0  0  0  0  0  0  0  0  0  0  0
   69.9214   50.5022   51.7879 N   0  0  0  0  0  0  0  0  0  0  0  0
   69.6775   50.2923   53.0881 C   0  0  0  0  0  0  0  0  0  0  0  0
   69.3541   48.9543   53.1901 C   0  0  0  0  0  0  0  0  0  0  0  0
   69.0161   48.1752   54.2408 C   0  0  0  0  0  0  0  0  0  0  0  0
   69.7558   51.3083   54.1289 C   0  0  0  0  0  0  0  0  0  0  0  0
   70.9716   51.8220   54.5593 C   0  0  0  0  0  0  0  0  0  0  0  0
   71.0601   52.7846   55.5423 C   0  0  0  0  0  0  0  0  0  0  0  0
   69.9279   53.2846   56.1477 C   0  0  0  0  0  0  0  0  0  0  0  0
   70.0346   54.2296   57.1122 F   0  0  0  0  0  0  0  0  0  0  0  0
   68.7126   52.7832   55.7307 C   0  0  0  0  0  0  0  0  0  0  0  0
   68.6299   51.8151   54.7414 C   0  0  0  0  0  0  0  0  0  0  0  0
   67.9254   43.8968   56.3956 N   0  0  0  0  0  0  0  0  0  0  0  0
   68.2724   44.6277   55.2427 N   0  0  0  0  0  0  0  0  0  0  0  0
   68.3730   46.0408   55.2559 C   0  0  0  0  0  0  0  0  0  0  0  0
   68.1373   46.6146   56.3480 O   0  0  0  0  0  0  0  0  0  0  0  0
 17 18  1  0
 18 19  1  0
 19 20  2  0
 19  1  1  0
  1  2  2  0
  1  9  1  0
  2  3  1  0
  3  4  2  0
  4  5  1  0
  4  8  1  0
  5  6  1  0
  6  7  2  0
  7 10  1  0
  7  8  1  0
 10 11  2  0
 10 16  1  0
 11 12  1  0
 12 13  2  0
 13 14  1  0
 13 15  1  0
 15 16  2  0
  8  9  2  0
M  END
>  <minimizedAffinity>  (632) 
-8.58371

$$$$
data/200k_reference_output/data/smiles/53341.pdb
     RDKit          3D

 27 30  0  0  0  0  0  0  0  0999 V2000
   68.1632   46.0994   54.1204 C   0  0  0  0  0  0  0  0  0  0  0  0
   67.6641   45.2850   53.1360 C   0  0  0  0  0  0  0  0  0  0  0  0
   67.7853   45.6191   51.7812 C   0  0  0  0  0  0  0  0  0  0  0  0
   68.4270   46.7985   51.4585 C   0  0  0  0  0  0  0  0  0  0  0  0
   68.9441   47.6442   52.4393 C   0  0  0  0  0  0  0  0  0  0  0  0
   68.8038   47.2825   53.7571 C   0  0  0  0  0  0  0  0  0  0  0  0
   69.4092   48.3305   54.5944 C   0  0  0  0  0  0  0  0  0  0  0  0
   69.9597   49.3093   53.6782 N   0  0  0  0  0  0  0  0  0  0  0  0
   69.6631   48.9131   52.3615 C   0  0  0  0  0  0  0  0  0  0  0  0
   69.9380   49.4995   51.2560 O   0  0  0  0  0  0  0  0  0  0  0  0
   70.7120   50.5051   54.0493 C   0  0  1  0  0  0  0  0  0  0  0  0
   69.9548   51.7568   53.7280 C   0  0  0  0  0  0  0  0  0  0  0  0
   69.0467   52.2981   54.7742 C   0  0  0  0  0  0  0  0  0  0  0  0
   69.5275   52.1496   56.1450 C   0  0  0  0  0  0  0  0  0  0  0  0
   68.9812   52.7712   57.0783 O   0  0  0  0  0  0  0  0  0  0  0  0
   70.6242   51.2928   56.4204 N   0  0  0  0  0  0  0  0  0  0  0  0
   71.2248   50.4920   55.4111 C   0  0  0  0  0  0  0  0  0  0  0  0
   72.2073   49.7776   55.7376 O   0  0  0  0  0  0  0  0  0  0  0  0
   68.0258   45.7378   55.4749 N   0  0  0  0  0  0  0  0  0  0  0  0
   69.1127   45.1720   56.2361 C   0  0  0  0  0  0  0  0  0  0  0  0
   68.2160   39.6149   57.6325 C   0  0  0  0  0  0  0  0  0  0  0  0
   68.4420   41.0495   57.2682 C   0  0  0  0  0  0  0  0  0  0  0  0
   69.4813   41.7746   57.8131 C   0  0  0  0  0  0  0  0  0  0  0  0
   69.6930   43.0966   57.4791 C   0  0  0  0  0  0  0  0  0  0  0  0
   68.8727   43.7519   56.5844 C   0  0  0  0  0  0  0  0  0  0  0  0
   67.8300   43.0214   56.0393 C   0  0  0  0  0  0  0  0  0  0  0  0
   67.6191   41.7004   56.3728 C   0  0  0  0  0  0  0  0  0  0  0  0
 21 22  1  0
 22 23  2  0
 22 27  1  0
 23 24  1  0
 24 25  2  0
 25 20  1  0
 25 26  1  0
 20 19  1  0
 19  1  1  0
  1  2  2  0
  1  6  1  0
  2  3  1  0
  3  4  2  0
  4  5  1  0
  5  6  2  0
  5  9  1  0
  6  7  1  0
  7  8  1  0
 11  8  1  1
  8  9  1  0
 11 12  1  0
 11 17  1  0
 12 13  1  0
 13 14  1  0
 14 15  2  0
 14 16  1  0
 16 17  1  0
 17 18  2  0
  9 10  2  0
 26 27  2  0
M  END
>  <minimizedAffinity>  (633) 
-9.08695

$$$$
data/200k_reference_output/data/smiles/53376.pdb
     RDKit          3D

 24 27  0  0  0  0  0  0  0  0999 V2000
   69.9370   43.9611   58.1589 C   0  0  0  0  0  0  0  0  0  0  0  0
   70.0812   44.8050   59.1964 N   0  0  0  0  0  0  0  0  0  0  0  0
   69.9603   46.0597   58.7772 N   0  0  0  0  0  0  0  0  0  0  0  0
   69.7340   46.0548   57.4504 C   0  0  0  0  0  0  0  0  0  0  0  0
   69.7255   44.7556   57.1035 N   0  0  0  0  0  0  0  0  0  0  0  0
   72.3545   42.6030   58.5114 O   0  0  0  0  0  0  0  0  0  0  0  0
   71.2013   41.8401   58.4015 C   0  0  0  0  0  0  0  0  0  0  0  0
   70.0062   42.5039   58.2280 C   0  0  0  0  0  0  0  0  0  0  0  0
   68.8953   41.7547   58.1229 N   0  0  0  0  0  0  0  0  0  0  0  0
   68.9239   40.4002   58.1835 C   0  0  0  0  0  0  0  0  0  0  0  0
   70.1003   39.7008   58.3572 C   0  0  0  0  0  0  0  0  0  0  0  0
   70.1361   38.3167   58.4188 C   0  0  0  0  0  0  0  0  0  0  0  0
   71.3421   37.6632   58.5943 C   0  0  0  0  0  0  0  0  0  0  0  0
   72.4717   38.4479   58.6992 C   0  0  0  0  0  0  0  0  0  0  0  0
   72.4235   39.7997   58.6366 N   0  0  0  0  0  0  0  0  0  0  0  0
   71.2568   40.4457   58.4667 C   0  0  0  0  0  0  0  0  0  0  0  0
   69.5410   47.2406   56.5883 C   0  0  0  0  0  0  0  0  0  0  0  0
   68.2628   47.1918   55.8005 C   0  0  0  0  0  0  0  0  0  0  0  0
   68.4518   47.0792   54.3580 C   0  0  0  0  0  0  0  0  0  0  0  0
   67.7980   46.0902   53.6716 C   0  0  0  0  0  0  0  0  0  0  0  0
   67.9489   45.9476   52.3097 C   0  0  0  0  0  0  0  0  0  0  0  0
   68.7731   46.8196   51.6334 C   0  0  0  0  0  0  0  0  0  0  0  0
   69.4311   47.8157   52.3218 C   0  0  0  0  0  0  0  0  0  0  0  0
   69.2703   47.9445   53.6829 C   0  0  0  0  0  0  0  0  0  0  0  0
  6  7  1  0
  7  8  2  0
  7 16  1  0
  8  1  1  0
  8  9  1  0
  1  2  2  0
  1  5  1  0
  2  3  1  0
  3  4  2  0
  4 17  1  0
  4  5  1  0
 17 18  1  0
 18 19  1  0
 19 20  2  0
 19 24  1  0
 20 21  1  0
 21 22  2  0
 22 23  1  0
 23 24  2  0
  9 10  2  0
 10 11  1  0
 11 12  1  0
 11 16  2  0
 12 13  2  0
 13 14  1  0
 14 15  2  0
 15 16  1  0
M  END
>  <minimizedAffinity>  (634) 
-8.67233

$$$$
data/200k_reference_output/data/smiles/53381.pdb
     RDKit          3D

 20 23  0  0  0  0  0  0  0  0999 V2000
   69.7778   48.7020   56.1605 C   0  0  1  0  0  0  0  0  0  0  0  0
   69.8929   47.4284   57.0096 C   0  0  0  0  0  0  0  0  0  0  0  0
   69.1032   46.4270   56.2212 C   0  0  0  0  0  0  0  0  0  0  0  0
   68.4746   45.2471   56.3074 N   0  0  0  0  0  0  0  0  0  0  0  0
   67.9482   44.9323   55.1357 N   0  0  0  0  0  0  0  0  0  0  0  0
   68.2168   45.8952   54.2521 C   0  0  0  0  0  0  0  0  0  0  0  0
   68.9609   46.8647   54.9356 C   0  0  0  0  0  0  0  0  0  0  0  0
   69.6382   48.1503   54.7977 C   0  0  0  0  0  0  0  0  0  0  0  0
   65.8685   49.2207   59.0507 F   0  0  0  0  0  0  0  0  0  0  0  0
   66.7138   49.7230   58.1217 C   0  0  0  0  0  0  0  0  0  0  0  0
   66.4809   51.0046   57.6751 C   0  0  0  0  0  0  0  0  0  0  0  0
   67.3435   51.5142   56.7279 C   0  0  0  0  0  0  0  0  0  0  0  0
   68.4197   50.7683   56.2303 C   0  0  0  0  0  0  0  0  0  0  0  0
   68.6530   49.4871   56.6761 C   0  0  0  0  0  0  0  0  0  0  0  0
   67.7696   48.9821   57.6379 C   0  0  0  0  0  0  0  0  0  0  0  0
   67.8417   45.9848   52.8376 C   0  0  0  0  0  0  0  0  0  0  0  0
   66.9097   45.2904   52.1981 N   0  0  0  0  0  0  0  0  0  0  0  0
   66.8632   45.6536   50.9221 N   0  0  0  0  0  0  0  0  0  0  0  0
   67.7904   46.5964   50.7718 N   0  0  0  0  0  0  0  0  0  0  0  0
   68.4012   46.8125   51.9388 N   0  0  0  0  0  0  0  0  0  0  0  0
  9 10  1  0
 10 11  2  0
 10 15  1  0
 11 12  1  0
 12 13  2  0
 13 14  1  0
  1 14  1  1
 14 15  2  0
  1  2  1  0
  1  8  1  0
  2  3  1  0
  3  4  1  0
  3  7  2  0
  4  5  1  0
  5  6  2  0
  6 16  1  0
  6  7  1  0
 16 17  2  0
 16 20  1  0
 17 18  1  0
 18 19  2  0
 19 20  1  0
  7  8  1  0
M  END
>  <minimizedAffinity>  (635) 
-8.78421

$$$$
data/200k_reference_output/data/smiles/53462.pdb
     RDKit          3D

 22 23  0  0  0  0  0  0  0  0999 V2000
   68.3048   46.3251   56.2711 N   0  0  0  0  0  0  0  0  0  0  0  0
   68.2455   45.4416   55.1710 C   0  0  0  0  0  0  0  0  0  0  0  0
   68.1321   44.1871   55.3865 N   0  0  0  0  0  0  0  0  0  0  0  0
   68.3185   46.0080   53.8221 C   0  0  0  0  0  0  0  0  0  0  0  0
   67.5457   45.5194   52.7800 C   0  0  0  0  0  0  0  0  0  0  0  0
   67.6132   46.0494   51.5092 C   0  0  0  0  0  0  0  0  0  0  0  0
   68.4769   47.0960   51.2797 C   0  0  0  0  0  0  0  0  0  0  0  0
   69.2698   47.6231   52.2756 C   0  0  0  0  0  0  0  0  0  0  0  0
   69.1644   47.0563   53.5264 C   0  0  0  0  0  0  0  0  0  0  0  0
   70.1544   48.6940   52.0380 N   0  0  0  0  0  0  0  0  0  0  0  0
   71.1227   48.8484   52.8052 O   0  0  0  0  0  0  0  0  0  0  0  0
   69.9584   49.5479   50.9863 O   0  0  0  0  0  0  0  0  0  0  0  0
   68.0717   43.7475   56.6806 O   0  0  0  0  0  0  0  0  0  0  0  0
   68.9447   42.8195   57.2251 C   0  0  0  0  0  0  0  0  0  0  0  0
   68.4909   41.6657   57.4139 O   0  0  0  0  0  0  0  0  0  0  0  0
   70.3320   43.1697   57.5655 C   0  0  0  0  0  0  0  0  0  0  0  0
   71.3389   42.2341   57.4705 C   0  0  0  0  0  0  0  0  0  0  0  0
   72.6523   42.5190   57.7786 C   0  0  0  0  0  0  0  0  0  0  0  0
   72.9357   43.8174   58.2011 C   0  0  0  0  0  0  0  0  0  0  0  0
   74.7748   44.1771   58.6210 Br  0  0  0  0  0  0  0  0  0  0  0  0
   71.9644   44.7882   58.3116 C   0  0  0  0  0  0  0  0  0  0  0  0
   70.6701   44.4323   57.9858 C   0  0  0  0  0  0  0  0  0  0  0  0
  1  2  1  0
  2  3  2  0
  2  4  1  0
  3 13  1  0
 13 14  1  0
 14 15  2  0
 14 16  1  0
 16 17  2  0
 16 22  1  0
 17 18  1  0
 18 19  2  0
 19 20  1  0
 19 21  1  0
 21 22  2  0
  4  5  2  0
  4  9  1  0
  5  6  1  0
  6  7  2  0
  7  8  1  0
  8 10  1  0
  8  9  2  0
 10 11  2  0
 10 12  1  0
M  CHG  3   3   1  10   1  12  -1
M  END
>  <minimizedAffinity>  (636) 
-8.87154

$$$$
data/200k_reference_output/data/smiles/53569.pdb
     RDKit          3D

 29 31  0  0  0  0  0  0  0  0999 V2000
   71.8738   43.3844   57.7513 C   0  0  0  0  0  0  0  0  0  0  0  0
   70.4961   43.5629   58.3280 C   0  0  2  0  0  0  0  0  0  0  0  0
   70.4751   43.2600   59.8102 C   0  0  0  0  0  0  0  0  0  0  0  0
   70.1851   41.8548   59.3361 C   0  0  0  0  0  0  0  0  0  0  0  0
   69.5927   42.4571   58.1278 N   0  0  0  0  0  0  0  0  0  0  0  0
   68.5896   42.1006   57.1964 C   0  0  0  0  0  0  0  0  0  0  0  0
   68.3378   42.8847   56.2504 O   0  0  0  0  0  0  0  0  0  0  0  0
   69.9633   44.9101   57.9789 C   0  0  0  0  0  0  0  0  0  0  0  0
   69.7374   45.8123   58.8239 O   0  0  0  0  0  0  0  0  0  0  0  0
   69.6725   45.2548   56.6231 N   0  0  0  0  0  0  0  0  0  0  0  0
   69.0540   46.8108   56.1999 S   0  0  0  0  0  0  0  0  0  0  0  0
   67.7752   47.0509   56.9479 O   0  0  0  0  0  0  0  0  0  0  0  0
   70.0357   47.9038   56.5972 O   0  0  0  0  0  0  0  0  0  0  0  0
   68.8108   46.8411   54.4724 C   0  0  0  0  0  0  0  0  0  0  0  0
   69.3732   47.8341   53.7010 C   0  0  0  0  0  0  0  0  0  0  0  0
   69.1779   47.8504   52.3466 C   0  0  0  0  0  0  0  0  0  0  0  0
   68.4176   46.8801   51.7128 C   0  0  0  0  0  0  0  0  0  0  0  0
   67.8527   45.8847   52.4728 C   0  0  0  0  0  0  0  0  0  0  0  0
   67.1046   44.9211   51.8824 F   0  0  0  0  0  0  0  0  0  0  0  0
   68.0569   45.8757   53.8510 C   0  0  0  0  0  0  0  0  0  0  0  0
   67.8460   40.8298   57.3286 C   0  0  0  0  0  0  0  0  0  0  0  0
   67.2572   40.6421   58.6583 C   0  0  0  0  0  0  0  0  0  0  0  0
   66.5784   41.6744   59.2624 C   0  0  0  0  0  0  0  0  0  0  0  0
   66.0045   41.5442   60.5180 C   0  0  0  0  0  0  0  0  0  0  0  0
   65.3354   42.5633   61.1130 F   0  0  0  0  0  0  0  0  0  0  0  0
   66.1040   40.3592   61.1963 C   0  0  0  0  0  0  0  0  0  0  0  0
   66.7863   39.3102   60.5963 C   0  0  0  0  0  0  0  0  0  0  0  0
   67.3528   39.4540   59.3464 C   0  0  0  0  0  0  0  0  0  0  0  0
   67.9987   38.3786   58.8384 F   0  0  0  0  0  0  0  0  0  0  0  0
  2  1  1  6
  2  8  1  0
  2  3  1  0
  2  5  1  0
  8  9  2  0
  8 10  1  0
 10 11  1  0
 11 12  2  0
 11 13  2  0
 11 14  1  0
 14 15  2  0
 14 20  1  0
 15 16  1  0
 16 17  2  0
 17 18  1  0
 18 19  1  0
 18 20  2  0
  3  4  1  0
  4  5  1  0
  5  6  1  0
  6  7  2  0
  6 21  1  0
 21 22  1  0
 22 23  2  0
 22 28  1  0
 23 24  1  0
 24 25  1  0
 24 26  2  0
 26 27  1  0
 27 28  2  0
 28 29  1  0
M  END
>  <minimizedAffinity>  (637) 
-8.57320

$$$$
data/200k_reference_output/data/smiles/53588.pdb
     RDKit          3D

 23 25  0  0  0  0  0  0  0  0999 V2000
   74.8614   34.4911   53.9160 N   0  0  0  0  0  0  0  0  0  0  0  0
   75.2490   34.1936   55.2028 C   0  0  0  0  0  0  0  0  0  0  0  0
   74.5191   34.5953   56.2906 C   0  0  0  0  0  0  0  0  0  0  0  0
   73.3547   35.3207   56.1505 C   0  0  0  0  0  0  0  0  0  0  0  0
   72.9889   35.6069   54.8568 C   0  0  0  0  0  0  0  0  0  0  0  0
   73.7554   35.1826   53.7669 C   0  0  0  0  0  0  0  0  0  0  0  0
   72.5462   35.7700   57.2766 C   0  0  0  0  0  0  0  0  0  0  0  0
   72.1346   34.8730   58.2401 C   0  0  0  0  0  0  0  0  0  0  0  0
   71.3679   35.2823   59.3136 C   0  0  0  0  0  0  0  0  0  0  0  0
   70.9825   36.5977   59.4664 C   0  0  0  0  0  0  0  0  0  0  0  0
   70.2074   37.0263   60.5468 O   0  0  0  0  0  0  0  0  0  0  0  0
   71.3933   37.4955   58.5048 C   0  0  0  0  0  0  0  0  0  0  0  0
   72.1588   37.0854   57.4333 C   0  0  0  0  0  0  0  0  0  0  0  0
   75.7732   34.0143   52.9061 C   0  0  0  0  0  0  0  0  0  0  0  0
   76.8771   36.0886   52.7868 C   0  0  0  0  0  0  0  0  0  0  0  0
   76.4408   35.0213   52.0845 C   0  0  0  0  0  0  0  0  0  0  0  0
   76.7026   35.0009   50.6685 C   0  0  0  0  0  0  0  0  0  0  0  0
   76.0049   34.1398   49.8284 C   0  0  0  0  0  0  0  0  0  0  0  0
   76.2487   34.0348   48.4658 C   0  0  0  0  0  0  0  0  0  0  0  0
   77.2161   34.8072   47.8949 C   0  0  0  0  0  0  0  0  0  0  0  0
   77.5331   34.6465   46.0211 Br  0  0  0  0  0  0  0  0  0  0  0  0
   77.9327   35.6747   48.6806 C   0  0  0  0  0  0  0  0  0  0  0  0
   77.6689   35.7627   50.0560 C   0  0  0  0  0  0  0  0  0  0  0  0
 15 16  2  0
 16 14  1  0
 16 17  1  0
 14  1  1  0
  1  2  2  0
  1  6  1  0
  2  3  1  0
  3  4  2  0
  4  7  1  0
  4  5  1  0
  7  8  2  0
  7 13  1  0
  8  9  1  0
  9 10  2  0
 10 11  1  0
 10 12  1  0
 12 13  2  0
  5  6  2  0
 17 18  2  0
 17 23  1  0
 18 19  1  0
 19 20  2  0
 20 21  1  0
 20 22  1  0
 22 23  2  0
M  CHG  1   1   1
M  END
>  <minimizedAffinity>  (638) 
-8.78920

$$$$
data/200k_reference_output/data/smiles/53639.pdb
     RDKit          3D

 26 30  0  0  0  0  0  0  0  0999 V2000
   68.6584   47.4428   56.0265 C   0  0  2  0  0  0  0  0  0  0  0  0
   67.3147   47.3678   56.4697 O   0  0  0  0  0  0  0  0  0  0  0  0
   68.9214   53.8536   56.7680 O   0  0  0  0  0  0  0  0  0  0  0  0
   69.2274   52.8919   56.0199 C   0  0  0  0  0  0  0  0  0  0  0  0
   70.0440   52.9734   54.8767 N   0  0  0  0  0  0  0  0  0  0  0  0
   69.9557   51.7476   54.1766 C   0  0  0  0  0  0  0  0  0  0  0  0
   70.4625   51.4358   53.0767 O   0  0  0  0  0  0  0  0  0  0  0  0
   69.1203   50.7663   54.9503 C   0  0  1  0  0  0  0  0  0  0  0  0
   69.9907   49.6593   55.4473 C   0  0  1  0  0  0  0  0  0  0  0  0
   70.8051   50.4280   56.5130 C   0  0  0  0  0  0  0  0  0  0  0  0
   69.5506   50.8009   57.3280 C   0  0  2  0  0  0  0  0  0  0  0  0
   68.9775   49.4629   57.5019 C   0  0  0  0  0  0  0  0  0  0  0  0
   69.1708   48.8063   56.3606 C   0  0  0  0  0  0  0  0  0  0  0  0
   68.7554   51.5020   56.2457 C   0  0  1  0  0  0  0  0  0  0  0  0
   68.6492   47.2184   54.5768 C   0  0  0  0  0  0  0  0  0  0  0  0
   69.4982   47.8528   53.6759 C   0  0  0  0  0  0  0  0  0  0  0  0
   69.4344   47.6015   52.3197 C   0  0  0  0  0  0  0  0  0  0  0  0
   68.5241   46.7087   51.7944 C   0  0  0  0  0  0  0  0  0  0  0  0
   67.6705   46.0663   52.6728 C   0  0  0  0  0  0  0  0  0  0  0  0
   67.7532   46.3327   54.0193 C   0  0  0  0  0  0  0  0  0  0  0  0
   69.4237   46.4498   56.7824 C   0  0  0  0  0  0  0  0  0  0  0  0
   70.4282   46.8684   57.6210 C   0  0  0  0  0  0  0  0  0  0  0  0
   71.1949   45.9963   58.3677 C   0  0  0  0  0  0  0  0  0  0  0  0
   70.9515   44.6329   58.2773 C   0  0  0  0  0  0  0  0  0  0  0  0
   69.9315   44.2437   57.4240 C   0  0  0  0  0  0  0  0  0  0  0  0
   69.2119   45.1236   56.7173 N   0  0  0  0  0  0  0  0  0  0  0  0
  3  4  2  0
  4  5  1  0
 14  4  1  6
  5  6  1  0
  6  7  2  0
  8  6  1  6
  8  9  1  0
  8 14  1  0
  9 10  1  0
  9 13  1  1
 10 11  1  0
 11 12  1  6
 11 14  1  0
 12 13  2  0
 13  1  1  0
  1  2  1  1
  1 15  1  0
  1 21  1  0
 15 16  2  0
 15 20  1  0
 16 17  1  0
 17 18  2  0
 18 19  1  0
 19 20  2  0
 21 22  2  0
 21 26  1  0
 22 23  1  0
 23 24  2  0
 24 25  1  0
 25 26  2  0
M  END
>  <minimizedAffinity>  (639) 
-8.88832

$$$$
data/200k_reference_output/data/smiles/53664.pdb
     RDKit          3D

 30 33  0  0  0  0  0  0  0  0999 V2000
   70.3512   44.3578   57.7945 C   0  0  0  0  0  0  0  0  0  0  0  0
   69.3550   44.9884   57.1062 N   0  0  0  0  0  0  0  0  0  0  0  0
   69.5550   46.2797   57.1653 N   0  0  0  0  0  0  0  0  0  0  0  0
   70.6757   46.5614   57.8863 C   0  0  0  0  0  0  0  0  0  0  0  0
   71.1810   45.3490   58.2849 C   0  0  0  0  0  0  0  0  0  0  0  0
   72.4201   45.2579   59.0858 C   0  0  0  0  0  0  0  0  0  0  0  0
   72.7745   46.5854   59.5366 N   0  0  0  0  0  0  0  0  0  0  0  0
   73.1448   46.8131   60.8940 C   0  0  0  0  0  0  0  0  0  0  0  0
   73.1644   45.8507   61.7065 O   0  0  0  0  0  0  0  0  0  0  0  0
   72.7348   47.6533   58.5617 C   0  0  0  0  0  0  0  0  0  0  0  0
   71.2909   47.8754   58.2170 C   0  0  0  0  0  0  0  0  0  0  0  0
   69.7099   40.6435   58.1018 C   0  0  0  0  0  0  0  0  0  0  0  0
   70.9857   40.1465   58.2564 C   0  0  0  0  0  0  0  0  0  0  0  0
   72.0215   41.0503   58.2605 C   0  0  0  0  0  0  0  0  0  0  0  0
   71.7828   42.4025   58.1145 C   0  0  0  0  0  0  0  0  0  0  0  0
   70.5097   42.9174   57.9583 C   0  0  0  0  0  0  0  0  0  0  0  0
   69.4815   42.0070   57.9554 C   0  0  0  0  0  0  0  0  0  0  0  0
   67.6993   38.9761   58.1064 N   0  0  0  0  0  0  0  0  0  0  0  0
   68.5969   39.7142   58.0942 C   0  0  0  0  0  0  0  0  0  0  0  0
   73.5078   48.1493   61.3720 C   0  0  0  0  0  0  0  0  0  0  0  0
   73.1681   48.2934   62.6922 O   0  0  0  0  0  0  0  0  0  0  0  0
   68.6840   47.2592   56.5403 C   0  0  0  0  0  0  0  0  0  0  0  0
   68.6430   47.0746   55.0616 C   0  0  0  0  0  0  0  0  0  0  0  0
   67.9463   46.0542   54.4870 C   0  0  0  0  0  0  0  0  0  0  0  0
   67.9299   45.9159   53.1222 C   0  0  0  0  0  0  0  0  0  0  0  0
   68.6212   46.8104   52.3351 C   0  0  0  0  0  0  0  0  0  0  0  0
   68.5993   46.6655   50.9886 F   0  0  0  0  0  0  0  0  0  0  0  0
   69.3243   47.8408   52.9103 C   0  0  0  0  0  0  0  0  0  0  0  0
   69.3306   47.9677   54.2834 C   0  0  0  0  0  0  0  0  0  0  0  0
   70.0332   48.9972   54.8702 F   0  0  0  0  0  0  0  0  0  0  0  0
 18 19  3  0
 19 12  1  0
 12 13  2  0
 12 17  1  0
 13 14  1  0
 14 15  2  0
 15 16  1  0
 16  1  1  0
 16 17  2  0
  1  2  2  0
  1  5  1  0
  2  3  1  0
  3 22  1  0
  3  4  1  0
 22 23  1  0
 23 24  2  0
 23 29  1  0
 24 25  1  0
 25 26  2  0
 26 27  1  0
 26 28  1  0
 28 29  2  0
 29 30  1  0
  4  5  2  0
  4 11  1  0
  5  6  1  0
  6  7  1  0
  7  8  1  0
  7 10  1  0
  8  9  2  0
  8 20  1  0
 20 21  1  0
 10 11  1  0
M  END
>  <minimizedAffinity>  (640) 
-8.66485

$$$$
data/200k_reference_output/data/smiles/53762.pdb
     RDKit          3D

 32 36  0  0  0  0  0  0  0  0999 V2000
   70.9574   49.5764   57.3269 C   0  0  0  0  0  0  0  0  0  0  0  0
   70.2232   48.4211   57.6763 C   0  0  0  0  0  0  0  0  0  0  0  0
   69.4986   47.8056   56.6759 C   0  0  0  0  0  0  0  0  0  0  0  0
   69.4193   48.2000   55.3498 C   0  0  0  0  0  0  0  0  0  0  0  0
   70.1496   49.3177   55.0392 C   0  0  0  0  0  0  0  0  0  0  0  0
   70.8552   49.9364   56.0171 C   0  0  0  0  0  0  0  0  0  0  0  0
   70.1520   49.5843   53.6466 C   0  0  0  0  0  0  0  0  0  0  0  0
   70.8256   50.5637   53.2887 O   0  0  0  0  0  0  0  0  0  0  0  0
   69.4611   48.7910   52.7276 N   0  0  0  0  0  0  0  0  0  0  0  0
   68.7527   47.6713   53.2139 C   0  0  0  0  0  0  0  0  0  0  0  0
   68.2707   46.6879   52.3700 C   0  0  0  0  0  0  0  0  0  0  0  0
   68.2929   46.9766   50.9878 F   0  0  0  0  0  0  0  0  0  0  0  0
   67.7981   45.5196   52.7887 C   0  0  0  0  0  0  0  0  0  0  0  0
   67.4440   44.5476   51.9196 F   0  0  0  0  0  0  0  0  0  0  0  0
   67.7288   45.1733   54.1728 C   0  0  0  0  0  0  0  0  0  0  0  0
   67.2601   44.0230   54.6082 F   0  0  0  0  0  0  0  0  0  0  0  0
   68.2217   46.1807   55.0246 C   0  0  0  0  0  0  0  0  0  0  0  0
   68.7103   47.3438   54.5545 C   0  0  0  0  0  0  0  0  0  0  0  0
   71.8382   50.2717   58.2354 C   0  0  0  0  0  0  0  0  0  0  0  0
   73.0311   49.7590   58.9038 C   0  0  1  0  0  0  0  0  0  0  0  0
   72.8742   48.4990   59.5709 N   0  0  0  0  0  0  0  0  0  0  0  0
   72.7261   47.5506   60.5026 C   0  0  0  0  0  0  0  0  0  0  0  0
   72.5656   47.8402   61.6765 O   0  0  0  0  0  0  0  0  0  0  0  0
   72.7838   46.1088   60.0815 C   0  0  1  0  0  0  0  0  0  0  0  0
   71.8323   45.2425   60.6448 N   0  0  0  0  0  0  0  0  0  0  0  0
   71.6377   44.2307   59.5817 C   0  0  2  0  0  0  0  0  0  0  0  0
   72.9292   43.6283   59.1458 C   0  0  0  0  0  0  0  0  0  0  0  0
   73.6752   44.6796   58.3534 C   0  0  0  0  0  0  0  0  0  0  0  0
   72.7974   45.8905   58.5987 C   0  0  1  0  0  0  0  0  0  0  0  0
   71.4081   45.2104   58.4284 C   0  0  0  0  0  0  0  0  0  0  0  0
   75.2243   49.2283   57.1731 N   0  0  0  0  0  0  0  0  0  0  0  0
   74.1170   49.5008   58.0544 C   0  0  0  0  0  0  0  0  0  0  0  0
 31 32  3  0
 20 32  1  6
 20 19  1  0
 20 21  1  0
 19  1  1  0
  1  2  2  0
  1  6  1  0
  2  3  1  0
  3  4  2  0
  4  5  1  0
  4 18  1  0
  5  6  2  0
  5  7  1  0
  7  8  2  0
  7  9  1  0
  9 10  1  0
 10 11  1  0
 10 18  2  0
 11 12  1  0
 11 13  2  0
 13 14  1  0
 13 15  1  0
 15 16  1  0
 15 17  2  0
 17 18  1  0
 21 22  1  0
 22 23  2  0
 24 22  1  6
 24 25  1  0
 24 29  1  0
 25 26  1  0
 26 27  1  6
 26 30  1  0
 27 28  1  0
 29 28  1  1
 29 30  1  0
M  CHG  1  25   1
M  END
>  <minimizedAffinity>  (641) 
-8.85976

$$$$
data/200k_reference_output/data/smiles/53821.pdb
     RDKit          3D

 29 32  0  0  0  0  0  0  0  0999 V2000
   68.4159   43.1449   56.2856 C   0  0  0  0  0  0  0  0  0  0  0  0
   69.5480   43.5538   56.6721 O   0  0  0  0  0  0  0  0  0  0  0  0
   67.7024   43.9428   55.3827 N   0  0  0  0  0  0  0  0  0  0  0  0
   68.1735   45.1868   54.8715 C   0  0  0  0  0  0  0  0  0  0  0  0
   68.4984   46.1712   55.7892 C   0  0  0  0  0  0  0  0  0  0  0  0
   68.9725   47.4281   55.3622 C   0  0  0  0  0  0  0  0  0  0  0  0
   69.0974   47.6348   54.0225 C   0  0  0  0  0  0  0  0  0  0  0  0
   68.7865   46.6872   53.0766 C   0  0  0  0  0  0  0  0  0  0  0  0
   68.3195   45.4521   53.5293 C   0  0  0  0  0  0  0  0  0  0  0  0
   69.0579   47.3018   51.7705 C   0  0  0  0  0  0  0  0  0  0  0  0
   69.5531   48.6756   52.0641 C   0  0  0  0  0  0  0  0  0  0  0  0
   69.8898   49.4999   51.1782 O   0  0  0  0  0  0  0  0  0  0  0  0
   69.5591   48.8398   53.4820 N   0  0  0  0  0  0  0  0  0  0  0  0
   69.9318   49.9433   54.3431 C   0  0  0  0  0  0  0  0  0  0  0  0
   70.2011   49.5463   55.7395 C   0  0  0  0  0  0  0  0  0  0  0  0
   69.3232   48.4880   56.3008 C   0  0  0  0  0  0  0  0  0  0  0  0
   68.6422   41.1370   57.8010 N   0  0  0  0  0  0  0  0  0  0  0  0
   67.9533   41.8765   56.8185 C   0  0  0  0  0  0  0  0  0  0  0  0
   66.8734   41.4163   56.3720 O   0  0  0  0  0  0  0  0  0  0  0  0
   68.2065   39.8822   58.3423 C   0  0  0  0  0  0  0  0  0  0  0  0
   68.9636   39.5056   59.6079 C   0  0  0  0  0  0  0  0  0  0  0  0
   69.9132   37.2268   59.8773 C   0  0  0  0  0  0  0  0  0  0  0  0
   70.8387   36.2335   59.5306 C   0  0  0  0  0  0  0  0  0  0  0  0
   71.7889   36.4608   58.5610 C   0  0  0  0  0  0  0  0  0  0  0  0
   71.8053   37.6894   57.9390 C   0  0  0  0  0  0  0  0  0  0  0  0
   70.8859   38.6581   58.2917 C   0  0  0  0  0  0  0  0  0  0  0  0
   69.9312   38.4502   59.2563 C   0  0  0  0  0  0  0  0  0  0  0  0
   69.2855   36.1832   62.0115 C   0  0  0  0  0  0  0  0  0  0  0  0
   69.0003   36.9097   60.8564 O   0  0  0  0  0  0  0  0  0  0  0  0
 28 29  1  0
 29 22  1  0
 22 23  2  0
 22 27  1  0
 23 24  1  0
 24 25  2  0
 25 26  1  0
 26 27  2  0
 27 21  1  0
 21 20  1  0
 20 17  1  0
 17 18  1  0
 18 19  2  0
 18  1  1  0
  1  2  2  0
  1  3  1  0
  3  4  1  0
  4  5  2  0
  4  9  1  0
  5  6  1  0
  6  7  2  0
  6 16  1  0
  7  8  1  0
  7 13  1  0
  8  9  2  0
  8 10  1  0
 10 11  1  0
 11 12  2  0
 11 13  1  0
 13 14  1  0
 14 15  1  0
 15 16  1  0
M  END
>  <minimizedAffinity>  (642) 
-8.72279

$$$$
data/200k_reference_output/data/smiles/53905.pdb
     RDKit          3D

 25 27  0  0  0  0  0  0  0  0999 V2000
   69.4370   44.1952   57.2039 N   0  0  0  0  0  0  0  0  0  0  0  0
   69.4623   42.8154   57.3534 C   0  0  0  0  0  0  0  0  0  0  0  0
   68.7447   42.0947   56.6473 O   0  0  0  0  0  0  0  0  0  0  0  0
   70.2925   42.1388   58.3034 N   0  0  0  0  0  0  0  0  0  0  0  0
   70.3109   40.7317   58.4474 C   0  0  0  0  0  0  0  0  0  0  0  0
   69.2013   39.9628   58.7130 C   0  0  0  0  0  0  0  0  0  0  0  0
   69.3233   38.5936   58.8366 C   0  0  0  0  0  0  0  0  0  0  0  0
   70.5556   37.9492   58.6982 C   0  0  0  0  0  0  0  0  0  0  0  0
   71.6699   38.7164   58.4334 C   0  0  0  0  0  0  0  0  0  0  0  0
   71.5212   40.0844   58.3142 C   0  0  0  0  0  0  0  0  0  0  0  0
   72.7358   37.8453   58.3473 O   0  0  0  0  0  0  0  0  0  0  0  0
   72.3757   36.5436   58.7581 C   0  0  0  0  0  0  0  0  0  0  0  0
   70.9581   36.6184   58.7718 O   0  0  0  0  0  0  0  0  0  0  0  0
   69.7616   47.0506   56.7599 O   0  0  0  0  0  0  0  0  0  0  0  0
   68.8993   46.3954   56.1700 C   0  0  0  0  0  0  0  0  0  0  0  0
   68.7212   45.0136   56.3658 N   0  0  0  0  0  0  0  0  0  0  0  0
   68.0018   47.1252   55.1934 C   0  0  0  0  0  0  0  0  0  0  0  0
   68.7599   47.4962   53.9784 C   0  0  0  0  0  0  0  0  0  0  0  0
   69.5431   48.6112   53.9516 C   0  0  0  0  0  0  0  0  0  0  0  0
   69.6689   49.4374   55.0311 F   0  0  0  0  0  0  0  0  0  0  0  0
   70.2415   48.9302   52.7955 C   0  0  0  0  0  0  0  0  0  0  0  0
   70.1484   48.1226   51.6680 C   0  0  0  0  0  0  0  0  0  0  0  0
   69.3592   46.9980   51.6934 C   0  0  0  0  0  0  0  0  0  0  0  0
   68.6611   46.6900   52.8659 C   0  0  0  0  0  0  0  0  0  0  0  0
   67.6503   45.2708   52.9314 Cl  0  0  0  0  0  0  0  0  0  0  0  0
 14 15  2  0
 15 17  1  0
 15 16  1  0
 17 18  1  0
 18 19  2  0
 18 24  1  0
 19 20  1  0
 19 21  1  0
 21 22  2  0
 22 23  1  0
 23 24  2  0
 24 25  1  0
 16  1  1  0
  1  2  1  0
  2  3  2  0
  2  4  1  0
  4  5  1  0
  5  6  2  0
  5 10  1  0
  6  7  1  0
  7  8  2  0
  8  9  1  0
  8 13  1  0
  9 10  2  0
  9 11  1  0
 11 12  1  0
 12 13  1  0
M  END
>  <minimizedAffinity>  (643) 
-8.64066

$$$$
data/200k_reference_output/data/smiles/54006.pdb
     RDKit          3D

 30 33  0  0  0  0  0  0  0  0999 V2000
   71.3246   46.4960   59.1498 C   0  0  0  0  0  0  0  0  0  0  0  0
   72.4570   47.3226   59.0584 C   0  0  0  0  0  0  0  0  0  0  0  0
   72.4950   48.4455   58.2924 C   0  0  0  0  0  0  0  0  0  0  0  0
   71.3914   48.8312   57.5531 C   0  0  0  0  0  0  0  0  0  0  0  0
   70.2657   48.0563   57.6098 C   0  0  0  0  0  0  0  0  0  0  0  0
   70.2711   46.9080   58.4112 C   0  0  0  0  0  0  0  0  0  0  0  0
   71.5736   44.0228   59.6153 C   0  0  0  0  0  0  0  0  0  0  0  0
   71.6622   43.7537   58.4049 O   0  0  0  0  0  0  0  0  0  0  0  0
   71.4093   45.3761   59.9721 N   0  0  0  0  0  0  0  0  0  0  0  0
   66.9268   41.5634   62.4248 C   0  0  0  0  0  0  0  0  0  0  0  0
   68.2415   41.8375   63.0201 C   0  0  0  0  0  0  0  0  0  0  0  0
   68.3604   41.6505   64.2696 O   0  0  0  0  0  0  0  0  0  0  0  0
   69.3633   42.2930   62.2817 N   0  0  0  0  0  0  0  0  0  0  0  0
   69.2659   42.5184   60.8546 C   0  0  0  0  0  0  0  0  0  0  0  0
   70.5441   41.9405   60.2541 C   0  0  0  0  0  0  0  0  0  0  0  0
   71.6477   42.9142   60.5990 C   0  0  0  0  0  0  0  0  0  0  0  0
   71.5325   43.4034   62.0217 C   0  0  0  0  0  0  0  0  0  0  0  0
   70.6479   42.5569   62.8896 C   0  0  0  0  0  0  0  0  0  0  0  0
   69.0719   48.4144   56.8441 C   0  0  0  0  0  0  0  0  0  0  0  0
   68.7297   47.5409   55.7224 C   0  0  0  0  0  0  0  0  0  0  0  0
   68.0296   46.3859   55.9790 N   0  0  0  0  0  0  0  0  0  0  0  0
   67.7223   45.5930   54.9841 N   0  0  0  0  0  0  0  0  0  0  0  0
   68.0457   45.8287   53.7172 C   0  0  0  0  0  0  0  0  0  0  0  0
   67.7277   45.0332   52.7924 O   0  0  0  0  0  0  0  0  0  0  0  0
   68.7648   46.9986   53.3904 C   0  0  0  0  0  0  0  0  0  0  0  0
   69.0962   47.8421   54.4225 C   0  0  0  0  0  0  0  0  0  0  0  0
   69.8494   49.1057   54.1677 C   0  0  0  0  0  0  0  0  0  0  0  0
   69.6230   49.5336   52.7242 C   0  0  0  0  0  0  0  0  0  0  0  0
   70.0709   48.3697   51.8533 C   0  0  0  0  0  0  0  0  0  0  0  0
   69.1021   47.2371   51.9725 C   0  0  0  0  0  0  0  0  0  0  0  0
 10 11  1  0
 11 12  2  0
 11 13  1  0
 13 14  1  0
 13 18  1  0
 14 15  1  0
 15 16  1  0
 16  7  1  0
 16 17  1  0
  7  8  2  0
  7  9  1  0
  9  1  1  0
  1  2  2  0
  1  6  1  0
  2  3  1  0
  3  4  2  0
  4  5  1  0
  5 19  1  0
  5  6  2  0
 19 20  1  0
 20 21  2  0
 20 26  1  0
 21 22  1  0
 22 23  1  0
 23 24  2  0
 23 25  1  0
 25 26  2  0
 25 30  1  0
 26 27  1  0
 27 28  1  0
 28 29  1  0
 29 30  1  0
 17 18  1  0
M  END
>  <minimizedAffinity>  (644) 
-9.10324

$$$$
data/200k_reference_output/data/smiles/54117.pdb
     RDKit          3D

 26 28  0  0  0  0  0  0  0  0999 V2000
   75.7340   34.3127   52.5284 N   0  0  0  0  0  0  0  0  0  0  0  0
   75.1624   34.7564   53.7699 C   0  0  0  0  0  0  0  0  0  0  0  0
   75.7132   35.7130   54.3143 O   0  0  0  0  0  0  0  0  0  0  0  0
   74.0408   34.1498   54.3474 N   0  0  0  0  0  0  0  0  0  0  0  0
   73.4222   34.5228   55.5556 C   0  0  0  0  0  0  0  0  0  0  0  0
   73.2126   33.5186   56.5123 C   0  0  0  0  0  0  0  0  0  0  0  0
   72.6167   33.7634   57.7296 C   0  0  0  0  0  0  0  0  0  0  0  0
   72.2055   35.0451   58.0316 C   0  0  0  0  0  0  0  0  0  0  0  0
   71.5960   35.3516   59.2513 C   0  0  0  0  0  0  0  0  0  0  0  0
   71.3948   34.2723   60.2262 C   0  0  0  0  0  0  0  0  0  0  0  0
   71.2092   36.6527   59.4889 C   0  0  0  0  0  0  0  0  0  0  0  0
   71.4214   37.6298   58.5391 C   0  0  0  0  0  0  0  0  0  0  0  0
   71.0542   38.8239   58.7856 O   0  0  0  0  0  0  0  0  0  0  0  0
   71.9932   37.2916   57.4215 O   0  0  0  0  0  0  0  0  0  0  0  0
   72.3835   36.0726   57.1340 C   0  0  0  0  0  0  0  0  0  0  0  0
   72.9901   35.7639   55.9240 C   0  0  0  0  0  0  0  0  0  0  0  0
   77.1133   35.0831   51.8494 S   0  0  0  0  0  0  0  0  0  0  0  0
   77.0808   36.5452   52.1920 O   0  0  0  0  0  0  0  0  0  0  0  0
   78.3790   34.4298   52.3473 O   0  0  0  0  0  0  0  0  0  0  0  0
   77.1448   34.4834   45.8244 C   0  0  0  0  0  0  0  0  0  0  0  0
   77.1079   34.6044   47.3115 C   0  0  0  0  0  0  0  0  0  0  0  0
   77.9901   35.4711   47.9280 C   0  0  0  0  0  0  0  0  0  0  0  0
   77.9710   35.5986   49.3091 C   0  0  0  0  0  0  0  0  0  0  0  0
   77.1016   34.8895   50.1002 C   0  0  0  0  0  0  0  0  0  0  0  0
   76.2237   34.0257   49.4730 C   0  0  0  0  0  0  0  0  0  0  0  0
   76.2302   33.8883   48.0885 C   0  0  0  0  0  0  0  0  0  0  0  0
 20 21  1  0
 21 22  2  0
 21 26  1  0
 22 23  1  0
 23 24  2  0
 24 17  1  0
 24 25  1  0
 17 18  2  0
 17 19  2  0
 17  1  1  0
  1  2  1  0
  2  3  2  0
  2  4  1  0
  4  5  1  0
  5  6  2  0
  5 16  1  0
  6  7  1  0
  7  8  2  0
  8  9  1  0
  8 15  1  0
  9 10  1  0
  9 11  2  0
 11 12  1  0
 12 13  2  0
 12 14  1  0
 14 15  1  0
 15 16  2  0
 25 26  2  0
M  END
>  <minimizedAffinity>  (645) 
-8.50877

$$$$
data/200k_reference_output/data/smiles/54171.pdb
     RDKit          3D

 30 32  0  0  0  0  0  0  0  0999 V2000
   67.4820   41.5008   57.1597 C   0  0  0  0  0  0  0  0  0  0  0  0
   68.4103   40.3836   56.7624 C   0  0  0  0  0  0  0  0  0  0  0  0
   69.0390   39.7868   57.9965 C   0  0  0  0  0  0  0  0  0  0  0  0
   68.0361   39.2440   58.8944 N   0  0  0  0  0  0  0  0  0  0  0  0
   67.0354   40.2006   59.2506 C   0  0  0  0  0  0  0  0  0  0  0  0
   67.3397   41.5589   58.6663 C   0  0  0  0  0  0  0  0  0  0  0  0
   67.5309   43.5271   55.6141 N   0  0  0  0  0  0  0  0  0  0  0  0
   68.0415   42.8226   56.7254 C   0  0  0  0  0  0  0  0  0  0  0  0
   68.9992   43.3329   57.3644 O   0  0  0  0  0  0  0  0  0  0  0  0
   67.9572   45.3320   53.9829 C   0  0  0  0  0  0  0  0  0  0  0  0
   67.2698   44.6556   53.1577 O   0  0  0  0  0  0  0  0  0  0  0  0
   68.0983   44.7498   55.2663 N   0  0  0  0  0  0  0  0  0  0  0  0
   69.6437   49.1229   52.9437 C   0  0  0  0  0  0  0  0  0  0  0  0
   69.5262   48.1263   51.9986 C   0  0  0  0  0  0  0  0  0  0  0  0
   68.9810   46.8914   52.3241 C   0  0  0  0  0  0  0  0  0  0  0  0
   68.5368   46.6075   53.5873 C   0  0  0  0  0  0  0  0  0  0  0  0
   68.6550   47.6055   54.5308 C   0  0  0  0  0  0  0  0  0  0  0  0
   69.1967   48.8385   54.2177 C   0  0  0  0  0  0  0  0  0  0  0  0
   70.1921   51.4348   53.5514 C   0  0  0  0  0  0  0  0  0  0  0  0
   70.1925   50.3699   52.6220 O   0  0  0  0  0  0  0  0  0  0  0  0
   68.7193   38.5230   60.2787 S   0  0  0  0  0  0  0  0  0  0  0  0
   69.3902   39.5471   61.1485 O   0  0  0  0  0  0  0  0  0  0  0  0
   67.6190   37.8832   61.0772 O   0  0  0  0  0  0  0  0  0  0  0  0
   69.8498   37.2482   59.8587 C   0  0  0  0  0  0  0  0  0  0  0  0
   69.8516   36.0574   60.5443 C   0  0  0  0  0  0  0  0  0  0  0  0
   70.7255   35.0389   60.2402 C   0  0  0  0  0  0  0  0  0  0  0  0
   71.6242   35.2146   59.2206 C   0  0  0  0  0  0  0  0  0  0  0  0
   72.5690   34.1245   58.8855 C   0  0  0  0  0  0  0  0  0  0  0  0
   71.6265   36.4097   58.5289 C   0  0  0  0  0  0  0  0  0  0  0  0
   70.7478   37.4207   58.8417 C   0  0  0  0  0  0  0  0  0  0  0  0
 19 20  1  0
 20 13  1  0
 13 14  2  0
 13 18  1  0
 14 15  1  0
 15 16  2  0
 16 10  1  0
 16 17  1  0
 10 11  2  0
 10 12  1  0
 12  7  1  0
  7  8  1  0
  8  9  2  0
  8  1  1  0
  1  2  1  0
  1  6  1  0
  2  3  1  0
  3  4  1  0
  4 21  1  0
  4  5  1  0
 21 22  2  0
 21 23  2  0
 21 24  1  0
 24 25  2  0
 24 30  1  0
 25 26  1  0
 26 27  2  0
 27 28  1  0
 27 29  1  0
 29 30  2  0
  5  6  1  0
 17 18  2  0
M  END
>  <minimizedAffinity>  (646) 
-8.71898

$$$$
data/200k_reference_output/data/smiles/54583.pdb
     RDKit          3D

 32 35  0  0  0  0  0  0  0  0999 V2000
   71.6844   40.1063   59.1600 N   0  0  0  0  0  0  0  0  0  0  0  0
   71.0399   39.0343   58.4349 C   0  0  0  0  0  0  0  0  0  0  0  0
   72.1345   37.9700   58.3325 C   0  0  0  0  0  0  0  0  0  0  0  0
   72.2043   36.9457   57.4715 C   0  0  0  0  0  0  0  0  0  0  0  0
   73.2613   35.9858   57.4970 C   0  0  0  0  0  0  0  0  0  0  0  0
   74.1642   36.1729   58.4491 C   0  0  0  0  0  0  0  0  0  0  0  0
   74.1223   37.2397   59.3752 C   0  0  0  0  0  0  0  0  0  0  0  0
   73.1041   38.1618   59.3240 C   0  0  0  0  0  0  0  0  0  0  0  0
   72.8045   39.5084   59.8496 C   0  0  0  0  0  0  0  0  0  0  0  0
   73.4629   40.0251   60.7930 O   0  0  0  0  0  0  0  0  0  0  0  0
   73.3285   35.1403   56.2683 C   0  0  0  0  0  0  0  0  0  0  0  0
   72.7010   35.6357   55.1448 C   0  0  0  0  0  0  0  0  0  0  0  0
   73.1783   35.1996   53.8945 C   0  0  0  0  0  0  0  0  0  0  0  0
   74.2130   34.3387   53.8051 C   0  0  0  0  0  0  0  0  0  0  0  0
   74.8245   33.8197   54.8988 C   0  0  0  0  0  0  0  0  0  0  0  0
   74.3630   34.2312   56.1759 C   0  0  0  0  0  0  0  0  0  0  0  0
   75.0815   34.5500   52.5048 C   0  0  0  0  0  0  0  0  0  0  0  0
   75.6863   34.6963   51.5932 C   0  0  0  0  0  0  0  0  0  0  0  0
   76.4693   34.8607   50.4355 C   0  0  0  0  0  0  0  0  0  0  0  0
   76.0966   34.1536   49.2462 C   0  0  0  0  0  0  0  0  0  0  0  0
   76.6790   34.2794   48.0338 C   0  0  0  0  0  0  0  0  0  0  0  0
   77.7325   35.1287   47.8497 C   0  0  0  0  0  0  0  0  0  0  0  0
   78.1893   35.8933   49.0370 C   0  0  0  0  0  0  0  0  0  0  0  0
   77.5091   35.6700   50.1778 C   0  0  0  0  0  0  0  0  0  0  0  0
   71.3940   41.5026   59.0641 C   0  0  1  0  0  0  0  0  0  0  0  0
   70.4313   42.0540   59.9881 C   0  0  0  0  0  0  0  0  0  0  0  0
   70.4975   41.6880   61.2160 O   0  0  0  0  0  0  0  0  0  0  0  0
   69.4312   42.9780   59.6048 N   0  0  0  0  0  0  0  0  0  0  0  0
   68.4956   43.5371   60.4093 O   0  0  0  0  0  0  0  0  0  0  0  0
   73.0433   42.7091   57.5046 C   0  0  0  0  0  0  0  0  0  0  0  0
   72.6658   42.3131   58.8654 C   0  0  1  0  0  0  0  0  0  0  0  0
   72.5349   43.5169   59.6426 O   0  0  0  0  0  0  0  0  0  0  0  0
 31 30  1  6
 31 32  1  0
 31 25  1  0
 25 26  1  0
 25  1  1  1
 26 27  2  0
 26 28  1  0
 28 29  1  0
  1  2  1  0
  1  9  1  0
  2  3  1  0
  3  4  2  0
  3  8  1  0
  4  5  1  0
  5 11  1  0
  5  6  2  0
 11 12  2  0
 11 16  1  0
 12 13  1  0
 13 14  2  0
 14 17  1  0
 14 15  1  0
 17 18  3  0
 18 19  1  0
 19 20  2  0
 19 24  1  0
 20 21  1  0
 21 22  2  0
 22 23  1  0
 23 24  2  0
 15 16  2  0
  6  7  1  0
  7  8  2  0
  8  9  1  0
  9 10  2  0
M  END
>  <minimizedAffinity>  (647) 
-8.71438

$$$$
data/200k_reference_output/data/smiles/54742.pdb
     RDKit          3D

 27 30  0  0  0  0  0  0  0  0999 V2000
   68.7667   46.6614   56.0810 N   0  0  0  0  0  0  0  0  0  0  0  0
   66.6005   41.8216   55.3972 C   0  0  0  0  0  0  0  0  0  0  0  0
   67.7972   41.9365   56.2095 N   0  0  0  0  0  0  0  0  0  0  0  0
   68.3844   40.9001   56.7906 C   0  0  0  0  0  0  0  0  0  0  0  0
   67.8526   39.7618   56.6133 O   0  0  0  0  0  0  0  0  0  0  0  0
   69.5087   41.0353   57.5483 N   0  0  0  0  0  0  0  0  0  0  0  0
   70.0684   42.2572   57.7320 C   0  0  0  0  0  0  0  0  0  0  0  0
   71.1009   42.4022   58.4250 O   0  0  0  0  0  0  0  0  0  0  0  0
   69.4880   43.3558   57.1439 C   0  0  0  0  0  0  0  0  0  0  0  0
   69.8102   44.6813   57.1403 N   0  0  0  0  0  0  0  0  0  0  0  0
   68.8987   45.2937   56.4020 C   0  0  0  0  0  0  0  0  0  0  0  0
   67.9977   44.3504   55.9386 N   0  0  0  0  0  0  0  0  0  0  0  0
   68.3628   43.1656   56.3950 C   0  0  0  0  0  0  0  0  0  0  0  0
   69.3777   47.7462   56.7444 C   0  0  0  0  0  0  0  0  0  0  0  0
   68.5464   48.9310   57.0316 C   0  0  0  0  0  0  0  0  0  0  0  0
   67.3518   48.7485   57.7370 C   0  0  0  0  0  0  0  0  0  0  0  0
   66.5788   49.8299   58.0086 C   0  0  0  0  0  0  0  0  0  0  0  0
   66.9131   51.1248   57.6181 C   0  0  0  0  0  0  0  0  0  0  0  0
   68.1067   51.2628   56.9213 C   0  0  0  0  0  0  0  0  0  0  0  0
   68.8984   50.1864   56.6390 C   0  0  0  0  0  0  0  0  0  0  0  0
   67.8847   46.9651   54.9348 C   0  0  0  0  0  0  0  0  0  0  0  0
   68.6872   47.3954   53.7606 C   0  0  0  0  0  0  0  0  0  0  0  0
   69.3357   48.5931   53.7119 C   0  0  0  0  0  0  0  0  0  0  0  0
   70.0725   48.9641   52.6114 C   0  0  0  0  0  0  0  0  0  0  0  0
   70.1685   48.1161   51.5206 C   0  0  0  0  0  0  0  0  0  0  0  0
   69.5051   46.9063   51.5890 C   0  0  0  0  0  0  0  0  0  0  0  0
   68.7694   46.5232   52.6752 C   0  0  0  0  0  0  0  0  0  0  0  0
  2  3  1  0
  3  4  1  0
  3 13  1  0
  4  5  2  0
  4  6  1  0
  6  7  1  0
  7  8  2  0
  7  9  1  0
  9 10  1  0
  9 13  2  0
 10 11  1  0
 11  1  1  0
 11 12  2  0
  1 14  1  0
  1 21  1  0
 14 15  1  0
 15 16  2  0
 15 20  1  0
 16 17  1  0
 17 18  2  0
 18 19  1  0
 19 20  2  0
 21 22  1  0
 22 23  2  0
 22 27  1  0
 23 24  1  0
 24 25  2  0
 25 26  1  0
 26 27  2  0
 12 13  1  0
M  CHG  1  12   1
M  END
>  <minimizedAffinity>  (648) 
-9.05554

$$$$
data/200k_reference_output/data/smiles/54830.pdb
     RDKit          3D

 23 25  0  0  0  0  0  0  0  0999 V2000
   69.2731   43.7706   56.9245 N   0  0  0  0  0  0  0  0  0  0  0  0
   68.8325   42.5543   57.0184 C   0  0  0  0  0  0  0  0  0  0  0  0
   67.5703   42.0677   56.4795 C   0  0  0  0  0  0  0  0  0  0  0  0
   66.7538   42.7772   55.8562 O   0  0  0  0  0  0  0  0  0  0  0  0
   67.5049   40.7002   56.8126 N   0  0  0  0  0  0  0  0  0  0  0  0
   68.6563   40.2823   57.5356 C   0  0  0  0  0  0  0  0  0  0  0  0
   69.0439   39.0652   58.0678 C   0  0  0  0  0  0  0  0  0  0  0  0
   70.2384   38.9170   58.7416 C   0  0  0  0  0  0  0  0  0  0  0  0
   71.0366   40.0357   58.8642 C   0  0  0  0  0  0  0  0  0  0  0  0
   72.2254   39.9362   59.5218 F   0  0  0  0  0  0  0  0  0  0  0  0
   70.6497   41.2495   58.3329 C   0  0  0  0  0  0  0  0  0  0  0  0
   69.4531   41.4022   57.6569 C   0  0  0  0  0  0  0  0  0  0  0  0
   70.0033   46.4268   56.9620 O   0  0  0  0  0  0  0  0  0  0  0  0
   68.9638   46.1170   56.3241 C   0  0  0  0  0  0  0  0  0  0  0  0
   68.5288   44.7651   56.2629 N   0  0  0  0  0  0  0  0  0  0  0  0
   68.2251   47.2202   55.6482 C   0  0  0  0  0  0  0  0  0  0  0  0
   68.8711   47.5953   54.3658 C   0  0  0  0  0  0  0  0  0  0  0  0
   69.6625   48.7158   54.2237 C   0  0  0  0  0  0  0  0  0  0  0  0
   70.2575   49.0541   53.0302 C   0  0  0  0  0  0  0  0  0  0  0  0
   70.0804   48.2697   51.9089 C   0  0  0  0  0  0  0  0  0  0  0  0
   70.6729   48.5913   50.6853 O   0  0  0  0  0  0  0  0  0  0  0  0
   69.2893   47.1473   52.0437 C   0  0  0  0  0  0  0  0  0  0  0  0
   68.6928   46.8069   53.2383 C   0  0  0  0  0  0  0  0  0  0  0  0
 13 14  2  0
 14 16  1  0
 14 15  1  0
 16 17  1  0
 17 18  2  0
 17 23  1  0
 18 19  1  0
 19 20  2  0
 20 21  1  0
 20 22  1  0
 22 23  2  0
 15  1  1  0
  1  2  2  0
  2  3  1  0
  2 12  1  0
  3  4  2  0
  3  5  1  0
  5  6  1  0
  6  7  1  0
  6 12  2  0
  7  8  2  0
  8  9  1  0
  9 10  1  0
  9 11  2  0
 11 12  1  0
M  END
>  <minimizedAffinity>  (649) 
-8.59706

$$$$
data/200k_reference_output/data/smiles/55046.pdb
     RDKit          3D

 22 23  0  0  0  0  0  0  0  0999 V2000
   69.6997   49.7499   50.9754 N   0  0  0  0  0  0  0  0  0  0  0  0
   69.9618   49.1040   52.2422 C   0  0  0  0  0  0  0  0  0  0  0  0
   70.8463   49.6407   52.9947 N   0  0  0  0  0  0  0  0  0  0  0  0
   69.2152   47.9065   52.5532 C   0  0  0  0  0  0  0  0  0  0  0  0
   68.7035   47.0212   51.6381 C   0  0  0  0  0  0  0  0  0  0  0  0
   67.9997   45.8951   52.0678 C   0  0  0  0  0  0  0  0  0  0  0  0
   67.7903   45.6272   53.4031 C   0  0  0  0  0  0  0  0  0  0  0  0
   68.3034   46.5153   54.3159 C   0  0  0  0  0  0  0  0  0  0  0  0
   68.9969   47.6239   53.8980 C   0  0  0  0  0  0  0  0  0  0  0  0
   68.1119   46.2806   55.7159 N   0  0  0  0  0  0  0  0  0  0  0  0
   68.4961   45.2321   56.2337 O   0  0  0  0  0  0  0  0  0  0  0  0
   67.5002   47.2131   56.5056 O   0  0  0  0  0  0  0  0  0  0  0  0
   71.1478   49.0897   54.2033 O   0  0  0  0  0  0  0  0  0  0  0  0
   71.1683   49.8841   55.3504 C   0  0  0  0  0  0  0  0  0  0  0  0
   72.3359   50.1912   55.7761 O   0  0  0  0  0  0  0  0  0  0  0  0
   69.9739   50.3469   56.0366 C   0  0  0  0  0  0  0  0  0  0  0  0
   69.2616   51.4051   55.5408 C   0  0  0  0  0  0  0  0  0  0  0  0
   68.1240   51.8539   56.2030 C   0  0  0  0  0  0  0  0  0  0  0  0
   67.7294   51.2264   57.3506 C   0  0  0  0  0  0  0  0  0  0  0  0
   68.4206   50.1608   57.8777 C   0  0  0  0  0  0  0  0  0  0  0  0
   69.5605   49.7366   57.1838 C   0  0  0  0  0  0  0  0  0  0  0  0
   70.5349   48.2676   57.8660 Br  0  0  0  0  0  0  0  0  0  0  0  0
  1  2  1  0
  2  3  2  0
  2  4  1  0
  3 13  1  0
 13 14  1  0
 14 15  2  0
 14 16  1  0
 16 17  2  0
 16 21  1  0
 17 18  1  0
 18 19  2  0
 19 20  1  0
 20 21  2  0
 21 22  1  0
  4  5  2  0
  4  9  1  0
  5  6  1  0
  6  7  2  0
  7  8  1  0
  8 10  1  0
  8  9  2  0
 10 11  2  0
 10 12  1  0
M  CHG  3   3   1  10   1  12  -1
M  END
>  <minimizedAffinity>  (650) 
-8.55316

$$$$
data/200k_reference_output/data/smiles/55147.pdb
     RDKit          3D

 21 23  0  0  0  0  0  0  0  0999 V2000
   71.5921   51.8152   55.8523 O   0  0  0  0  0  0  0  0  0  0  0  0
   71.3843   50.8829   55.0291 C   0  0  0  0  0  0  0  0  0  0  0  0
   72.1927   50.5058   54.0340 N   0  0  0  0  0  0  0  0  0  0  0  0
   71.6383   49.5119   53.4062 N   0  0  0  0  0  0  0  0  0  0  0  0
   70.4134   49.1799   53.9696 C   0  0  0  0  0  0  0  0  0  0  0  0
   70.2999   50.0452   54.9579 N   0  0  0  0  0  0  0  0  0  0  0  0
   69.5715   48.1420   53.4284 C   0  0  0  0  0  0  0  0  0  0  0  0
   68.7525   47.4307   54.3240 C   0  0  0  0  0  0  0  0  0  0  0  0
   67.8861   46.4515   53.9149 C   0  0  0  0  0  0  0  0  0  0  0  0
   67.7890   46.1278   52.5912 C   0  0  0  0  0  0  0  0  0  0  0  0
   66.9106   45.1302   52.1614 O   0  0  0  0  0  0  0  0  0  0  0  0
   68.5638   46.7932   51.6946 C   0  0  0  0  0  0  0  0  0  0  0  0
   69.4448   47.7943   52.1283 C   0  0  0  0  0  0  0  0  0  0  0  0
   70.1620   48.3940   51.1424 O   0  0  0  0  0  0  0  0  0  0  0  0
   69.2313   50.2329   55.8649 C   0  0  0  0  0  0  0  0  0  0  0  0
   69.1185   49.4536   56.9851 C   0  0  0  0  0  0  0  0  0  0  0  0
   68.1085   49.6725   57.8773 C   0  0  0  0  0  0  0  0  0  0  0  0
   67.1747   50.6729   57.6861 C   0  0  0  0  0  0  0  0  0  0  0  0
   67.3162   51.4392   56.5494 C   0  0  0  0  0  0  0  0  0  0  0  0
   68.3238   51.2403   55.6353 C   0  0  0  0  0  0  0  0  0  0  0  0
   68.4217   52.0346   54.5131 F   0  0  0  0  0  0  0  0  0  0  0  0
  1  2  2  0
  2  3  1  0
  2  6  1  0
  3  4  1  0
  4  5  2  0
  5  7  1  0
  5  6  1  0
  7  8  2  0
  7 13  1  0
  8  9  1  0
  9 10  2  0
 10 11  1  0
 10 12  1  0
 12 13  2  0
 13 14  1  0
  6 15  1  0
 15 16  2  0
 15 20  1  0
 16 17  1  0
 17 18  2  0
 18 19  1  0
 19 20  2  0
 20 21  1  0
M  END
>  <minimizedAffinity>  (651) 
-8.87276

$$$$
data/200k_reference_output/data/smiles/55238.pdb
     RDKit          3D

 23 25  0  0  0  0  0  0  0  0999 V2000
   68.4575   43.7774   56.2247 N   0  0  0  0  0  0  0  0  0  0  0  0
   68.1659   42.5251   56.4156 C   0  0  0  0  0  0  0  0  0  0  0  0
   67.0810   41.8048   55.7897 C   0  0  0  0  0  0  0  0  0  0  0  0
   66.2678   42.2978   54.9694 O   0  0  0  0  0  0  0  0  0  0  0  0
   67.1527   40.4792   56.2964 N   0  0  0  0  0  0  0  0  0  0  0  0
   68.2331   40.3400   57.2108 C   0  0  0  0  0  0  0  0  0  0  0  0
   68.7121   39.2592   57.9618 C   0  0  0  0  0  0  0  0  0  0  0  0
   69.8042   39.4136   58.7852 C   0  0  0  0  0  0  0  0  0  0  0  0
   70.4830   37.9440   59.8279 Br  0  0  0  0  0  0  0  0  0  0  0  0
   70.3930   40.6607   58.8352 C   0  0  0  0  0  0  0  0  0  0  0  0
   69.9460   41.7350   58.1111 C   0  0  0  0  0  0  0  0  0  0  0  0
   68.8476   41.5714   57.2858 C   0  0  0  0  0  0  0  0  0  0  0  0
   67.6553   44.4956   55.3380 N   0  0  0  0  0  0  0  0  0  0  0  0
   69.2909   47.9936   53.5475 C   0  0  0  0  0  0  0  0  0  0  0  0
   69.2979   47.8047   54.9156 C   0  0  0  0  0  0  0  0  0  0  0  0
   68.7684   46.6726   55.5001 C   0  0  0  0  0  0  0  0  0  0  0  0
   68.2043   45.6701   54.7378 C   0  0  0  0  0  0  0  0  0  0  0  0
   68.1987   45.8593   53.3716 C   0  0  0  0  0  0  0  0  0  0  0  0
   68.7282   46.9929   52.7822 C   0  0  0  0  0  0  0  0  0  0  0  0
   69.8905   49.3973   51.1164 N   0  0  0  0  0  0  0  0  0  0  0  0
   69.9747   49.4464   52.8502 S   0  0  0  0  0  0  0  0  0  0  0  0
   71.4302   49.5364   53.2188 O   0  0  0  0  0  0  0  0  0  0  0  0
   69.2593   50.6760   53.3523 O   0  0  0  0  0  0  0  0  0  0  0  0
 20 21  1  0
 21 22  2  0
 21 23  2  0
 21 14  1  0
 14 15  2  0
 14 19  1  0
 15 16  1  0
 16 17  2  0
 17 13  1  0
 17 18  1  0
 13  1  1  0
  1  2  2  0
  2  3  1  0
  2 12  1  0
  3  4  2  0
  3  5  1  0
  5  6  1  0
  6  7  1  0
  6 12  2  0
  7  8  2  0
  8  9  1  0
  8 10  1  0
 10 11  2  0
 11 12  1  0
 18 19  2  0
M  END
>  <minimizedAffinity>  (652) 
-8.99748

$$$$
data/200k_reference_output/data/smiles/55333.pdb
     RDKit          3D

 30 33  0  0  0  0  0  0  0  0999 V2000
   70.6271   39.6303   59.6045 C   0  0  0  0  0  0  0  0  0  0  0  0
   69.1844   39.3498   59.3858 N   0  0  0  0  0  0  0  0  0  0  0  0
   68.3515   39.0525   60.4818 C   0  0  0  0  0  0  0  0  0  0  0  0
   68.8141   39.0864   61.6499 O   0  0  0  0  0  0  0  0  0  0  0  0
   66.9533   38.7014   60.3317 C   0  0  0  0  0  0  0  0  0  0  0  0
   66.5808   37.5115   59.7430 C   0  0  0  0  0  0  0  0  0  0  0  0
   65.2687   37.1168   59.6289 C   0  0  0  0  0  0  0  0  0  0  0  0
   64.2597   37.9340   60.1197 C   0  0  0  0  0  0  0  0  0  0  0  0
   64.6287   39.1239   60.7071 C   0  0  0  0  0  0  0  0  0  0  0  0
   65.9454   39.5405   60.8313 C   0  0  0  0  0  0  0  0  0  0  0  0
   66.3031   40.7932   61.3550 N   0  0  0  0  0  0  0  0  0  0  0  0
   66.3252   41.0473   62.7720 C   0  0  0  0  0  0  0  0  0  0  0  0
   67.6081   41.7352   63.1908 C   0  0  0  0  0  0  0  0  0  0  0  0
   68.0774   42.7078   62.2099 C   0  0  0  0  0  0  0  0  0  0  0  0
   69.0062   43.4928   62.5429 O   0  0  0  0  0  0  0  0  0  0  0  0
   67.5600   42.8323   60.9058 N   0  0  0  0  0  0  0  0  0  0  0  0
   66.6377   41.8577   60.4305 C   0  0  0  0  0  0  0  0  0  0  0  0
   66.1311   41.9013   59.2717 O   0  0  0  0  0  0  0  0  0  0  0  0
   68.7618   39.5054   58.0236 C   0  0  0  0  0  0  0  0  0  0  0  0
   68.7239   40.8321   57.4543 C   0  0  0  0  0  0  0  0  0  0  0  0
   69.6186   41.8560   57.7804 C   0  0  0  0  0  0  0  0  0  0  0  0
   69.5345   43.1154   57.2562 C   0  0  0  0  0  0  0  0  0  0  0  0
   68.5411   43.4029   56.3746 C   0  0  0  0  0  0  0  0  0  0  0  0
   67.6245   42.4417   56.0091 C   0  0  0  0  0  0  0  0  0  0  0  0
   67.7336   41.1718   56.5562 C   0  0  0  0  0  0  0  0  0  0  0  0
   68.4162   44.7133   55.7996 N   0  0  0  0  0  0  0  0  0  0  0  0
   68.0033   44.9598   54.5482 C   0  0  0  0  0  0  0  0  0  0  0  0
   68.0147   46.3293   54.3628 C   0  0  0  0  0  0  0  0  0  0  0  0
   68.4454   46.8703   55.5406 C   0  0  0  0  0  0  0  0  0  0  0  0
   68.6797   45.8634   56.3882 N   0  0  0  0  0  0  0  0  0  0  0  0
  1  2  1  0
  2 19  1  0
  2  3  1  0
 19 20  1  0
 20 21  2  0
 20 25  1  0
 21 22  1  0
 22 23  2  0
 23 26  1  0
 23 24  1  0
 26 27  1  0
 26 30  1  0
 27 28  2  0
 28 29  1  0
 29 30  2  0
 24 25  2  0
  3  4  2  0
  3  5  1  0
  5  6  2  0
  5 10  1  0
  6  7  1  0
  7  8  2  0
  8  9  1  0
  9 10  2  0
 10 11  1  0
 11 12  1  0
 11 17  1  0
 12 13  1  0
 13 14  1  0
 14 15  2  0
 14 16  1  0
 16 17  1  0
 17 18  2  0
M  END
>  <minimizedAffinity>  (653) 
-8.63902

$$$$
data/200k_reference_output/data/smiles/55334.pdb
     RDKit          3D

 25 27  0  0  0  0  0  0  0  0999 V2000
   68.3826   42.0478   57.1243 C   0  0  0  0  0  0  0  0  0  0  0  0
   68.9461   43.2493   56.7380 C   0  0  0  0  0  0  0  0  0  0  0  0
   68.1271   43.8748   55.8185 C   0  0  0  0  0  0  0  0  0  0  0  0
   67.1159   43.0569   55.6757 O   0  0  0  0  0  0  0  0  0  0  0  0
   67.2401   42.0005   56.4158 N   0  0  0  0  0  0  0  0  0  0  0  0
   68.3280   45.1588   55.1458 C   0  0  0  0  0  0  0  0  0  0  0  0
   68.0111   45.3404   53.8174 C   0  0  0  0  0  0  0  0  0  0  0  0
   68.1925   46.5411   53.1641 C   0  0  0  0  0  0  0  0  0  0  0  0
   68.7165   47.6588   53.8257 C   0  0  0  0  0  0  0  0  0  0  0  0
   69.0303   47.4718   55.1465 C   0  0  0  0  0  0  0  0  0  0  0  0
   68.8432   46.2608   55.7920 C   0  0  0  0  0  0  0  0  0  0  0  0
   68.9030   48.8820   53.1112 N   0  0  0  0  0  0  0  0  0  0  0  0
   70.0948   49.1646   52.4046 C   0  0  0  0  0  0  0  0  0  0  0  0
   70.0408   49.2592   51.1263 N   0  0  0  0  0  0  0  0  0  0  0  0
   71.3222   49.3232   53.1237 N   0  0  0  0  0  0  0  0  0  0  0  0
   68.8087   39.6847   57.7946 N   0  0  0  0  0  0  0  0  0  0  0  0
   68.9080   41.0634   58.0799 C   0  0  0  0  0  0  0  0  0  0  0  0
   69.4400   41.4153   59.1406 O   0  0  0  0  0  0  0  0  0  0  0  0
   72.4000   36.5647   58.8893 C   0  0  0  0  0  0  0  0  0  0  0  0
   71.0419   37.0946   59.1650 C   0  0  0  0  0  0  0  0  0  0  0  0
   70.2695   36.5912   60.1756 C   0  0  0  0  0  0  0  0  0  0  0  0
   69.0018   37.1159   60.3996 C   0  0  0  0  0  0  0  0  0  0  0  0
   68.5505   38.1141   59.6192 N   0  0  0  0  0  0  0  0  0  0  0  0
   69.2662   38.6441   58.6158 C   0  0  0  0  0  0  0  0  0  0  0  0
   70.5255   38.1296   58.3846 C   0  0  0  0  0  0  0  0  0  0  0  0
 19 20  1  0
 20 21  2  0
 20 25  1  0
 21 22  1  0
 22 23  2  0
 23 24  1  0
 24 16  1  0
 24 25  2  0
 16 17  1  0
 17 18  2  0
 17  1  1  0
  1  2  1  0
  1  5  2  0
  2  3  2  0
  3  6  1  0
  3  4  1  0
  6  7  2  0
  6 11  1  0
  7  8  1  0
  8  9  2  0
  9 12  1  0
  9 10  1  0
 12 13  1  0
 13 14  2  0
 13 15  1  0
 10 11  2  0
  4  5  1  0
M  CHG  1  14   1
M  END
>  <minimizedAffinity>  (654) 
-8.71394

$$$$
data/200k_reference_output/data/smiles/55337.pdb
     RDKit          3D

 22 24  0  0  0  0  0  0  0  0999 V2000
   68.5168   46.5216   52.8428 C   0  0  0  0  0  0  0  0  0  0  0  0
   69.1360   47.0929   51.7690 C   0  0  0  0  0  0  0  0  0  0  0  0
   69.9326   48.2370   51.9170 C   0  0  0  0  0  0  0  0  0  0  0  0
   70.5134   48.7747   50.9190 O   0  0  0  0  0  0  0  0  0  0  0  0
   70.1137   48.7954   53.0687 O   0  0  0  0  0  0  0  0  0  0  0  0
   69.5417   48.2952   54.1610 C   0  0  0  0  0  0  0  0  0  0  0  0
   69.7888   48.9487   55.3289 C   0  0  0  0  0  0  0  0  0  0  0  0
   69.2126   48.4698   56.5235 C   0  0  0  0  0  0  0  0  0  0  0  0
   68.4293   47.3614   56.4325 C   0  0  0  0  0  0  0  0  0  0  0  0
   68.1837   46.6970   55.2229 C   0  0  0  0  0  0  0  0  0  0  0  0
   68.7461   47.1653   54.0651 C   0  0  0  0  0  0  0  0  0  0  0  0
   66.7414   45.7561   50.7208 N   0  0  0  0  0  0  0  0  0  0  0  0
   66.9044   45.0257   51.8444 N   0  0  0  0  0  0  0  0  0  0  0  0
   67.6825   45.3521   52.7848 C   0  0  0  0  0  0  0  0  0  0  0  0
   69.4791   49.1497   57.6680 O   0  0  0  0  0  0  0  0  0  0  0  0
   69.0948   50.3160   58.2395 C   0  0  0  0  0  0  0  0  0  0  0  0
   69.7020   51.5007   57.6104 C   0  0  0  0  0  0  0  0  0  0  0  0
   71.0152   51.8780   57.6690 C   0  0  0  0  0  0  0  0  0  0  0  0
   71.5020   52.9915   57.0415 C   0  0  0  0  0  0  0  0  0  0  0  0
   70.6453   53.7968   56.3038 C   0  0  0  0  0  0  0  0  0  0  0  0
   69.3099   53.4472   56.2216 C   0  0  0  0  0  0  0  0  0  0  0  0
   68.8316   52.3074   56.8683 C   0  0  0  0  0  0  0  0  0  0  0  0
 12 13  1  0
 13 14  2  0
 14  1  1  0
  1  2  2  0
  1 11  1  0
  2  3  1  0
  3  4  2  0
  3  5  1  0
  5  6  1  0
  6  7  1  0
  6 11  2  0
  7  8  2  0
  8 15  1  0
  8  9  1  0
 15 16  1  0
 16 17  1  0
 17 18  2  0
 17 22  1  0
 18 19  1  0
 19 20  2  0
 20 21  1  0
 21 22  2  0
  9 10  2  0
 10 11  1  0
M  END
>  <minimizedAffinity>  (655) 
-8.78706

$$$$
data/200k_reference_output/data/smiles/55407.pdb
     RDKit          3D

 26 28  0  0  0  0  0  0  0  0999 V2000
   69.8336   42.7422   57.4813 C   0  0  0  0  0  0  0  0  0  0  0  0
   68.8492   43.0465   56.5640 C   0  0  0  0  0  0  0  0  0  0  0  0
   68.6077   44.3499   56.1813 C   0  0  0  0  0  0  0  0  0  0  0  0
   69.3228   45.4151   56.6849 C   0  0  0  0  0  0  0  0  0  0  0  0
   70.3072   45.1130   57.6022 C   0  0  0  0  0  0  0  0  0  0  0  0
   70.5497   43.8097   57.9849 C   0  0  0  0  0  0  0  0  0  0  0  0
   70.6739   38.7328   58.6943 C   0  0  0  0  0  0  0  0  0  0  0  0
   69.4037   39.1175   58.3312 C   0  0  0  0  0  0  0  0  0  0  0  0
   69.1064   40.4045   57.9357 C   0  0  0  0  0  0  0  0  0  0  0  0
   70.0999   41.3651   57.8934 C   0  0  0  0  0  0  0  0  0  0  0  0
   71.3770   40.9678   58.2622 C   0  0  0  0  0  0  0  0  0  0  0  0
   71.6759   39.6990   58.6531 C   0  0  0  0  0  0  0  0  0  0  0  0
   70.2020   36.9304   60.2587 N   0  0  0  0  0  0  0  0  0  0  0  0
   71.0238   37.3631   59.1222 C   0  0  0  0  0  0  0  0  0  0  0  0
   69.0354   46.8115   56.2511 C   0  0  0  0  0  0  0  0  0  0  0  0
   68.8621   46.8576   54.8124 N   0  0  0  0  0  0  0  0  0  0  0  0
   68.0498   45.9487   54.2469 C   0  0  0  0  0  0  0  0  0  0  0  0
   67.8116   45.9031   52.8828 C   0  0  0  0  0  0  0  0  0  0  0  0
   66.9674   44.9529   52.3215 O   0  0  0  0  0  0  0  0  0  0  0  0
   68.4585   46.8527   52.1002 C   0  0  0  0  0  0  0  0  0  0  0  0
   68.2809   46.8601   50.8522 O   0  0  0  0  0  0  0  0  0  0  0  0
   69.2947   47.7926   52.6564 C   0  0  0  0  0  0  0  0  0  0  0  0
   69.4806   47.7726   54.0275 C   0  0  0  0  0  0  0  0  0  0  0  0
   69.9920   48.8052   51.8721 C   0  0  0  0  0  0  0  0  0  0  0  0
   70.6692   48.5179   50.8507 O   0  0  0  0  0  0  0  0  0  0  0  0
   69.9406   50.1477   52.2174 O   0  0  0  0  0  0  0  0  0  0  0  0
 13 14  1  0
 14  7  1  0
  7  8  2  0
  7 12  1  0
  8  9  1  0
  9 10  2  0
 10  1  1  0
 10 11  1  0
  1  2  2  0
  1  6  1  0
  2  3  1  0
  3  4  2  0
  4 15  1  0
  4  5  1  0
 15 16  1  0
 16 17  1  0
 16 23  1  0
 17 18  2  0
 18 19  1  0
 18 20  1  0
 20 21  2  0
 20 22  1  0
 22 24  1  0
 22 23  2  0
 24 25  2  0
 24 26  1  0
  5  6  2  0
 11 12  2  0
M  CHG  1  13   1
M  END
>  <minimizedAffinity>  (656) 
-9.09817

$$$$
data/200k_reference_output/data/smiles/55606.pdb
     RDKit          3D

 25 28  0  0  0  0  0  0  0  0999 V2000
   70.7706   44.8972   57.4573 O   0  0  0  0  0  0  0  0  0  0  0  0
   70.0715   43.8670   57.3646 C   0  0  0  0  0  0  0  0  0  0  0  0
   70.4294   42.6489   58.0560 C   0  0  0  0  0  0  0  0  0  0  0  0
   71.5728   42.5837   58.8383 C   0  0  0  0  0  0  0  0  0  0  0  0
   71.9234   41.4014   59.4966 C   0  0  0  0  0  0  0  0  0  0  0  0
   71.1400   40.2750   59.3818 C   0  0  0  0  0  0  0  0  0  0  0  0
   70.0005   40.3475   58.5995 C   0  0  0  0  0  0  0  0  0  0  0  0
   69.2324   39.1880   58.4960 C   0  0  0  0  0  0  0  0  0  0  0  0
   68.1046   39.2770   57.7028 C   0  0  0  0  0  0  0  0  0  0  0  0
   67.7627   40.4373   57.0560 C   0  0  0  0  0  0  0  0  0  0  0  0
   68.5340   41.5780   57.1674 C   0  0  0  0  0  0  0  0  0  0  0  0
   69.6562   41.5168   57.9494 C   0  0  0  0  0  0  0  0  0  0  0  0
   68.1013   42.7650   56.4382 C   0  0  0  0  0  0  0  0  0  0  0  0
   67.0714   42.7508   55.7450 O   0  0  0  0  0  0  0  0  0  0  0  0
   68.8715   43.9496   56.5208 N   0  0  0  0  0  0  0  0  0  0  0  0
   68.6441   45.0557   55.8922 N   0  0  0  0  0  0  0  0  0  0  0  0
   68.4446   46.0437   55.3272 C   0  0  0  0  0  0  0  0  0  0  0  0
   68.8037   46.9286   54.2716 C   0  0  0  0  0  0  0  0  0  0  0  0
   69.3486   48.1819   54.4964 C   0  0  0  0  0  0  0  0  0  0  0  0
   69.6836   49.0242   53.4623 C   0  0  0  0  0  0  0  0  0  0  0  0
   69.4907   48.6534   52.1479 C   0  0  0  0  0  0  0  0  0  0  0  0
   69.8535   49.5569   51.1380 O   0  0  0  0  0  0  0  0  0  0  0  0
   68.9528   47.4208   51.8884 C   0  0  0  0  0  0  0  0  0  0  0  0
   68.6165   46.5757   52.9552 C   0  0  0  0  0  0  0  0  0  0  0  0
   68.0789   45.3515   52.5953 O   0  0  0  0  0  0  0  0  0  0  0  0
  1  2  2  0
  2  3  1  0
  2 15  1  0
  3  4  1  0
  3 12  2  0
  4  5  2  0
  5  6  1  0
  6  7  2  0
  7  8  1  0
  7 12  1  0
  8  9  2  0
  9 10  1  0
 10 11  2  0
 11 12  1  0
 11 13  1  0
 13 14  2  0
 13 15  1  0
 15 16  1  0
 16 17  2  3
 17 18  1  0
 18 19  2  0
 18 24  1  0
 19 20  1  0
 20 21  2  0
 21 22  1  0
 21 23  1  0
 23 24  2  0
 24 25  1  0
M  END
>  <minimizedAffinity>  (657) 
-8.56262

$$$$
data/200k_reference_output/data/smiles/55664.pdb
     RDKit          3D

 29 33  0  0  0  0  0  0  0  0999 V2000
   73.9594   33.9335   53.9079 C   0  0  0  0  0  0  0  0  0  0  0  0
   73.6499   34.9610   54.7084 N   0  0  0  0  0  0  0  0  0  0  0  0
   72.6719   35.6428   54.0427 C   0  0  0  0  0  0  0  0  0  0  0  0
   72.4257   34.9949   52.8516 C   0  0  0  0  0  0  0  0  0  0  0  0
   73.2437   33.9197   52.7798 N   0  0  0  0  0  0  0  0  0  0  0  0
   76.3807   33.4714   53.9291 C   0  0  0  0  0  0  0  0  0  0  0  0
   74.9980   32.9388   54.2632 C   0  0  0  0  0  0  0  0  0  0  0  0
   74.1180   35.3964   55.9819 C   0  0  0  0  0  0  0  0  0  0  0  0
   73.1590   35.4367   57.0686 C   0  0  0  0  0  0  0  0  0  0  0  0
   72.8825   34.2814   57.7709 C   0  0  0  0  0  0  0  0  0  0  0  0
   71.9794   34.2648   58.8172 C   0  0  0  0  0  0  0  0  0  0  0  0
   71.3492   35.4423   59.1510 C   0  0  0  0  0  0  0  0  0  0  0  0
   70.4336   35.4305   60.2118 C   0  0  0  0  0  0  0  0  0  0  0  0
   69.8149   36.6109   60.5323 C   0  0  0  0  0  0  0  0  0  0  0  0
   70.0670   37.7833   59.8523 C   0  0  0  0  0  0  0  0  0  0  0  0
   70.9611   37.8070   58.8130 C   0  0  0  0  0  0  0  0  0  0  0  0
   71.5996   36.6109   58.4749 C   0  0  0  0  0  0  0  0  0  0  0  0
   72.5068   36.5790   57.4399 C   0  0  0  0  0  0  0  0  0  0  0  0
   73.2865   32.9717   51.6708 C   0  0  0  0  0  0  0  0  0  0  0  0
   74.2595   33.3787   50.6233 C   0  0  0  0  0  0  0  0  0  0  0  0
   74.1060   32.9380   49.3093 C   0  0  0  0  0  0  0  0  0  0  0  0
   74.9849   33.2930   48.3062 C   0  0  0  0  0  0  0  0  0  0  0  0
   76.0627   34.1147   48.5852 C   0  0  0  0  0  0  0  0  0  0  0  0
   76.9722   34.4978   47.6081 C   0  0  0  0  0  0  0  0  0  0  0  0
   78.0408   35.3199   47.9154 C   0  0  0  0  0  0  0  0  0  0  0  0
   78.1775   35.7462   49.2199 C   0  0  0  0  0  0  0  0  0  0  0  0
   77.2633   35.3566   50.1866 C   0  0  0  0  0  0  0  0  0  0  0  0
   76.1912   34.5371   49.8931 C   0  0  0  0  0  0  0  0  0  0  0  0
   75.3179   34.1735   50.8524 N   0  0  0  0  0  0  0  0  0  0  0  0
  6  7  1  0
  7  1  1  0
  1  2  1  0
  1  5  2  0
  2  8  1  0
  2  3  1  0
  8  9  1  0
  9 10  2  0
  9 18  1  0
 10 11  1  0
 11 12  2  0
 12 13  1  0
 12 17  1  0
 13 14  2  0
 14 15  1  0
 15 16  2  0
 16 17  1  0
 17 18  2  0
  3  4  2  0
  4  5  1  0
  5 19  1  0
 19 20  1  0
 20 21  2  0
 20 29  1  0
 21 22  1  0
 22 23  2  0
 23 24  1  0
 23 28  1  0
 24 25  2  0
 25 26  1  0
 26 27  2  0
 27 28  1  0
 28 29  2  0
M  CHG  1   5   1
M  END
>  <minimizedAffinity>  (658) 
-8.86478

$$$$
data/200k_reference_output/data/smiles/55764.pdb
     RDKit          3D

 27 29  0  0  0  0  0  0  0  0999 V2000
   69.9915   47.5159   57.0988 C   0  0  0  0  0  0  0  0  0  0  0  0
   69.5437   45.1477   56.5045 N   0  0  0  0  0  0  0  0  0  0  0  0
   69.7718   46.1624   57.5243 C   0  0  0  0  0  0  0  0  0  0  0  0
   69.7465   45.7076   58.6774 O   0  0  0  0  0  0  0  0  0  0  0  0
   68.7067   41.1623   57.5388 C   0  0  0  0  0  0  0  0  0  0  0  0
   67.8744   41.8801   56.6971 C   0  0  0  0  0  0  0  0  0  0  0  0
   68.1993   43.1863   56.3916 C   0  0  0  0  0  0  0  0  0  0  0  0
   69.3272   43.8233   56.8885 C   0  0  0  0  0  0  0  0  0  0  0  0
   70.1473   43.1012   57.7237 C   0  0  0  0  0  0  0  0  0  0  0  0
   69.8282   41.7967   58.0320 C   0  0  0  0  0  0  0  0  0  0  0  0
   67.2501   38.0648   59.3279 C   0  0  0  0  0  0  0  0  0  0  0  0
   67.5647   39.4712   58.9825 C   0  0  0  0  0  0  0  0  0  0  0  0
   67.1161   40.4514   59.6398 O   0  0  0  0  0  0  0  0  0  0  0  0
   68.4028   39.8142   57.8742 N   0  0  0  0  0  0  0  0  0  0  0  0
   69.0571   48.2271   56.1991 C   0  0  0  0  0  0  0  0  0  0  0  0
   69.4017   48.3970   54.8313 N   0  0  0  0  0  0  0  0  0  0  0  0
   70.2834   49.3587   54.4994 C   0  0  0  0  0  0  0  0  0  0  0  0
   70.7769   50.1644   55.3715 O   0  0  0  0  0  0  0  0  0  0  0  0
   70.6445   49.4748   53.2112 N   0  0  0  0  0  0  0  0  0  0  0  0
   70.1556   48.6677   52.2582 C   0  0  0  0  0  0  0  0  0  0  0  0
   70.5020   48.7855   51.0563 O   0  0  0  0  0  0  0  0  0  0  0  0
   69.2534   47.6859   52.5953 C   0  0  0  0  0  0  0  0  0  0  0  0
   68.7341   46.8500   51.6260 C   0  0  0  0  0  0  0  0  0  0  0  0
   67.8301   45.8680   51.9280 C   0  0  0  0  0  0  0  0  0  0  0  0
   67.4546   45.7436   53.2481 C   0  0  0  0  0  0  0  0  0  0  0  0
   67.9463   46.5538   54.2460 C   0  0  0  0  0  0  0  0  0  0  0  0
   68.8549   47.5379   53.9312 C   0  0  0  0  0  0  0  0  0  0  0  0
 11 12  1  0
 12 13  2  0
 12 14  1  0
 14  5  1  0
  5  6  2  0
  5 10  1  0
  6  7  1  0
  7  8  2  0
  8  2  1  0
  8  9  1  0
  2  3  1  0
  3  4  2  0
  3  1  1  0
  1 15  1  0
 15 16  1  0
 16 17  1  0
 16 27  1  0
 17 18  2  0
 17 19  1  0
 19 20  1  0
 20 21  2  0
 20 22  1  0
 22 23  1  0
 22 27  2  0
 23 24  2  0
 24 25  1  0
 25 26  2  0
 26 27  1  0
  9 10  2  0
M  END
>  <minimizedAffinity>  (659) 
-9.06797

$$$$
data/200k_reference_output/data/smiles/55774.pdb
     RDKit          3D

 21 22  0  0  0  0  0  0  0  0999 V2000
   68.9148   46.9342   54.8506 C   0  0  0  0  0  0  0  0  0  0  0  0
   68.0754   46.0080   54.2823 C   0  0  0  0  0  0  0  0  0  0  0  0
   67.8587   46.0048   52.9377 C   0  0  0  0  0  0  0  0  0  0  0  0
   67.0072   45.0556   52.3671 O   0  0  0  0  0  0  0  0  0  0  0  0
   68.4544   46.9148   52.0790 C   0  0  0  0  0  0  0  0  0  0  0  0
   68.2011   46.8704   50.7001 O   0  0  0  0  0  0  0  0  0  0  0  0
   69.2838   47.8274   52.6737 C   0  0  0  0  0  0  0  0  0  0  0  0
   69.5236   47.8522   54.0417 C   0  0  0  0  0  0  0  0  0  0  0  0
   69.9283   48.7894   51.8509 N   0  0  0  0  0  0  0  0  0  0  0  0
   70.6257   48.4179   50.8925 O   0  0  0  0  0  0  0  0  0  0  0  0
   69.7977   50.1261   52.0856 O   0  0  0  0  0  0  0  0  0  0  0  0
   69.1479   46.9350   56.3207 C   0  0  0  0  0  0  0  0  0  0  0  0
   68.9451   45.8324   56.8719 O   0  0  0  0  0  0  0  0  0  0  0  0
   69.5766   48.1206   57.0808 C   0  0  0  0  0  0  0  0  0  0  0  0
   69.9478   50.8869   56.0008 C   0  0  0  0  0  0  0  0  0  0  0  0
   68.7628   50.4425   56.7323 C   0  0  0  0  0  0  0  0  0  0  0  0
   67.7645   51.4175   56.9182 C   0  0  0  0  0  0  0  0  0  0  0  0
   66.5665   51.1079   57.5514 C   0  0  0  0  0  0  0  0  0  0  0  0
   66.3729   49.8378   57.9915 C   0  0  0  0  0  0  0  0  0  0  0  0
   67.3422   48.8684   57.8148 C   0  0  0  0  0  0  0  0  0  0  0  0
   68.5527   49.1736   57.1801 C   0  0  0  0  0  0  0  0  0  0  0  0
 15 16  1  0
 16 17  2  0
 16 21  1  0
 17 18  1  0
 18 19  2  0
 19 20  1  0
 20 21  2  0
 21 14  1  0
 14 12  1  0
 12 13  2  0
 12  1  1  0
  1  2  2  0
  1  8  1  0
  2  3  1  0
  3  4  1  0
  3  5  2  0
  5  6  1  0
  5  7  1  0
  7  9  1  0
  7  8  2  0
  9 10  2  0
  9 11  1  0
M  CHG  2   9   1  11  -1
M  END
>  <minimizedAffinity>  (660) 
-9.07842

$$$$
data/200k_reference_output/data/smiles/55783.pdb
     RDKit          3D

 26 28  0  0  0  0  0  0  0  0999 V2000
   68.3508   42.0205   57.0954 C   0  0  0  0  0  0  0  0  0  0  0  0
   68.9180   43.2283   56.7336 C   0  0  0  0  0  0  0  0  0  0  0  0
   68.1102   43.8435   55.7982 C   0  0  0  0  0  0  0  0  0  0  0  0
   67.1060   43.0220   55.6202 O   0  0  0  0  0  0  0  0  0  0  0  0
   67.2240   41.9590   56.3618 N   0  0  0  0  0  0  0  0  0  0  0  0
   68.3067   45.1297   55.1332 C   0  0  0  0  0  0  0  0  0  0  0  0
   68.8061   46.2225   55.8076 C   0  0  0  0  0  0  0  0  0  0  0  0
   69.0022   47.4457   55.2108 C   0  0  0  0  0  0  0  0  0  0  0  0
   68.6917   47.6301   53.8560 C   0  0  0  0  0  0  0  0  0  0  0  0
   68.1935   46.5382   53.1848 C   0  0  0  0  0  0  0  0  0  0  0  0
   67.9970   45.2947   53.8019 C   0  0  0  0  0  0  0  0  0  0  0  0
   68.9209   48.8925   53.2800 N   0  0  0  0  0  0  0  0  0  0  0  0
   70.0611   49.1986   52.4983 C   0  0  0  0  0  0  0  0  0  0  0  0
   71.1998   49.2933   53.0742 N   0  0  0  0  0  0  0  0  0  0  0  0
   69.9740   49.3964   51.0857 N   0  0  0  0  0  0  0  0  0  0  0  0
   68.6821   39.6292   57.7759 N   0  0  0  0  0  0  0  0  0  0  0  0
   68.8282   41.0180   58.0454 C   0  0  0  0  0  0  0  0  0  0  0  0
   69.3682   41.3660   59.1014 O   0  0  0  0  0  0  0  0  0  0  0  0
   70.8928   37.0767   59.2620 C   0  0  0  0  0  0  0  0  0  0  0  0
   70.1483   36.5936   60.3020 C   0  0  0  0  0  0  0  0  0  0  0  0
   68.8897   37.1075   60.5330 C   0  0  0  0  0  0  0  0  0  0  0  0
   68.3940   38.1061   59.7106 C   0  0  0  0  0  0  0  0  0  0  0  0
   69.1236   38.6106   58.6564 C   0  0  0  0  0  0  0  0  0  0  0  0
   70.3786   38.0772   58.4507 C   0  0  0  0  0  0  0  0  0  0  0  0
   72.6761   36.4717   57.7312 C   0  0  0  0  0  0  0  0  0  0  0  0
   72.1554   36.5484   59.0449 O   0  0  0  0  0  0  0  0  0  0  0  0
 25 26  1  0
 26 19  1  0
 19 20  2  0
 19 24  1  0
 20 21  1  0
 21 22  2  0
 22 23  1  0
 23 16  1  0
 23 24  2  0
 16 17  1  0
 17 18  2  0
 17  1  1  0
  1  2  1  0
  1  5  2  0
  2  3  2  0
  3  6  1  0
  3  4  1  0
  6  7  2  0
  6 11  1  0
  7  8  1  0
  8  9  2  0
  9 12  1  0
  9 10  1  0
 12 13  1  0
 13 14  2  0
 13 15  1  0
 10 11  2  0
  4  5  1  0
M  CHG  1  14   1
M  END
>  <minimizedAffinity>  (661) 
-8.69329

$$$$
data/200k_reference_output/data/smiles/56158.pdb
     RDKit          3D

 27 28  0  0  0  0  0  0  0  0999 V2000
   68.9160   48.0069   57.0529 S   0  0  0  0  0  0  0  0  0  0  0  0
   69.3231   49.2006   57.8671 O   0  0  0  0  0  0  0  0  0  0  0  0
   67.4744   47.7438   57.3548 O   0  0  0  0  0  0  0  0  0  0  0  0
   69.9234   46.6664   57.5874 C   0  0  0  0  0  0  0  0  0  0  0  0
   70.9091   46.8305   58.4369 C   0  0  0  0  0  0  0  0  0  0  0  0
   71.7729   45.7566   58.9113 C   0  0  0  0  0  0  0  0  0  0  0  0
   72.3747   45.8437   60.1732 C   0  0  0  0  0  0  0  0  0  0  0  0
   73.1919   44.8429   60.6396 C   0  0  0  0  0  0  0  0  0  0  0  0
   73.4508   43.7156   59.8873 C   0  0  0  0  0  0  0  0  0  0  0  0
   72.8737   43.6001   58.6429 C   0  0  0  0  0  0  0  0  0  0  0  0
   72.0537   44.6211   58.1919 C   0  0  0  0  0  0  0  0  0  0  0  0
   73.1610   42.3832   57.8452 C   0  0  0  0  0  0  0  0  0  0  0  0
   71.9497   41.7671   57.5762 F   0  0  0  0  0  0  0  0  0  0  0  0
   74.0514   41.5482   58.4705 F   0  0  0  0  0  0  0  0  0  0  0  0
   73.6637   42.8019   56.6170 F   0  0  0  0  0  0  0  0  0  0  0  0
   69.1895   48.3568   55.3899 N   0  0  0  0  0  0  0  0  0  0  0  0
   69.0584   47.7506   53.0637 C   0  0  0  0  0  0  0  0  0  0  0  0
   68.6270   46.8253   52.0995 C   0  0  0  0  0  0  0  0  0  0  0  0
   68.8891   47.1209   50.7926 F   0  0  0  0  0  0  0  0  0  0  0  0
   67.9684   45.6700   52.4378 C   0  0  0  0  0  0  0  0  0  0  0  0
   67.7298   45.4239   53.7774 C   0  0  0  0  0  0  0  0  0  0  0  0
   68.1282   46.2889   54.7482 C   0  0  0  0  0  0  0  0  0  0  0  0
   68.7969   47.4588   54.3683 C   0  0  0  0  0  0  0  0  0  0  0  0
   71.4523   49.3389   53.2700 N   0  0  0  0  0  0  0  0  0  0  0  0
   69.8899   49.1993   52.5544 S   0  0  0  0  0  0  0  0  0  0  0  0
   69.9499   49.3555   51.0667 O   0  0  0  0  0  0  0  0  0  0  0  0
   69.0992   50.4002   53.0690 O   0  0  0  0  0  0  0  0  0  0  0  0
 24 25  1  0
 25 26  2  0
 25 27  2  0
 25 17  1  0
 17 18  2  0
 17 23  1  0
 18 19  1  0
 18 20  1  0
 20 21  2  0
 21 22  1  0
 22 23  2  0
 23 16  1  0
 16  1  1  0
  1  2  2  0
  1  3  2  0
  1  4  1  0
  4  5  2  0
  5  6  1  0
  6  7  2  0
  6 11  1  0
  7  8  1  0
  8  9  2  0
  9 10  1  0
 10 12  1  0
 10 11  2  0
 12 13  1  0
 12 14  1  0
 12 15  1  0
M  END
>  <minimizedAffinity>  (662) 
-8.65610

$$$$
data/200k_reference_output/data/smiles/56178.pdb
     RDKit          3D

 27 31  0  0  0  0  0  0  0  0999 V2000
   77.1626   35.9976   53.4823 C   0  0  0  0  0  0  0  0  0  0  0  0
   76.3468   35.1269   52.5933 C   0  0  0  0  0  0  0  0  0  0  0  0
   76.6389   35.0372   51.2549 C   0  0  0  0  0  0  0  0  0  0  0  0
   77.5814   35.6030   50.4636 N   0  0  0  0  0  0  0  0  0  0  0  0
   77.4653   35.2006   49.1899 C   0  0  0  0  0  0  0  0  0  0  0  0
   78.1372   35.4553   48.0122 C   0  0  0  0  0  0  0  0  0  0  0  0
   77.7893   34.8832   46.8075 C   0  0  0  0  0  0  0  0  0  0  0  0
   76.7181   34.0157   46.7792 C   0  0  0  0  0  0  0  0  0  0  0  0
   76.0203   33.7356   47.9426 C   0  0  0  0  0  0  0  0  0  0  0  0
   76.3941   34.3242   49.1321 C   0  0  0  0  0  0  0  0  0  0  0  0
   75.8961   34.2359   50.4161 C   0  0  0  0  0  0  0  0  0  0  0  0
   74.8602   33.5462   51.0105 C   0  0  0  0  0  0  0  0  0  0  0  0
   74.5898   33.6549   52.3524 C   0  0  0  0  0  0  0  0  0  0  0  0
   75.3260   34.4445   53.1705 N   0  0  0  0  0  0  0  0  0  0  0  0
   74.9870   34.5486   54.5348 C   0  0  0  0  0  0  0  0  0  0  0  0
   73.8099   35.2082   55.0128 C   0  0  0  0  0  0  0  0  0  0  0  0
   73.2544   36.0006   54.1343 O   0  0  0  0  0  0  0  0  0  0  0  0
   73.1257   35.1637   56.2762 C   0  0  0  0  0  0  0  0  0  0  0  0
   73.0363   33.9492   56.9899 C   0  0  0  0  0  0  0  0  0  0  0  0
   72.4029   33.8291   58.1976 C   0  0  0  0  0  0  0  0  0  0  0  0
   71.7974   34.8952   58.8166 C   0  0  0  0  0  0  0  0  0  0  0  0
   71.1549   34.7876   60.0340 C   0  0  0  0  0  0  0  0  0  0  0  0
   70.5513   35.8736   60.6397 C   0  0  0  0  0  0  0  0  0  0  0  0
   70.6184   37.0773   59.9703 C   0  0  0  0  0  0  0  0  0  0  0  0
   71.2641   37.1843   58.7467 C   0  0  0  0  0  0  0  0  0  0  0  0
   71.8633   36.0935   58.1506 C   0  0  0  0  0  0  0  0  0  0  0  0
   72.5112   36.2126   56.9173 C   0  0  0  0  0  0  0  0  0  0  0  0
  1  2  1  0
  2  3  2  0
  2 14  1  0
  3  4  1  0
  3 11  1  0
  4  5  1  0
  5  6  2  0
  5 10  1  0
  6  7  1  0
  7  8  2  0
  8  9  1  0
  9 10  2  0
 10 11  1  0
 11 12  2  0
 12 13  1  0
 13 14  2  0
 14 15  1  0
 15 16  1  0
 16 17  2  0
 16 18  1  0
 18 19  2  0
 18 27  1  0
 19 20  1  0
 20 21  2  0
 21 22  1  0
 21 26  1  0
 22 23  2  0
 23 24  1  0
 24 25  2  0
 25 26  1  0
 26 27  2  0
M  CHG  1  14   1
M  END
>  <minimizedAffinity>  (663) 
-9.27123

$$$$
data/200k_reference_output/data/smiles/56182.pdb
     RDKit          3D

 26 28  0  0  0  0  0  0  0  0999 V2000
   69.1484   42.3535   56.5837 O   0  0  0  0  0  0  0  0  0  0  0  0
   69.9187   42.6407   57.4289 C   0  0  0  0  0  0  0  0  0  0  0  0
   70.2659   44.3468   57.4331 N   0  0  0  0  0  0  0  0  0  0  0  0
   69.1617   44.7565   56.6496 C   0  0  0  0  0  0  0  0  0  0  0  0
   68.2448   44.2684   56.1070 O   0  0  0  0  0  0  0  0  0  0  0  0
   69.2541   46.2508   56.5006 N   0  0  0  0  0  0  0  0  0  0  0  0
   70.6674   41.9952   58.4647 C   0  0  0  0  0  0  0  0  0  0  0  0
   70.2783   40.7652   58.9812 N   0  0  2  0  0  0  0  0  0  0  0  0
   71.0925   40.2768   60.0781 C   0  0  0  0  0  0  0  0  0  0  0  0
   71.7666   39.0396   59.6339 C   0  0  0  0  0  0  0  0  0  0  0  0
   71.0183   38.1468   59.0335 C   0  0  0  0  0  0  0  0  0  0  0  0
   69.5803   38.4731   58.8376 C   0  0  0  0  0  0  0  0  0  0  0  0
   69.2854   39.9307   58.5501 C   0  0  0  0  0  0  0  0  0  0  0  0
   71.5829   36.9060   58.5530 C   0  0  0  0  0  0  0  0  0  0  0  0
   71.3974   35.6975   59.2035 C   0  0  0  0  0  0  0  0  0  0  0  0
   71.9064   34.4985   58.7473 C   0  0  0  0  0  0  0  0  0  0  0  0
   72.6422   34.4608   57.5905 C   0  0  0  0  0  0  0  0  0  0  0  0
   72.8402   35.6628   56.9162 C   0  0  0  0  0  0  0  0  0  0  0  0
   72.3156   36.8469   57.4002 C   0  0  0  0  0  0  0  0  0  0  0  0
   68.3324   47.0027   55.7709 C   0  0  0  0  0  0  0  0  0  0  0  0
   68.5351   47.0450   54.3221 C   0  0  0  0  0  0  0  0  0  0  0  0
   67.8963   46.1471   53.4606 C   0  0  0  0  0  0  0  0  0  0  0  0
   68.0888   46.2294   52.1261 C   0  0  0  0  0  0  0  0  0  0  0  0
   68.9165   47.1934   51.5234 C   0  0  0  0  0  0  0  0  0  0  0  0
   69.5237   48.0559   52.3929 C   0  0  0  0  0  0  0  0  0  0  0  0
   69.3478   47.9934   53.7535 C   0  0  0  0  0  0  0  0  0  0  0  0
  1  2  2  0
  2  7  1  0
  2  3  1  0
  8  7  1  6
  8  9  1  0
  8 13  1  0
  9 10  1  0
 10 11  2  0
 11 14  1  0
 11 12  1  0
 14 15  2  0
 14 19  1  0
 15 16  1  0
 16 17  2  0
 17 18  1  0
 18 19  2  0
 12 13  1  0
  3  4  1  0
  4  5  2  0
  4  6  1  0
  6 20  1  0
 20 21  1  0
 21 22  2  0
 21 26  1  0
 22 23  1  0
 23 24  2  0
 24 25  1  0
 25 26  2  0
M  CHG  1   8   1
M  END
>  <minimizedAffinity>  (664) 
-8.70144

$$$$
data/200k_reference_output/data/smiles/56240.pdb
     RDKit          3D

 30 33  0  0  0  0  0  0  0  0999 V2000
   68.7778   44.1581   56.6231 N   0  0  0  0  0  0  0  0  0  0  0  0
   68.2743   42.8447   56.6671 C   0  0  0  0  0  0  0  0  0  0  0  0
   67.5591   42.4497   55.7216 O   0  0  0  0  0  0  0  0  0  0  0  0
   68.5414   41.9489   57.7394 N   0  0  0  0  0  0  0  0  0  0  0  0
   67.9825   40.6194   57.7017 C   0  0  0  0  0  0  0  0  0  0  0  0
   69.1837   39.6775   57.8634 C   0  0  0  0  0  0  0  0  0  0  0  0
   69.7558   39.8674   59.1143 N   0  0  0  0  0  0  0  0  0  0  0  0
   69.5556   41.0991   59.7964 C   0  0  0  0  0  0  0  0  0  0  0  0
   69.3521   42.2852   58.8820 C   0  0  0  0  0  0  0  0  0  0  0  0
   67.9034   45.9753   53.4462 C   0  0  0  0  0  0  0  0  0  0  0  0
   68.2863   47.2579   53.7519 C   0  0  0  0  0  0  0  0  0  0  0  0
   68.8178   47.4701   55.0013 C   0  0  0  0  0  0  0  0  0  0  0  0
   68.9677   46.4524   55.9132 C   0  0  0  0  0  0  0  0  0  0  0  0
   68.5853   45.1334   55.6262 C   0  0  0  0  0  0  0  0  0  0  0  0
   68.0597   44.9388   54.3838 C   0  0  0  0  0  0  0  0  0  0  0  0
   66.8683   45.4818   51.1059 N   0  0  0  0  0  0  0  0  0  0  0  0
   67.3432   45.6995   52.1566 C   0  0  0  0  0  0  0  0  0  0  0  0
   71.1230   39.0299   59.6066 S   0  0  0  0  0  0  0  0  0  0  0  0
   71.7572   39.6239   60.8561 O   0  0  0  0  0  0  0  0  0  0  0  0
   72.1917   39.3123   58.5452 O   0  0  0  0  0  0  0  0  0  0  0  0
   70.9884   37.3098   59.7219 C   0  0  0  0  0  0  0  0  0  0  0  0
   70.2724   36.7261   60.7808 C   0  0  0  0  0  0  0  0  0  0  0  0
   70.1998   35.3658   60.9675 C   0  0  0  0  0  0  0  0  0  0  0  0
   70.8313   34.5087   60.1183 C   0  0  0  0  0  0  0  0  0  0  0  0
   71.5408   35.0428   59.0701 C   0  0  0  0  0  0  0  0  0  0  0  0
   72.1584   34.1820   58.1961 C   0  0  0  0  0  0  0  0  0  0  0  0
   72.8370   34.6704   57.1478 N   0  0  0  0  0  0  0  0  0  0  0  0
   72.9154   36.0150   56.9455 C   0  0  0  0  0  0  0  0  0  0  0  0
   72.3042   36.8937   57.8094 C   0  0  0  0  0  0  0  0  0  0  0  0
   71.6135   36.4181   58.8799 C   0  0  0  0  0  0  0  0  0  0  0  0
 16 17  3  0
 17 10  1  0
 10 11  2  0
 10 15  1  0
 11 12  1  0
 12 13  2  0
 13 14  1  0
 14  1  1  0
 14 15  2  0
  1  2  1  0
  2  3  2  0
  2  4  1  0
  4  5  1  0
  4  9  1  0
  5  6  1  0
  6  7  1  0
  7 18  1  0
  7  8  1  0
 18 19  2  0
 18 20  2  0
 18 21  1  0
 21 22  2  0
 21 30  1  0
 22 23  1  0
 23 24  2  0
 24 25  1  0
 25 26  1  0
 25 30  2  0
 26 27  2  0
 27 28  1  0
 28 29  2  0
 29 30  1  0
  8  9  1  0
M  END
>  <minimizedAffinity>  (665) 
-8.66749

$$$$
data/200k_reference_output/data/smiles/56756.pdb
     RDKit          3D

 28 30  0  0  0  0  0  0  0  0999 V2000
   68.4241   46.0262   54.8684 C   0  0  0  0  0  0  0  0  0  0  0  0
   67.8868   45.3982   53.9288 O   0  0  0  0  0  0  0  0  0  0  0  0
   68.5822   45.3329   56.0950 N   0  0  0  0  0  0  0  0  0  0  0  0
   69.6890   50.0607   54.1437 C   0  0  0  0  0  0  0  0  0  0  0  0
   69.6380   49.1209   53.1377 C   0  0  0  0  0  0  0  0  0  0  0  0
   69.2275   47.8299   53.3977 C   0  0  0  0  0  0  0  0  0  0  0  0
   68.8491   47.4063   54.6563 C   0  0  0  0  0  0  0  0  0  0  0  0
   68.8994   48.3454   55.6632 C   0  0  0  0  0  0  0  0  0  0  0  0
   69.3141   49.6550   55.4058 C   0  0  0  0  0  0  0  0  0  0  0  0
   70.1305   51.4356   53.8423 C   0  0  0  0  0  0  0  0  0  0  0  0
   71.9130   52.3927   55.8904 C   0  0  0  0  0  0  0  0  0  0  0  0
   71.8398   51.6999   54.2551 S   0  0  0  0  0  0  0  0  0  0  0  0
   72.4720   52.7138   53.3250 O   0  0  0  0  0  0  0  0  0  0  0  0
   72.6338   50.4512   54.1733 O   0  0  0  0  0  0  0  0  0  0  0  0
   68.1531   43.9910   56.2496 N   0  0  0  0  0  0  0  0  0  0  0  0
   68.9627   43.0205   56.9165 C   0  0  0  0  0  0  0  0  0  0  0  0
   70.0656   43.4185   57.3538 O   0  0  0  0  0  0  0  0  0  0  0  0
   68.5354   41.6363   57.0831 C   0  0  0  0  0  0  0  0  0  0  0  0
   68.6421   40.9249   58.2615 C   0  0  0  0  0  0  0  0  0  0  0  0
   68.1500   39.6487   58.0884 C   0  0  0  0  0  0  0  0  0  0  0  0
   67.7503   39.6152   56.7897 N   0  0  0  0  0  0  0  0  0  0  0  0
   67.9861   40.8007   56.2130 N   0  0  0  0  0  0  0  0  0  0  0  0
   68.0701   38.5629   59.0709 C   0  0  0  0  0  0  0  0  0  0  0  0
   69.1832   38.0360   59.6562 C   0  0  0  0  0  0  0  0  0  0  0  0
   69.0204   37.0150   60.5711 C   0  0  0  0  0  0  0  0  0  0  0  0
   67.7660   36.5413   60.8843 C   0  0  0  0  0  0  0  0  0  0  0  0
   66.6357   37.0781   60.2893 C   0  0  0  0  0  0  0  0  0  0  0  0
   66.8105   38.0931   59.3811 C   0  0  0  0  0  0  0  0  0  0  0  0
 11 12  1  0
 12 13  2  0
 12 14  2  0
 12 10  1  0
 10  4  1  0
  4  5  2  0
  4  9  1  0
  5  6  1  0
  6  7  2  0
  7  1  1  0
  7  8  1  0
  1  2  2  0
  1  3  1  0
  3 15  1  0
 15 16  1  0
 16 17  2  0
 16 18  1  0
 18 19  1  0
 18 22  2  0
 19 20  2  0
 20 23  1  0
 20 21  1  0
 23 24  2  0
 23 28  1  0
 24 25  1  0
 25 26  2  0
 26 27  1  0
 27 28  2  0
 21 22  1  0
  8  9  2  0
M  END
>  <minimizedAffinity>  (666) 
-8.63201

$$$$
data/200k_reference_output/data/smiles/56772.pdb
     RDKit          3D

 30 34  0  0  0  0  0  0  0  0999 V2000
   70.7700   50.9985   54.7292 C   0  0  0  0  0  0  0  0  0  0  0  0
   70.4683   50.6387   53.4343 C   0  0  0  0  0  0  0  0  0  0  0  0
   69.8610   49.4650   53.1140 C   0  0  0  0  0  0  0  0  0  0  0  0
   69.5727   49.1459   51.7758 C   0  0  0  0  0  0  0  0  0  0  0  0
   69.9001   49.9741   50.9189 O   0  0  0  0  0  0  0  0  0  0  0  0
   68.9704   47.9868   51.4738 N   0  0  0  0  0  0  0  0  0  0  0  0
   68.6261   47.1022   52.4249 C   0  0  0  0  0  0  0  0  0  0  0  0
   67.9987   45.9084   52.1069 C   0  0  0  0  0  0  0  0  0  0  0  0
   67.6365   44.9959   53.0702 C   0  0  0  0  0  0  0  0  0  0  0  0
   67.8994   45.2665   54.3882 C   0  0  0  0  0  0  0  0  0  0  0  0
   68.5346   46.4769   54.7097 C   0  0  0  0  0  0  0  0  0  0  0  0
   68.9012   47.3961   53.7549 C   0  0  0  0  0  0  0  0  0  0  0  0
   69.5179   48.5707   54.1256 C   0  0  0  0  0  0  0  0  0  0  0  0
   69.8000   48.8831   55.4446 C   0  0  0  0  0  0  0  0  0  0  0  0
   70.4189   50.0891   55.7061 C   0  0  0  0  0  0  0  0  0  0  0  0
   70.7037   50.3456   57.0326 F   0  0  0  0  0  0  0  0  0  0  0  0
   71.3895   52.2923   55.0481 C   0  0  0  0  0  0  0  0  0  0  0  0
   72.8649   52.3736   54.9483 C   0  0  2  0  0  0  0  0  0  0  0  0
   73.6410   51.5999   55.8568 N   0  0  0  0  0  0  0  0  0  0  0  0
   74.4669   50.4841   55.5619 C   0  0  0  0  0  0  0  0  0  0  0  0
   74.5302   50.1366   54.3700 O   0  0  0  0  0  0  0  0  0  0  0  0
   75.2446   49.7192   56.5403 C   0  0  1  0  0  0  0  0  0  0  0  0
   76.4391   50.4669   56.9495 N   0  0  0  0  0  0  0  0  0  0  0  0
   76.6731   49.8442   58.2601 C   0  0  2  0  0  0  0  0  0  0  0  0
   76.6923   48.3641   58.1273 C   0  0  0  0  0  0  0  0  0  0  0  0
   75.2265   47.8908   58.0916 C   0  0  0  0  0  0  0  0  0  0  0  0
   74.5630   49.2392   57.7516 C   0  0  1  0  0  0  0  0  0  0  0  0
   75.2632   50.0654   58.8480 C   0  0  0  0  0  0  0  0  0  0  0  0
   73.5703   54.9165   55.0251 N   0  0  0  0  0  0  0  0  0  0  0  0
   73.2520   53.8083   54.9914 C   0  0  0  0  0  0  0  0  0  0  0  0
 29 30  3  0
 18 30  1  1
 18 17  1  0
 18 19  1  0
 17  1  1  0
  1  2  2  0
  1 15  1  0
  2  3  1  0
  3  4  1  0
  3 13  2  0
  4  5  2  0
  4  6  1  0
  6  7  1  0
  7  8  1  0
  7 12  2  0
  8  9  2  0
  9 10  1  0
 10 11  2  0
 11 12  1  0
 12 13  1  0
 13 14  1  0
 14 15  2  0
 15 16  1  0
 19 20  1  0
 20 21  2  0
 22 20  1  1
 22 23  1  0
 22 27  1  0
 23 24  1  0
 24 25  1  6
 24 28  1  0
 25 26  1  0
 27 26  1  1
 27 28  1  0
M  CHG  1  23   1
M  END
>  <minimizedAffinity>  (667) 
-8.81540

$$$$
data/200k_reference_output/data/smiles/56798.pdb
     RDKit          3D

 26 28  0  0  0  0  0  0  0  0999 V2000
   69.4353   42.8846   57.0662 C   0  0  0  0  0  0  0  0  0  0  0  0
   68.3737   42.2589   56.7445 O   0  0  0  0  0  0  0  0  0  0  0  0
   69.4931   44.2805   56.8516 N   0  0  0  0  0  0  0  0  0  0  0  0
   74.1850   42.7180   58.5501 C   0  0  0  0  0  0  0  0  0  0  0  0
   72.8698   42.0506   58.3649 C   0  0  0  0  0  0  0  0  0  0  0  0
   71.7803   42.6936   57.8334 C   0  0  0  0  0  0  0  0  0  0  0  0
   70.5457   42.1113   57.6448 C   0  0  0  0  0  0  0  0  0  0  0  0
   70.4185   40.7931   58.0225 C   0  0  0  0  0  0  0  0  0  0  0  0
   71.4893   40.0768   58.5700 C   0  0  0  0  0  0  0  0  0  0  0  0
   72.6999   40.7306   58.7296 C   0  0  0  0  0  0  0  0  0  0  0  0
   71.3283   38.7154   58.9513 N   0  0  0  0  0  0  0  0  0  0  0  0
   71.6647   37.6461   58.1996 C   0  0  0  0  0  0  0  0  0  0  0  0
   71.3614   36.4823   58.9019 C   0  0  0  0  0  0  0  0  0  0  0  0
   70.8348   36.9053   60.0937 C   0  0  0  0  0  0  0  0  0  0  0  0
   70.8339   38.2345   60.0815 N   0  0  0  0  0  0  0  0  0  0  0  0
   68.3657   44.9081   56.2912 N   0  0  0  0  0  0  0  0  0  0  0  0
   68.6805   46.6063   56.0577 S   0  0  0  0  0  0  0  0  0  0  0  0
   67.5232   47.3750   56.5898 O   0  0  0  0  0  0  0  0  0  0  0  0
   69.9191   47.0274   56.7634 O   0  0  0  0  0  0  0  0  0  0  0  0
   68.7811   46.9045   54.3385 C   0  0  0  0  0  0  0  0  0  0  0  0
   69.4366   47.9956   53.8257 C   0  0  0  0  0  0  0  0  0  0  0  0
   69.4812   48.1751   52.4633 C   0  0  0  0  0  0  0  0  0  0  0  0
   68.8885   47.2948   51.5828 C   0  0  0  0  0  0  0  0  0  0  0  0
   68.2310   46.2012   52.0925 C   0  0  0  0  0  0  0  0  0  0  0  0
   68.1910   46.0280   53.4667 C   0  0  0  0  0  0  0  0  0  0  0  0
   67.5427   44.9477   53.9990 F   0  0  0  0  0  0  0  0  0  0  0  0
  4  5  1  0
  5  6  2  0
  5 10  1  0
  6  7  1  0
  7  1  1  0
  7  8  2  0
  1  2  2  0
  1  3  1  0
  3 16  1  0
 16 17  1  0
 17 18  2  0
 17 19  2  0
 17 20  1  0
 20 21  2  0
 20 25  1  0
 21 22  1  0
 22 23  2  0
 23 24  1  0
 24 25  2  0
 25 26  1  0
  8  9  1  0
  9 11  1  0
  9 10  2  0
 11 12  1  0
 11 15  1  0
 12 13  2  0
 13 14  1  0
 14 15  2  0
M  END
>  <minimizedAffinity>  (668) 
-8.81863

$$$$
data/200k_reference_output/data/smiles/56896.pdb
     RDKit          3D

 28 30  0  0  0  0  0  0  0  0999 V2000
   70.9857   43.8310   58.1340 C   0  0  0  0  0  0  0  0  0  0  0  0
   72.2520   43.3103   58.2413 C   0  0  0  0  0  0  0  0  0  0  0  0
   72.4964   41.9568   58.2564 C   0  0  0  0  0  0  0  0  0  0  0  0
   71.4368   41.0348   58.1611 C   0  0  0  0  0  0  0  0  0  0  0  0
   70.1931   41.5729   58.0558 C   0  0  0  0  0  0  0  0  0  0  0  0
   69.9404   42.9521   58.0399 C   0  0  0  0  0  0  0  0  0  0  0  0
   71.7247   46.2182   58.6324 C   0  0  0  0  0  0  0  0  0  0  0  0
   70.7252   45.2536   58.1176 C   0  0  0  0  0  0  0  0  0  0  0  0
   69.6175   45.7142   57.6544 N   0  0  0  0  0  0  0  0  0  0  0  0
   69.4142   47.0938   57.6609 N   0  0  0  0  0  0  0  0  0  0  0  0
   68.4102   47.7524   56.9256 C   0  0  0  0  0  0  0  0  0  0  0  0
   67.6486   47.0456   56.2183 O   0  0  0  0  0  0  0  0  0  0  0  0
   68.2177   49.1985   56.9478 C   0  0  0  0  0  0  0  0  0  0  0  0
   67.3725   49.9412   57.7373 C   0  0  0  0  0  0  0  0  0  0  0  0
   67.4861   51.2821   57.4535 C   0  0  0  0  0  0  0  0  0  0  0  0
   68.4285   51.3331   56.4663 N   0  0  0  0  0  0  0  0  0  0  0  0
   68.8921   52.5480   55.8340 C   0  0  0  0  0  0  0  0  0  0  0  0
   68.8479   50.1071   56.1811 N   0  0  0  0  0  0  0  0  0  0  0  0
   71.7681   39.6537   58.1837 N   0  0  0  0  0  0  0  0  0  0  0  0
   70.9281   38.5727   58.4844 C   0  0  0  0  0  0  0  0  0  0  0  0
   69.7320   38.7991   58.7749 O   0  0  0  0  0  0  0  0  0  0  0  0
   71.3997   37.1715   58.4719 C   0  0  0  0  0  0  0  0  0  0  0  0
   71.0249   36.2247   59.3777 C   0  0  0  0  0  0  0  0  0  0  0  0
   71.5066   34.9195   59.3085 C   0  0  0  0  0  0  0  0  0  0  0  0
   72.3836   34.5364   58.3189 C   0  0  0  0  0  0  0  0  0  0  0  0
   72.7706   35.4831   57.3971 C   0  0  0  0  0  0  0  0  0  0  0  0
   73.6396   35.1047   56.4156 F   0  0  0  0  0  0  0  0  0  0  0  0
   72.2832   36.7711   57.4806 C   0  0  0  0  0  0  0  0  0  0  0  0
  7  8  1  0
  8  9  2  0
  8  1  1  0
  9 10  1  0
 10 11  1  0
 11 12  2  0
 11 13  1  0
 13 14  1  0
 13 18  2  0
 14 15  2  0
 15 16  1  0
 16 17  1  0
 16 18  1  0
  1  2  2  0
  1  6  1  0
  2  3  1  0
  3  4  2  0
  4 19  1  0
  4  5  1  0
 19 20  1  0
 20 21  2  0
 20 22  1  0
 22 23  2  0
 22 28  1  0
 23 24  1  0
 24 25  2  0
 25 26  1  0
 26 27  1  0
 26 28  2  0
  5  6  2  0
M  END
>  <minimizedAffinity>  (669) 
-8.60923

$$$$
data/200k_reference_output/data/smiles/57036.pdb
     RDKit          3D

 25 27  0  0  0  0  0  0  0  0999 V2000
   68.6211   46.4931   54.1978 C   0  0  0  0  0  0  0  0  0  0  0  0
   68.3319   46.0866   52.9048 C   0  0  0  0  0  0  0  0  0  0  0  0
   68.6882   46.8721   51.8335 C   0  0  0  0  0  0  0  0  0  0  0  0
   69.3362   48.0689   52.0376 C   0  0  0  0  0  0  0  0  0  0  0  0
   69.6436   48.5109   53.3140 C   0  0  0  0  0  0  0  0  0  0  0  0
   69.2708   47.6983   54.3594 C   0  0  0  0  0  0  0  0  0  0  0  0
   70.4660   50.0364   53.5294 S   0  0  0  0  0  0  0  0  0  0  0  0
   71.9463   49.8152   53.5846 O   0  0  0  0  0  0  0  0  0  0  0  0
   70.1085   51.0132   52.4491 O   0  0  0  0  0  0  0  0  0  0  0  0
   69.9047   50.7055   55.0303 N   0  0  0  0  0  0  0  0  0  0  0  0
   70.8687   51.6413   55.5769 C   0  0  0  0  0  0  0  0  0  0  0  0
   70.0511   52.4597   56.5606 C   0  0  0  0  0  0  0  0  0  0  0  0
   68.6060   52.1967   56.2098 C   0  0  0  0  0  0  0  0  0  0  0  0
   68.7332   51.5276   54.8505 C   0  0  0  0  0  0  0  0  0  0  0  0
   68.2447   45.6602   55.3549 C   0  0  0  0  0  0  0  0  0  0  0  0
   68.3574   46.0942   56.5062 O   0  0  0  0  0  0  0  0  0  0  0  0
   67.7594   44.3903   55.2406 O   0  0  0  0  0  0  0  0  0  0  0  0
   68.7111   40.9931   57.4893 C   0  0  0  0  0  0  0  0  0  0  0  0
   67.6063   41.0334   56.6568 C   0  0  0  0  0  0  0  0  0  0  0  0
   67.3189   42.1839   55.9215 C   0  0  0  0  0  0  0  0  0  0  0  0
   68.1187   43.3099   55.9971 C   0  0  0  0  0  0  0  0  0  0  0  0
   69.2113   43.2500   56.8286 C   0  0  0  0  0  0  0  0  0  0  0  0
   69.5204   42.1133   57.5742 C   0  0  0  0  0  0  0  0  0  0  0  0
   68.2010   38.9219   58.7308 C   0  0  0  0  0  0  0  0  0  0  0  0
   69.0641   39.9006   58.2464 O   0  0  0  0  0  0  0  0  0  0  0  0
 24 25  1  0
 25 18  1  0
 18 19  2  0
 18 23  1  0
 19 20  1  0
 20 21  2  0
 21 17  1  0
 21 22  1  0
 17 15  1  0
 15 16  2  0
 15  1  1  0
  1  2  2  0
  1  6  1  0
  2  3  1  0
  3  4  2  0
  4  5  1  0
  5  7  1  0
  5  6  2  0
  7  8  2  0
  7  9  2  0
  7 10  1  0
 10 11  1  0
 10 14  1  0
 11 12  1  0
 12 13  1  0
 13 14  1  0
 22 23  2  0
M  END
>  <minimizedAffinity>  (670) 
-8.75830

$$$$
data/200k_reference_output/data/smiles/57066.pdb
     RDKit          3D

 27 31  0  0  0  0  0  0  0  0999 V2000
   69.6745   43.3269   57.2445 C   0  0  0  0  0  0  0  0  0  0  0  0
   68.4244   42.8649   56.6039 C   0  0  0  0  0  0  0  0  0  0  0  0
   67.7762   41.6729   56.8568 C   0  0  0  0  0  0  0  0  0  0  0  0
   66.6663   41.6910   56.0266 C   0  0  0  0  0  0  0  0  0  0  0  0
   66.6998   42.8348   55.3492 N   0  0  0  0  0  0  0  0  0  0  0  0
   67.7470   43.5718   55.6703 N   0  0  0  0  0  0  0  0  0  0  0  0
   68.1583   40.6209   57.7842 C   0  0  0  0  0  0  0  0  0  0  0  0
   68.6121   39.5524   57.3203 O   0  0  0  0  0  0  0  0  0  0  0  0
   68.0228   40.7960   59.1778 N   0  0  0  0  0  0  0  0  0  0  0  0
   67.5538   41.8594   60.0436 C   0  0  0  0  0  0  0  0  0  0  0  0
   68.2486   41.1959   61.1726 C   0  0  0  0  0  0  0  0  0  0  0  0
   68.2997   39.9807   60.3404 C   0  0  0  0  0  0  0  0  0  0  0  0
   67.6301   41.1664   62.4992 C   0  0  0  0  0  0  0  0  0  0  0  0
   68.6899   42.1785   62.9602 C   0  0  0  0  0  0  0  0  0  0  0  0
   69.2587   41.7233   64.1297 F   0  0  0  0  0  0  0  0  0  0  0  0
   68.2744   43.4743   62.9620 F   0  0  0  0  0  0  0  0  0  0  0  0
   69.4854   41.7746   61.7102 C   0  0  0  0  0  0  0  0  0  0  0  0
   68.1205   44.8476   55.1633 C   0  0  0  0  0  0  0  0  0  0  0  0
   68.1998   45.1127   53.8498 N   0  0  0  0  0  0  0  0  0  0  0  0
   68.5556   46.3318   53.3618 C   0  0  0  0  0  0  0  0  0  0  0  0
   68.8457   47.3288   54.2661 C   0  0  0  0  0  0  0  0  0  0  0  0
   68.7696   47.0725   55.6047 C   0  0  0  0  0  0  0  0  0  0  0  0
   69.0281   47.9639   56.4712 O   0  0  0  0  0  0  0  0  0  0  0  0
   68.4102   45.8438   56.0173 N   0  0  0  0  0  0  0  0  0  0  0  0
   69.2107   48.5751   53.5152 C   0  0  0  0  0  0  0  0  0  0  0  0
   69.6672   48.0096   52.1677 C   0  0  0  0  0  0  0  0  0  0  0  0
   68.7156   46.8760   51.9840 C   0  0  0  0  0  0  0  0  0  0  0  0
  1  2  1  0
  2  3  2  0
  2  6  1  0
  3  7  1  0
  3  4  1  0
  7  8  2  0
  7  9  1  0
  9 10  1  0
  9 12  1  0
 10 11  1  0
 11 12  1  0
 11 13  1  0
 11 17  1  0
 13 14  1  0
 14 15  1  0
 14 16  1  0
 14 17  1  0
  4  5  2  0
  5  6  1  0
  6 18  1  0
 18 19  2  0
 18 24  1  0
 19 20  1  0
 20 21  2  0
 20 27  1  0
 21 22  1  0
 21 25  1  0
 22 23  2  0
 22 24  1  0
 25 26  1  0
 26 27  1  0
M  END
>  <minimizedAffinity>  (671) 
-8.57260

$$$$
data/200k_reference_output/data/smiles/57069.pdb
     RDKit          3D

 23 24  0  0  0  0  0  0  0  0999 V2000
   68.8516   47.3792   56.7183 S   0  0  0  0  0  0  0  0  0  0  0  0
   67.4564   47.5445   57.2652 O   0  0  0  0  0  0  0  0  0  0  0  0
   69.3311   46.0465   57.2422 O   0  0  0  0  0  0  0  0  0  0  0  0
   69.3164   47.9835   52.7601 C   0  0  0  0  0  0  0  0  0  0  0  0
   69.4033   48.1171   54.1258 C   0  0  0  0  0  0  0  0  0  0  0  0
   68.7547   47.2296   54.9898 C   0  0  0  0  0  0  0  0  0  0  0  0
   68.0132   46.2007   54.4512 C   0  0  0  0  0  0  0  0  0  0  0  0
   67.9141   46.0506   53.1009 C   0  0  0  0  0  0  0  0  0  0  0  0
   68.5617   46.9368   52.2668 C   0  0  0  0  0  0  0  0  0  0  0  0
   68.4454   46.7638   50.9068 O   0  0  0  0  0  0  0  0  0  0  0  0
   70.6482   48.4737   50.8704 O   0  0  0  0  0  0  0  0  0  0  0  0
   69.9877   48.9034   51.8469 C   0  0  0  0  0  0  0  0  0  0  0  0
   69.8977   50.2654   52.0602 O   0  0  0  0  0  0  0  0  0  0  0  0
   69.8691   48.6508   57.2512 N   0  0  0  0  0  0  0  0  0  0  0  0
   69.6322   50.0205   56.9884 C   0  0  0  0  0  0  0  0  0  0  0  0
   68.4328   50.6154   57.3557 C   0  0  0  0  0  0  0  0  0  0  0  0
   68.1889   51.9418   57.1350 C   0  0  0  0  0  0  0  0  0  0  0  0
   69.1330   52.7304   56.5399 C   0  0  0  0  0  0  0  0  0  0  0  0
   70.3153   52.1460   56.1784 C   0  0  0  0  0  0  0  0  0  0  0  0
   70.5975   50.8183   56.3818 C   0  0  0  0  0  0  0  0  0  0  0  0
   71.8697   50.2646   55.9653 C   0  0  0  0  0  0  0  0  0  0  0  0
   72.0857   50.0120   54.7582 O   0  0  0  0  0  0  0  0  0  0  0  0
   72.8976   49.9897   56.8623 O   0  0  0  0  0  0  0  0  0  0  0  0
 11 12  2  0
 12 13  1  0
 12  4  1  0
  4  5  2  0
  4  9  1  0
  5  6  1  0
  6  1  1  0
  6  7  2  0
  1  2  2  0
  1  3  2  0
  1 14  1  0
 14 15  1  0
 15 16  2  0
 15 20  1  0
 16 17  1  0
 17 18  2  0
 18 19  1  0
 19 20  2  0
 20 21  1  0
 21 22  2  0
 21 23  1  0
  7  8  1  0
  8  9  2  0
  9 10  1  0
M  END
>  <minimizedAffinity>  (672) 
-8.55631

$$$$
data/200k_reference_output/data/smiles/57237.pdb
     RDKit          3D

 23 24  0  0  0  0  0  0  0  0999 V2000
   68.7059   47.2006   56.4950 O   0  0  0  0  0  0  0  0  0  0  0  0
   68.6503   47.0586   55.1244 C   0  0  0  0  0  0  0  0  0  0  0  0
   67.9308   46.0054   54.6040 C   0  0  0  0  0  0  0  0  0  0  0  0
   67.8220   45.7872   53.2448 C   0  0  0  0  0  0  0  0  0  0  0  0
   68.4635   46.6685   52.4045 C   0  0  0  0  0  0  0  0  0  0  0  0
   68.3594   46.4578   51.0500 F   0  0  0  0  0  0  0  0  0  0  0  0
   69.1934   47.7350   52.8712 C   0  0  0  0  0  0  0  0  0  0  0  0
   69.2720   47.9099   54.2434 C   0  0  0  0  0  0  0  0  0  0  0  0
   69.9848   48.9524   54.7118 F   0  0  0  0  0  0  0  0  0  0  0  0
   69.8534   48.6392   51.9417 C   0  0  0  0  0  0  0  0  0  0  0  0
   69.8005   50.0505   52.0950 N   0  0  0  0  0  0  0  0  0  0  0  0
   70.4888   48.1030   50.9722 O   0  0  0  0  0  0  0  0  0  0  0  0
   69.8499   47.0156   57.2655 C   0  0  0  0  0  0  0  0  0  0  0  0
   69.9928   45.6328   57.7658 C   0  0  0  0  0  0  0  0  0  0  0  0
   69.8647   45.4474   59.0043 O   0  0  0  0  0  0  0  0  0  0  0  0
   70.2538   44.5374   56.9818 O   0  0  0  0  0  0  0  0  0  0  0  0
   68.0370   39.3580   57.9399 C   0  0  0  0  0  0  0  0  0  0  0  0
   68.6296   40.7030   57.6999 C   0  0  0  0  0  0  0  0  0  0  0  0
   69.8377   41.0852   58.2409 C   0  0  0  0  0  0  0  0  0  0  0  0
   70.3701   42.3376   58.0081 C   0  0  0  0  0  0  0  0  0  0  0  0
   69.7275   43.2725   57.2244 C   0  0  0  0  0  0  0  0  0  0  0  0
   68.5174   42.8815   56.6864 C   0  0  0  0  0  0  0  0  0  0  0  0
   67.9781   41.6308   56.9152 C   0  0  0  0  0  0  0  0  0  0  0  0
 17 18  1  0
 18 19  2  0
 18 23  1  0
 19 20  1  0
 20 21  2  0
 21 16  1  0
 21 22  1  0
 16 14  1  0
 14 15  2  0
 14 13  1  0
 13  1  1  0
  1  2  1  0
  2  3  2  0
  2  8  1  0
  3  4  1  0
  4  5  2  0
  5  6  1  0
  5  7  1  0
  7 10  1  0
  7  8  2  0
 10 11  1  0
 10 12  2  0
  8  9  1  0
 22 23  2  0
M  END
>  <minimizedAffinity>  (673) 
-8.62164

$$$$
data/200k_reference_output/data/smiles/57361.pdb
     RDKit          3D

 27 30  0  0  0  0  0  0  0  0999 V2000
   68.5021   41.5186   57.9474 C   0  0  2  0  0  0  0  0  0  0  0  0
   67.8556   41.9782   59.1535 N   0  0  0  0  0  0  0  0  0  0  0  0
   66.5847   42.2187   59.3004 N   0  0  0  0  0  0  0  0  0  0  0  0
   66.3327   42.6290   60.5458 N   0  0  0  0  0  0  0  0  0  0  0  0
   67.4866   42.6451   61.1941 C   0  0  0  0  0  0  0  0  0  0  0  0
   67.8063   42.9821   62.4875 C   0  0  0  0  0  0  0  0  0  0  0  0
   69.1164   42.9049   62.9082 C   0  0  0  0  0  0  0  0  0  0  0  0
   70.0682   42.4897   62.0067 C   0  0  0  0  0  0  0  0  0  0  0  0
   69.7515   42.1522   60.7132 C   0  0  0  0  0  0  0  0  0  0  0  0
   68.4462   42.2335   60.3141 C   0  0  0  0  0  0  0  0  0  0  0  0
   67.3624   41.8312   56.5676 P   0  0  0  0  0  0  0  0  0  0  0  0
   65.9321   41.8106   57.0087 O   0  0  0  0  0  0  0  0  0  0  0  0
   67.5741   40.6172   55.4080 O   0  0  0  0  0  0  0  0  0  0  0  0
   67.7330   43.3135   55.8165 O   0  0  0  0  0  0  0  0  0  0  0  0
   67.9925   39.1704   57.8495 O   0  0  0  0  0  0  0  0  0  0  0  0
   68.8323   40.0602   58.0549 C   0  0  0  0  0  0  0  0  0  0  0  0
   70.1535   39.6944   58.4033 N   0  0  0  0  0  0  0  0  0  0  0  0
   70.6347   38.3757   58.5474 C   0  0  0  0  0  0  0  0  0  0  0  0
   70.1500   37.6310   59.6343 C   0  0  0  0  0  0  0  0  0  0  0  0
   70.5377   36.3347   59.8895 C   0  0  0  0  0  0  0  0  0  0  0  0
   71.4393   35.6978   59.0679 C   0  0  0  0  0  0  0  0  0  0  0  0
   71.8444   34.3867   59.3097 C   0  0  0  0  0  0  0  0  0  0  0  0
   72.7566   33.7750   58.4606 C   0  0  0  0  0  0  0  0  0  0  0  0
   73.2501   34.4809   57.3842 C   0  0  0  0  0  0  0  0  0  0  0  0
   72.8313   35.7875   57.1645 C   0  0  0  0  0  0  0  0  0  0  0  0
   71.9270   36.4101   57.9970 C   0  0  0  0  0  0  0  0  0  0  0  0
   71.5151   37.7284   57.7612 C   0  0  0  0  0  0  0  0  0  0  0  0
 15 16  2  0
 16 17  1  0
 16  1  1  0
 17 18  1  0
 18 19  2  0
 18 27  1  0
 19 20  1  0
 20 21  2  0
 21 22  1  0
 21 26  1  0
 22 23  2  0
 23 24  1  0
 24 25  2  0
 25 26  1  0
 26 27  2  0
  1  2  1  1
  1 11  1  0
  2  3  1  0
  2 10  1  0
  3  4  2  0
  4  5  1  0
  5  6  1  0
  5 10  2  0
  6  7  2  0
  7  8  1  0
  8  9  2  0
  9 10  1  0
 11 12  2  0
 11 13  1  0
 11 14  1  0
M  END
>  <minimizedAffinity>  (674) 
-8.82925

$$$$
data/200k_reference_output/data/smiles/57383.pdb
     RDKit          3D

 33 38  0  0  0  0  0  0  0  0999 V2000
   72.1372   36.0931   58.4738 C   0  0  0  0  0  0  0  0  0  0  0  0
   72.1238   35.2378   59.5346 C   0  0  0  0  0  0  0  0  0  0  0  0
   72.4507   33.8934   59.4020 C   0  0  0  0  0  0  0  0  0  0  0  0
   72.8063   33.3950   58.1562 C   0  0  0  0  0  0  0  0  0  0  0  0
   72.8309   34.2291   57.0638 C   0  0  0  0  0  0  0  0  0  0  0  0
   73.1299   34.0698   55.7540 N   0  0  0  0  0  0  0  0  0  0  0  0
   73.0011   35.2341   55.0913 C   0  0  0  0  0  0  0  0  0  0  0  0
   72.6091   36.1346   56.0381 N   0  0  0  0  0  0  0  0  0  0  0  0
   72.5046   35.5374   57.2352 C   0  0  0  0  0  0  0  0  0  0  0  0
   72.6787   38.3713   58.5032 O   0  0  0  0  0  0  0  0  0  0  0  0
   71.7861   37.5105   58.5000 C   0  0  0  0  0  0  0  0  0  0  0  0
   70.4055   37.8966   58.5223 N   0  0  0  0  0  0  0  0  0  0  0  0
   69.9288   39.2450   58.5309 C   0  0  2  0  0  0  0  0  0  0  0  0
   69.8253   39.8223   59.9353 C   0  0  0  0  0  0  0  0  0  0  0  0
   68.6995   40.7585   60.0148 N   0  0  2  0  0  0  0  0  0  0  0  0
   67.5039   39.9331   60.1556 C   0  0  0  0  0  0  0  0  0  0  0  0
   67.5147   38.8759   59.0703 C   0  0  0  0  0  0  0  0  0  0  0  0
   68.5124   39.2696   57.9661 C   0  0  1  0  0  0  0  0  0  0  0  0
   68.1930   40.6944   57.6049 C   0  0  0  0  0  0  0  0  0  0  0  0
   68.5863   41.5475   58.7941 C   0  0  0  0  0  0  0  0  0  0  0  0
   73.2236   35.5374   53.6522 C   0  0  0  0  0  0  0  0  0  0  0  0
   74.4775   34.9943   53.2754 N   0  0  0  0  0  0  0  0  0  0  0  0
   74.4724   33.8302   52.5049 C   0  0  0  0  0  0  0  0  0  0  0  0
   75.8476   33.4546   52.0403 C   0  0  0  0  0  0  0  0  0  0  0  0
   76.4557   34.6346   51.4992 N   0  0  0  0  0  0  0  0  0  0  0  0
   76.6582   35.7347   52.4542 C   0  0  0  0  0  0  0  0  0  0  0  0
   75.6474   35.6837   53.5604 C   0  0  0  0  0  0  0  0  0  0  0  0
   76.8353   34.7989   50.1446 C   0  0  0  0  0  0  0  0  0  0  0  0
   76.2121   34.0246   49.1826 C   0  0  0  0  0  0  0  0  0  0  0  0
   76.5667   34.1633   47.8564 C   0  0  0  0  0  0  0  0  0  0  0  0
   77.5357   35.0668   47.4902 C   0  0  0  0  0  0  0  0  0  0  0  0
   78.1401   35.8241   48.4706 C   0  0  0  0  0  0  0  0  0  0  0  0
   77.8022   35.7035   49.8017 C   0  0  0  0  0  0  0  0  0  0  0  0
 10 11  2  0
 11 12  1  0
 11  1  1  0
 13 12  1  1
 13 14  1  0
 13 18  1  0
 15 14  1  6
 15 16  1  0
 15 20  1  0
 16 17  1  0
 18 17  1  1
 18 19  1  0
 19 20  1  0
  1  2  1  0
  1  9  2  0
  2  3  2  0
  3  4  1  0
  4  5  2  0
  5  6  1  0
  5  9  1  0
  6  7  1  0
  7 21  1  0
  7  8  2  0
 21 22  1  0
 22 23  1  0
 22 27  1  0
 23 24  1  0
 24 25  1  0
 25 28  1  0
 25 26  1  0
 28 29  2  0
 28 33  1  0
 29 30  1  0
 30 31  2  0
 31 32  1  0
 32 33  2  0
 26 27  1  0
  8  9  1  0
M  CHG  3   8   1  15   1  22   1
M  END
>  <minimizedAffinity>  (675) 
-8.83907

$$$$
data/200k_reference_output/data/smiles/57388.pdb
     RDKit          3D

 30 34  0  0  0  0  0  0  0  0999 V2000
   71.8996   48.9544   59.0096 C   0  0  0  0  0  0  0  0  0  0  0  0
   70.9535   48.3686   58.1646 C   0  0  0  0  0  0  0  0  0  0  0  0
   70.2200   49.0596   57.2426 C   0  0  0  0  0  0  0  0  0  0  0  0
   70.4709   50.4380   57.1793 C   0  0  0  0  0  0  0  0  0  0  0  0
   71.3940   51.0564   57.9919 C   0  0  0  0  0  0  0  0  0  0  0  0
   72.1110   50.3049   58.9120 C   0  0  0  0  0  0  0  0  0  0  0  0
   73.0223   50.9509   59.7067 F   0  0  0  0  0  0  0  0  0  0  0  0
   72.0061   47.6349   60.9606 O   0  0  0  0  0  0  0  0  0  0  0  0
   72.6407   48.1567   59.9759 C   0  0  0  0  0  0  0  0  0  0  0  0
   74.0521   47.9672   59.8249 N   0  0  0  0  0  0  0  0  0  0  0  0
   74.9847   47.2386   60.6551 C   0  0  0  0  0  0  0  0  0  0  0  0
   75.9459   47.2053   59.5250 C   0  0  0  0  0  0  0  0  0  0  0  0
   75.1165   48.3311   58.9616 C   0  0  0  0  0  0  0  0  0  0  0  0
   74.8640   48.2098   57.4746 C   0  0  0  0  0  0  0  0  0  0  0  0
   74.7501   49.5945   56.8934 C   0  0  0  0  0  0  0  0  0  0  0  0
   76.0522   50.2457   56.8891 N   0  0  0  0  0  0  0  0  0  0  0  0
   76.7470   50.0179   58.1420 C   0  0  0  0  0  0  0  0  0  0  0  0
   75.7764   49.6676   59.2631 C   0  0  0  0  0  0  0  0  0  0  0  0
   69.1977   48.4376   56.3657 C   0  0  0  0  0  0  0  0  0  0  0  0
   69.5277   48.4429   54.9430 C   0  0  0  0  0  0  0  0  0  0  0  0
   70.4218   49.3736   54.4742 N   0  0  0  0  0  0  0  0  0  0  0  0
   70.7397   49.4737   53.1978 N   0  0  0  0  0  0  0  0  0  0  0  0
   70.2248   48.6839   52.2440 C   0  0  0  0  0  0  0  0  0  0  0  0
   70.5242   48.7802   51.0421 O   0  0  0  0  0  0  0  0  0  0  0  0
   69.3164   47.7168   52.6246 C   0  0  0  0  0  0  0  0  0  0  0  0
   68.7634   46.8669   51.6737 C   0  0  0  0  0  0  0  0  0  0  0  0
   67.8749   45.9065   52.0643 C   0  0  0  0  0  0  0  0  0  0  0  0
   67.5533   45.8096   53.3990 C   0  0  0  0  0  0  0  0  0  0  0  0
   68.1150   46.6677   54.3346 C   0  0  0  0  0  0  0  0  0  0  0  0
   69.0038   47.6341   53.9678 C   0  0  0  0  0  0  0  0  0  0  0  0
  8  9  2  0
  9  1  1  0
  9 10  1  0
  1  2  2  0
  1  6  1  0
  2  3  1  0
  3 19  1  0
  3  4  2  0
 19 20  1  0
 20 21  2  0
 20 30  1  0
 21 22  1  0
 22 23  1  0
 23 24  2  0
 23 25  1  0
 25 26  1  0
 25 30  2  0
 26 27  2  0
 27 28  1  0
 28 29  2  0
 29 30  1  0
  4  5  1  0
  5  6  2  0
  6  7  1  0
 10 11  1  0
 10 13  1  0
 11 12  1  0
 12 13  1  0
 13 14  1  0
 13 18  1  0
 14 15  1  0
 15 16  1  0
 16 17  1  0
 17 18  1  0
M  CHG  1  16   1
M  END
>  <minimizedAffinity>  (676) 
-8.81927

$$$$
data/200k_reference_output/data/smiles/57411.pdb
     RDKit          3D

 28 31  0  0  0  0  0  0  0  0999 V2000
   71.7083   51.9527   54.6641 C   0  0  0  0  0  0  0  0  0  0  0  0
   70.9179   50.7035   54.8206 C   0  0  0  0  0  0  0  0  0  0  0  0
   70.5926   50.0466   55.9806 C   0  0  0  0  0  0  0  0  0  0  0  0
   69.8616   48.8905   55.6409 C   0  0  0  0  0  0  0  0  0  0  0  0
   69.7660   48.8772   54.3194 N   0  0  0  0  0  0  0  0  0  0  0  0
   70.3913   49.9481   53.8297 N   0  0  0  0  0  0  0  0  0  0  0  0
   69.0668   47.8082   53.6435 C   0  0  0  0  0  0  0  0  0  0  0  0
   68.9771   47.8087   52.2706 C   0  0  0  0  0  0  0  0  0  0  0  0
   68.2968   46.7659   51.6308 C   0  0  0  0  0  0  0  0  0  0  0  0
   67.7088   45.7328   52.3289 C   0  0  0  0  0  0  0  0  0  0  0  0
   67.0404   44.7151   51.6442 O   0  0  0  0  0  0  0  0  0  0  0  0
   67.8082   45.7470   53.7030 C   0  0  0  0  0  0  0  0  0  0  0  0
   68.4868   46.7864   54.3405 C   0  0  0  0  0  0  0  0  0  0  0  0
   68.5566   46.7446   55.8119 C   0  0  0  0  0  0  0  0  0  0  0  0
   69.2702   47.8365   56.4771 C   0  0  0  0  0  0  0  0  0  0  0  0
   73.1755   51.7642   54.5302 C   0  0  0  0  0  0  0  0  0  0  0  0
   74.0784   51.7920   56.7533 O   0  0  0  0  0  0  0  0  0  0  0  0
   73.8747   51.1842   55.6840 C   0  0  0  0  0  0  0  0  0  0  0  0
   74.3620   49.8273   55.5889 N   0  0  0  0  0  0  0  0  0  0  0  0
   75.0417   49.2133   56.6648 C   0  0  0  0  0  0  0  0  0  0  0  0
   74.3822   48.5031   57.6562 C   0  0  0  0  0  0  0  0  0  0  0  0
   75.0497   47.9102   58.6987 C   0  0  0  0  0  0  0  0  0  0  0  0
   76.4217   47.9932   58.8070 C   0  0  0  0  0  0  0  0  0  0  0  0
   77.0914   48.6950   57.8286 C   0  0  0  0  0  0  0  0  0  0  0  0
   76.4141   49.3018   56.7645 C   0  0  0  0  0  0  0  0  0  0  0  0
   77.1934   50.0243   55.7738 C   0  0  0  0  0  0  0  0  0  0  0  0
   77.6502   49.3884   54.7935 O   0  0  0  0  0  0  0  0  0  0  0  0
   77.4572   51.3765   55.8573 O   0  0  0  0  0  0  0  0  0  0  0  0
 17 18  2  0
 18 16  1  0
 18 19  1  0
 16  1  1  0
  1  2  1  0
  2  3  1  0
  2  6  2  0
  3  4  2  0
  4  5  1  0
  4 15  1  0
  5  6  1  0
  5  7  1  0
  7  8  2  0
  7 13  1  0
  8  9  1  0
  9 10  2  0
 10 11  1  0
 10 12  1  0
 12 13  2  0
 13 14  1  0
 14 15  1  0
 19 20  1  0
 20 21  2  0
 20 25  1  0
 21 22  1  0
 22 23  2  0
 23 24  1  0
 24 25  2  0
 25 26  1  0
 26 27  2  0
 26 28  1  0
M  END
>  <minimizedAffinity>  (677) 
-8.69205

$$$$
data/200k_reference_output/data/smiles/57438.pdb
     RDKit          3D

 28 31  0  0  0  0  0  0  0  0999 V2000
   69.9878   48.9386   52.8131 C   0  0  0  0  0  0  0  0  0  0  0  0
   70.2431   48.8707   51.5755 O   0  0  0  0  0  0  0  0  0  0  0  0
   69.2355   47.9240   53.4588 N   0  0  0  0  0  0  0  0  0  0  0  0
   68.7726   46.8088   52.6559 C   0  0  0  0  0  0  0  0  0  0  0  0
   67.6639   46.0432   53.3719 C   0  0  0  0  0  0  0  0  0  0  0  0
   68.2324   45.6111   54.6733 C   0  0  0  0  0  0  0  0  0  0  0  0
   68.1567   44.3508   55.1222 N   0  0  0  0  0  0  0  0  0  0  0  0
   68.6772   43.9549   56.3122 C   0  0  0  0  0  0  0  0  0  0  0  0
   69.2856   44.9079   57.0355 N   0  0  0  0  0  0  0  0  0  0  0  0
   69.3920   46.2038   56.6310 C   0  0  0  0  0  0  0  0  0  0  0  0
   69.9674   47.0718   57.3329 O   0  0  0  0  0  0  0  0  0  0  0  0
   68.8587   46.5840   55.4231 C   0  0  0  0  0  0  0  0  0  0  0  0
   68.9318   47.9926   54.8962 C   0  0  0  0  0  0  0  0  0  0  0  0
   71.4961   52.3604   54.9114 C   0  0  0  0  0  0  0  0  0  0  0  0
   70.1835   52.3146   54.4906 C   0  0  0  0  0  0  0  0  0  0  0  0
   69.7043   51.2040   53.8138 C   0  0  0  0  0  0  0  0  0  0  0  0
   70.5088   50.1167   53.5376 C   0  0  0  0  0  0  0  0  0  0  0  0
   71.7867   50.1928   53.9626 N   0  0  0  0  0  0  0  0  0  0  0  0
   72.2767   51.2606   54.6224 C   0  0  0  0  0  0  0  0  0  0  0  0
   71.5947   53.7636   56.7757 O   0  0  0  0  0  0  0  0  0  0  0  0
   72.0404   53.5123   55.6269 C   0  0  0  0  0  0  0  0  0  0  0  0
   73.0085   54.3349   55.1194 O   0  0  0  0  0  0  0  0  0  0  0  0
   68.5668   42.5682   56.7531 C   0  0  0  0  0  0  0  0  0  0  0  0
   67.6754   41.6594   56.2481 C   0  0  0  0  0  0  0  0  0  0  0  0
   67.6002   40.3516   56.6930 C   0  0  0  0  0  0  0  0  0  0  0  0
   68.4569   39.9377   57.6862 C   0  0  0  0  0  0  0  0  0  0  0  0
   69.3682   40.8237   58.2196 C   0  0  0  0  0  0  0  0  0  0  0  0
   69.4133   42.1243   57.7505 C   0  0  0  0  0  0  0  0  0  0  0  0
 20 21  2  0
 21 22  1  0
 21 14  1  0
 14 15  2  0
 14 19  1  0
 15 16  1  0
 16 17  2  0
 17  1  1  0
 17 18  1  0
  1  2  2  0
  1  3  1  0
  3  4  1  0
  3 13  1  0
  4  5  1  0
  5  6  1  0
  6  7  1  0
  6 12  2  0
  7  8  2  0
  8 23  1  0
  8  9  1  0
 23 24  2  0
 23 28  1  0
 24 25  1  0
 25 26  2  0
 26 27  1  0
 27 28  2  0
  9 10  1  0
 10 11  2  0
 10 12  1  0
 12 13  1  0
 18 19  2  0
M  END
>  <minimizedAffinity>  (678) 
-8.88516

$$$$
data/200k_reference_output/data/smiles/57486.pdb
     RDKit          3D

 21 22  0  0  0  0  0  0  0  0999 V2000
   70.0280   51.2622   54.1889 C   0  0  0  0  0  0  0  0  0  0  0  0
   69.3571   50.5408   53.2798 C   0  0  0  0  0  0  0  0  0  0  0  0
   70.1628   49.3646   52.9553 C   0  0  1  0  0  0  0  0  0  0  0  0
   71.3504   49.5072   53.6419 O   0  0  0  0  0  0  0  0  0  0  0  0
   71.3111   50.6285   54.4437 C   0  0  0  0  0  0  0  0  0  0  0  0
   72.2278   51.0239   55.2464 O   0  0  0  0  0  0  0  0  0  0  0  0
   69.4437   48.0981   53.3268 C   0  0  0  0  0  0  0  0  0  0  0  0
   69.0214   47.8772   54.6369 C   0  0  0  0  0  0  0  0  0  0  0  0
   68.3533   46.7245   54.9898 C   0  0  0  0  0  0  0  0  0  0  0  0
   67.9360   46.5105   56.2954 O   0  0  0  0  0  0  0  0  0  0  0  0
   68.0763   45.7451   54.0622 C   0  0  0  0  0  0  0  0  0  0  0  0
   68.4895   45.9526   52.7621 C   0  0  0  0  0  0  0  0  0  0  0  0
   69.1693   47.1289   52.4093 C   0  0  0  0  0  0  0  0  0  0  0  0
   69.5551   47.2692   51.0897 O   0  0  0  0  0  0  0  0  0  0  0  0
   69.4980   52.5218   54.7418 C   0  0  0  0  0  0  0  0  0  0  0  0
   69.2530   52.5484   56.2174 C   0  0  0  0  0  0  0  0  0  0  0  0
   67.0534   49.8628   57.8619 C   0  0  0  0  0  0  0  0  0  0  0  0
   68.2720   50.7168   57.5118 C   0  0  0  0  0  0  0  0  0  0  0  0
   68.1702   51.6741   56.6314 C   0  0  0  0  0  0  0  0  0  0  0  0
   69.5227   50.4021   58.2113 C   0  0  0  0  0  0  0  0  0  0  0  0
   70.0848   49.2999   57.5105 O   0  0  0  0  0  0  0  0  0  0  0  0
 17 18  1  0
 18 19  2  0
 18 20  1  0
 19 16  1  0
 16 15  1  0
 15  1  1  0
  1  2  2  0
  1  5  1  0
  2  3  1  0
  3  7  1  1
  3  4  1  0
  7  8  2  0
  7 13  1  0
  8  9  1  0
  9 10  1  0
  9 11  2  0
 11 12  1  0
 12 13  2  0
 13 14  1  0
  4  5  1  0
  5  6  2  0
 20 21  1  0
M  END
>  <minimizedAffinity>  (679) 
-8.53127

$$$$
data/200k_reference_output/data/smiles/57505.pdb
     RDKit          3D

 24 27  0  0  0  0  0  0  0  0999 V2000
   76.7566   35.9904   53.0775 C   0  0  0  0  0  0  0  0  0  0  0  0
   77.8112   34.6804   45.8621 C   0  0  0  0  0  0  0  0  0  0  0  0
   77.2482   34.6339   47.2532 C   0  0  0  0  0  0  0  0  0  0  0  0
   76.1665   33.8173   47.5207 C   0  0  0  0  0  0  0  0  0  0  0  0
   75.6769   33.8013   48.8096 C   0  0  0  0  0  0  0  0  0  0  0  0
   74.5039   32.9376   49.1720 C   0  0  0  0  0  0  0  0  0  0  0  0
   76.2083   34.5408   49.7980 N   0  0  0  0  0  0  0  0  0  0  0  0
   75.9136   34.6859   51.0809 N   0  0  0  0  0  0  0  0  0  0  0  0
   76.7520   35.5567   51.6611 C   0  0  0  0  0  0  0  0  0  0  0  0
   77.5903   35.9516   50.6666 N   0  0  0  0  0  0  0  0  0  0  0  0
   77.2686   35.3355   49.5162 C   0  0  0  0  0  0  0  0  0  0  0  0
   77.7524   35.3560   48.2561 N   0  0  0  0  0  0  0  0  0  0  0  0
   76.3356   34.8162   53.9308 C   0  0  0  0  0  0  0  0  0  0  0  0
   74.9810   35.1172   54.5050 C   0  0  0  0  0  0  0  0  0  0  0  0
   74.6384   35.2394   55.7939 N   0  0  0  0  0  0  0  0  0  0  0  0
   73.3312   35.5142   55.9451 C   0  0  0  0  0  0  0  0  0  0  0  0
   72.8305   35.5638   54.6531 C   0  0  0  0  0  0  0  0  0  0  0  0
   73.8372   35.3229   53.7937 N   0  0  0  0  0  0  0  0  0  0  0  0
   72.5912   35.7159   57.1836 C   0  0  0  0  0  0  0  0  0  0  0  0
   72.3410   34.6449   58.0131 C   0  0  0  0  0  0  0  0  0  0  0  0
   71.6404   34.7973   59.1999 C   0  0  0  0  0  0  0  0  0  0  0  0
   71.1795   36.0431   59.5662 C   0  0  0  0  0  0  0  0  0  0  0  0
   71.4177   37.1287   58.7539 C   0  0  0  0  0  0  0  0  0  0  0  0
   72.1247   36.9550   57.5625 C   0  0  0  0  0  0  0  0  0  0  0  0
  2  3  1  0
  3  4  1  0
  3 12  2  0
  4  5  2  0
  5  6  1  0
  5  7  1  0
  7  8  1  0
  7 11  1  0
  8  9  2  0
  9  1  1  0
  9 10  1  0
  1 13  1  0
 13 14  1  0
 14 15  2  0
 14 18  1  0
 15 16  1  0
 16 19  1  0
 16 17  2  0
 19 20  2  0
 19 24  1  0
 20 21  1  0
 21 22  2  0
 22 23  1  0
 23 24  2  0
 17 18  1  0
 10 11  2  0
 11 12  1  0
M  CHG  1  15   1
M  END
>  <minimizedAffinity>  (680) 
-8.50414

$$$$
data/200k_reference_output/data/smiles/57518.pdb
     RDKit          3D

 27 29  0  0  0  0  0  0  0  0999 V2000
   69.0703   47.5946   56.8754 C   0  0  0  0  0  0  0  0  0  0  0  0
   67.8857   47.7173   57.3695 O   0  0  0  0  0  0  0  0  0  0  0  0
   69.2744   48.1611   55.5780 C   0  0  0  0  0  0  0  0  0  0  0  0
   70.3320   49.1578   55.3851 C   0  0  0  0  0  0  0  0  0  0  0  0
   70.6508   49.2687   54.0956 N   0  0  0  0  0  0  0  0  0  0  0  0
   69.8664   48.3889   53.3671 C   0  0  0  0  0  0  0  0  0  0  0  0
   69.9051   48.1536   51.9979 C   0  0  0  0  0  0  0  0  0  0  0  0
   69.0129   47.1432   51.5033 C   0  0  0  0  0  0  0  0  0  0  0  0
   68.1965   46.5141   52.4038 C   0  0  0  0  0  0  0  0  0  0  0  0
   68.2172   46.8185   53.7233 C   0  0  0  0  0  0  0  0  0  0  0  0
   69.0762   47.7797   54.2901 C   0  0  0  0  0  0  0  0  0  0  0  0
   67.2384   45.5451   51.9245 N   0  0  0  0  0  0  0  0  0  0  0  0
   66.7735   45.7489   50.7298 O   0  0  0  0  0  0  0  0  0  0  0  0
   66.8959   44.4962   52.6696 O   0  0  0  0  0  0  0  0  0  0  0  0
   69.9769   45.5066   58.0238 N   0  0  0  0  0  0  0  0  0  0  0  0
   70.0177   46.9453   57.7359 C   0  0  0  0  0  0  0  0  0  0  0  0
   70.9236   47.5474   58.3442 O   0  0  0  0  0  0  0  0  0  0  0  0
   70.7404   44.7699   58.9418 C   0  0  0  0  0  0  0  0  0  0  0  0
   71.2246   40.4844   58.2568 C   0  0  0  0  0  0  0  0  0  0  0  0
   69.9204   41.1209   58.4293 C   0  0  0  0  0  0  0  0  0  0  0  0
   69.8553   42.4307   58.5380 C   0  0  0  0  0  0  0  0  0  0  0  0
   70.9328   43.3199   58.5003 C   0  0  0  0  0  0  0  0  0  0  0  0
   72.1290   42.7379   58.3243 C   0  0  0  0  0  0  0  0  0  0  0  0
   72.2660   41.3786   58.2039 C   0  0  0  0  0  0  0  0  0  0  0  0
   71.6384   36.3461   58.7565 C   0  0  0  0  0  0  0  0  0  0  0  0
   71.4800   37.8490   58.5742 C   0  0  0  0  0  0  0  0  0  0  0  0
   71.3528   39.1807   58.4251 C   0  0  0  0  0  0  0  0  0  0  0  0
 25 26  1  0
 26 27  3  0
 27 19  1  0
 19 20  2  0
 19 24  1  0
 20 21  1  0
 21 22  2  0
 22 18  1  0
 22 23  1  0
 18 15  1  0
 15 16  1  0
 16 17  2  0
 16  1  1  0
  1  2  2  0
  1  3  1  0
  3  4  2  0
  3 11  1  0
  4  5  1  0
  5  6  1  0
  6  7  1  0
  6 11  2  0
  7  8  2  0
  8  9  1  0
  9 12  1  0
  9 10  2  0
 12 13  2  0
 12 14  1  0
 10 11  1  0
 23 24  2  0
M  CHG  2  12   1  14  -1
M  END
>  <minimizedAffinity>  (681) 
-8.87308

$$$$
data/200k_reference_output/data/smiles/57603.pdb
     RDKit          3D

 21 22  0  0  0  0  0  0  0  0999 V2000
   68.2617   45.4063   55.2144 C   0  0  0  0  0  0  0  0  0  0  0  0
   67.9980   44.1372   55.4135 N   0  0  0  0  0  0  0  0  0  0  0  0
   69.2363   47.6272   52.3059 C   0  0  0  0  0  0  0  0  0  0  0  0
   68.4588   47.0579   51.3233 C   0  0  0  0  0  0  0  0  0  0  0  0
   67.6254   45.9797   51.5621 C   0  0  0  0  0  0  0  0  0  0  0  0
   67.5862   45.4714   52.8354 C   0  0  0  0  0  0  0  0  0  0  0  0
   68.3375   45.9889   53.8719 C   0  0  0  0  0  0  0  0  0  0  0  0
   69.1472   47.0601   53.5762 C   0  0  0  0  0  0  0  0  0  0  0  0
   71.0983   48.9164   52.7997 O   0  0  0  0  0  0  0  0  0  0  0  0
   70.1100   48.7614   52.0435 C   0  0  0  0  0  0  0  0  0  0  0  0
   69.9052   49.6619   51.0146 O   0  0  0  0  0  0  0  0  0  0  0  0
   67.9096   43.5319   56.5568 O   0  0  0  0  0  0  0  0  0  0  0  0
   68.4004   42.4275   57.1142 C   0  0  0  0  0  0  0  0  0  0  0  0
   67.7827   41.2153   56.7293 C   0  0  0  0  0  0  0  0  0  0  0  0
   68.1726   39.9972   57.2133 C   0  0  0  0  0  0  0  0  0  0  0  0
   69.2131   39.9419   58.1153 C   0  0  0  0  0  0  0  0  0  0  0  0
   69.8168   41.1141   58.4920 C   0  0  0  0  0  0  0  0  0  0  0  0
   69.4319   42.3717   58.0080 C   0  0  0  0  0  0  0  0  0  0  0  0
   70.1641   43.5577   58.4905 C   0  0  0  0  0  0  0  0  0  0  0  0
   69.7219   44.5026   59.1279 O   0  0  0  0  0  0  0  0  0  0  0  0
   71.5369   43.6238   58.1909 O   0  0  0  0  0  0  0  0  0  0  0  0
  9 10  2  0
 10 11  1  0
 10  3  1  0
  3  4  2  0
  3  8  1  0
  4  5  1  0
  5  6  2  0
  6  7  1  0
  7  1  1  0
  7  8  2  0
  1  2  2  0
  2 12  1  0
 12 13  1  0
 13 14  2  0
 13 18  1  0
 14 15  1  0
 15 16  2  0
 16 17  1  0
 17 18  2  0
 18 19  1  0
 19 20  2  0
 19 21  1  0
M  END
>  <minimizedAffinity>  (682) 
-8.79701

$$$$
data/200k_reference_output/data/smiles/57637.pdb
     RDKit          3D

 21 23  0  0  0  0  0  0  0  0999 V2000
   71.3315   49.0619   53.1646 O   0  0  0  0  0  0  0  0  0  0  0  0
   69.9598   49.1654   52.4731 S   0  0  0  0  0  0  0  0  0  0  0  0
   70.3259   49.0946   50.9892 O   0  0  0  0  0  0  0  0  0  0  0  0
   69.1010   47.7433   52.9459 C   0  0  0  0  0  0  0  0  0  0  0  0
   68.5033   46.8715   52.0681 C   0  0  0  0  0  0  0  0  0  0  0  0
   67.8402   45.7349   52.5520 C   0  0  0  0  0  0  0  0  0  0  0  0
   67.7811   45.4812   53.8974 C   0  0  0  0  0  0  0  0  0  0  0  0
   68.4051   46.3992   54.7459 C   0  0  0  0  0  0  0  0  0  0  0  0
   68.3975   46.2196   56.1843 N   0  0  0  0  0  0  0  0  0  0  0  0
   69.2055   47.4593   56.8528 S   0  0  0  0  0  0  0  0  0  0  0  0
   69.6189   48.3158   55.2803 N   0  0  0  0  0  0  0  0  0  0  0  0
   69.0244   47.4590   54.3230 C   0  0  0  0  0  0  0  0  0  0  0  0
   69.2772   50.6507   52.8701 N   0  0  0  0  0  0  0  0  0  0  0  0
   69.2021   51.2102   54.1653 C   0  0  0  0  0  0  0  0  0  0  0  0
   68.1342   51.0957   55.0244 C   0  0  0  0  0  0  0  0  0  0  0  0
   68.1025   51.6954   56.2691 C   0  0  0  0  0  0  0  0  0  0  0  0
   67.0070   51.5420   57.0772 F   0  0  0  0  0  0  0  0  0  0  0  0
   69.1574   52.4554   56.7255 C   0  0  0  0  0  0  0  0  0  0  0  0
   70.2392   52.5880   55.8883 C   0  0  0  0  0  0  0  0  0  0  0  0
   70.2679   51.9913   54.6539 C   0  0  0  0  0  0  0  0  0  0  0  0
   71.3369   52.1144   53.8100 F   0  0  0  0  0  0  0  0  0  0  0  0
  1  2  2  0
  2  3  2  0
  2 13  1  0
  2  4  1  0
 13 14  1  0
 14 15  2  0
 14 20  1  0
 15 16  1  0
 16 17  1  0
 16 18  2  0
 18 19  1  0
 19 20  2  0
 20 21  1  0
  4  5  2  0
  4 12  1  0
  5  6  1  0
  6  7  2  0
  7  8  1  0
  8  9  2  0
  8 12  1  0
  9 10  1  0
 10 11  1  0
 11 12  2  0
M  END
>  <minimizedAffinity>  (683) 
-8.70951

$$$$
data/200k_reference_output/data/smiles/57638.pdb
     RDKit          3D

 28 31  0  0  0  0  0  0  0  0999 V2000
   71.2312   47.0513   58.6432 C   0  0  0  0  0  0  0  0  0  0  0  0
   70.8764   45.7895   58.1668 C   0  0  0  0  0  0  0  0  0  0  0  0
   69.9857   45.6138   57.1304 C   0  0  0  0  0  0  0  0  0  0  0  0
   69.4005   46.6979   56.5126 C   0  0  0  0  0  0  0  0  0  0  0  0
   69.7428   47.9486   56.9747 C   0  0  0  0  0  0  0  0  0  0  0  0
   70.6479   48.1292   58.0281 C   0  0  0  0  0  0  0  0  0  0  0  0
   68.2613   46.4938   55.1842 S   0  0  0  0  0  0  0  0  0  0  0  0
   67.9146   45.0486   54.9923 O   0  0  0  0  0  0  0  0  0  0  0  0
   66.9989   47.2201   55.5621 O   0  0  0  0  0  0  0  0  0  0  0  0
   68.9348   47.1975   53.7356 C   0  0  0  0  0  0  0  0  0  0  0  0
   69.5259   48.4464   53.7085 C   0  0  0  0  0  0  0  0  0  0  0  0
   70.0527   48.9812   52.5512 C   0  0  0  0  0  0  0  0  0  0  0  0
   69.9813   48.2387   51.4016 C   0  0  0  0  0  0  0  0  0  0  0  0
   69.4141   47.0268   51.3997 N   0  0  0  0  0  0  0  0  0  0  0  0
   68.9101   46.5279   52.5305 C   0  0  0  0  0  0  0  0  0  0  0  0
   72.1841   47.2165   59.7678 C   0  0  0  0  0  0  0  0  0  0  0  0
   73.7769   44.9212   60.4067 O   0  0  0  0  0  0  0  0  0  0  0  0
   72.7573   45.1255   61.1050 C   0  0  0  0  0  0  0  0  0  0  0  0
   71.9593   46.2481   60.8089 N   0  0  0  0  0  0  0  0  0  0  0  0
   72.4428   44.1905   62.1909 C   0  0  0  0  0  0  0  0  0  0  0  0
   71.3393   43.3678   62.2726 C   0  0  0  0  0  0  0  0  0  0  0  0
   71.3822   42.6284   63.4378 C   0  0  0  0  0  0  0  0  0  0  0  0
   70.5776   41.6758   64.0309 C   0  0  0  0  0  0  0  0  0  0  0  0
   70.9085   41.1252   65.2131 N   0  0  0  0  0  0  0  0  0  0  0  0
   72.0204   41.4676   65.8680 C   0  0  0  0  0  0  0  0  0  0  0  0
   72.8325   42.4180   65.2854 C   0  0  0  0  0  0  0  0  0  0  0  0
   72.5495   43.0206   64.0749 C   0  0  0  0  0  0  0  0  0  0  0  0
   73.1540   43.9487   63.3060 N   0  0  0  0  0  0  0  0  0  0  0  0
 17 18  2  0
 18 19  1  0
 18 20  1  0
 19 16  1  0
 16  1  1  0
  1  2  2  0
  1  6  1  0
  2  3  1  0
  3  4  2  0
  4  7  1  0
  4  5  1  0
  7  8  2  0
  7  9  2  0
  7 10  1  0
 10 11  2  0
 10 15  1  0
 11 12  1  0
 12 13  2  0
 13 14  1  0
 14 15  2  0
  5  6  2  0
 20 21  2  0
 20 28  1  0
 21 22  1  0
 22 23  2  0
 22 27  1  0
 23 24  1  0
 24 25  2  0
 25 26  1  0
 26 27  2  0
 27 28  1  0
M  END
>  <minimizedAffinity>  (684) 
-8.77167

$$$$
data/200k_reference_output/data/smiles/57643.pdb
     RDKit          3D

 24 26  0  0  0  0  0  0  0  0999 V2000
   70.7533   51.4382   53.4252 O   0  0  0  0  0  0  0  0  0  0  0  0
   70.9668   50.2661   53.8456 C   0  0  0  0  0  0  0  0  0  0  0  0
   71.9554   50.1054   54.8159 N   0  0  0  0  0  0  0  0  0  0  0  0
   70.1877   49.1569   53.3109 C   0  0  0  0  0  0  0  0  0  0  0  0
   69.9983   48.9906   51.9479 C   0  0  0  0  0  0  0  0  0  0  0  0
   69.2800   47.9657   51.4617 N   0  0  0  0  0  0  0  0  0  0  0  0
   68.7095   47.0532   52.2680 C   0  0  0  0  0  0  0  0  0  0  0  0
   67.9595   45.9837   51.7855 C   0  0  0  0  0  0  0  0  0  0  0  0
   67.3784   45.0526   52.6235 C   0  0  0  0  0  0  0  0  0  0  0  0
   67.5231   45.1521   53.9957 C   0  0  0  0  0  0  0  0  0  0  0  0
   68.2648   46.2110   54.4648 C   0  0  0  0  0  0  0  0  0  0  0  0
   68.8482   47.1444   53.6365 C   0  0  0  0  0  0  0  0  0  0  0  0
   69.6005   48.2182   54.1262 C   0  0  0  0  0  0  0  0  0  0  0  0
   72.7494   51.1811   55.3720 C   0  0  2  0  0  0  0  0  0  0  0  0
   74.1754   51.0511   55.1126 C   0  0  0  0  0  0  0  0  0  0  0  0
   74.9512   51.9694   55.4761 O   0  0  0  0  0  0  0  0  0  0  0  0
   74.7441   49.9603   54.4766 O   0  0  0  0  0  0  0  0  0  0  0  0
   72.3978   51.2814   56.8401 C   0  0  0  0  0  0  0  0  0  0  0  0
   70.9266   51.3540   57.0324 C   0  0  0  0  0  0  0  0  0  0  0  0
   70.2607   52.5072   56.6536 C   0  0  0  0  0  0  0  0  0  0  0  0
   68.8946   52.6255   56.8103 C   0  0  0  0  0  0  0  0  0  0  0  0
   68.1700   51.5696   57.3590 C   0  0  0  0  0  0  0  0  0  0  0  0
   68.8327   50.4236   57.7366 C   0  0  0  0  0  0  0  0  0  0  0  0
   70.1960   50.3124   57.5765 C   0  0  0  0  0  0  0  0  0  0  0  0
  1  2  2  0
  2  3  1  0
  2  4  1  0
  3 14  1  0
 14 18  1  1
 14 15  1  0
 18 19  1  0
 19 20  2  0
 19 24  1  0
 20 21  1  0
 21 22  2  0
 22 23  1  0
 23 24  2  0
 15 16  2  0
 15 17  1  0
  4  5  2  0
  4 13  1  0
  5  6  1  0
  6  7  2  0
  7  8  1  0
  7 12  1  0
  8  9  2  0
  9 10  1  0
 10 11  2  0
 11 12  1  0
 12 13  2  0
M  END
>  <minimizedAffinity>  (685) 
-8.57333

$$$$
data/200k_reference_output/data/smiles/57675.pdb
     RDKit          3D

 24 27  0  0  0  0  0  0  0  0999 V2000
   68.2907   45.3275   55.4207 C   0  0  0  0  0  0  0  0  0  0  0  0
   68.1750   45.3317   54.0189 C   0  0  0  0  0  0  0  0  0  0  0  0
   68.5486   46.3927   53.2332 C   0  0  0  0  0  0  0  0  0  0  0  0
   69.0622   47.5073   53.8491 C   0  0  0  0  0  0  0  0  0  0  0  0
   69.1999   47.5691   55.2229 C   0  0  0  0  0  0  0  0  0  0  0  0
   68.8061   46.4608   55.9930 C   0  0  0  0  0  0  0  0  0  0  0  0
   69.6739   48.6255   56.1194 C   0  0  0  0  0  0  0  0  0  0  0  0
   70.1730   49.8564   55.4681 C   0  0  0  0  0  0  0  0  0  0  0  0
   69.2312   50.4743   54.4511 C   0  0  0  0  0  0  0  0  0  0  0  0
   69.4757   49.8069   53.1203 C   0  0  0  0  0  0  0  0  0  0  0  0
   69.8329   50.4051   52.0012 N   0  0  0  0  0  0  0  0  0  0  0  0
   70.0015   49.4476   51.0606 N   0  0  0  0  0  0  0  0  0  0  0  0
   69.7473   48.2423   51.5932 C   0  0  0  0  0  0  0  0  0  0  0  0
   69.8181   47.1591   50.9910 O   0  0  0  0  0  0  0  0  0  0  0  0
   69.4218   48.4773   52.8647 N   0  0  0  0  0  0  0  0  0  0  0  0
   67.8934   44.2220   56.1049 O   0  0  0  0  0  0  0  0  0  0  0  0
   67.6343   42.9208   55.8164 C   0  0  0  0  0  0  0  0  0  0  0  0
   70.1147   38.9163   59.1674 C   0  0  0  0  0  0  0  0  0  0  0  0
   69.5022   39.9605   58.3046 C   0  0  0  0  0  0  0  0  0  0  0  0
   70.0369   41.2206   58.1675 C   0  0  0  0  0  0  0  0  0  0  0  0
   69.4400   42.1638   57.3566 C   0  0  0  0  0  0  0  0  0  0  0  0
   68.2700   41.8755   56.6442 C   0  0  0  0  0  0  0  0  0  0  0  0
   67.7685   40.6174   56.8038 C   0  0  0  0  0  0  0  0  0  0  0  0
   68.3609   39.6643   57.6153 C   0  0  0  0  0  0  0  0  0  0  0  0
 18 19  1  0
 19 20  2  0
 19 24  1  0
 20 21  1  0
 21 22  2  0
 22 17  1  0
 22 23  1  0
 17 16  1  0
 16  1  1  0
  1  2  2  0
  1  6  1  0
  2  3  1  0
  3  4  2  0
  4  5  1  0
  4 15  1  0
  5  6  2  0
  5  7  1  0
  7  8  1  0
  8  9  1  0
  9 10  1  0
 10 11  2  0
 10 15  1  0
 11 12  1  0
 12 13  1  0
 13 14  2  0
 13 15  1  0
 23 24  2  0
M  END
>  <minimizedAffinity>  (686) 
-9.63868

$$$$
data/200k_reference_output/data/smiles/57712.pdb
     RDKit          3D

 25 29  0  0  0  0  0  0  0  0999 V2000
   69.7169   43.3505   57.3168 C   0  0  0  0  0  0  0  0  0  0  0  0
   70.2800   44.5686   57.6277 C   0  0  0  0  0  0  0  0  0  0  0  0
   69.5861   45.5746   57.0429 N   0  0  0  0  0  0  0  0  0  0  0  0
   68.6070   44.9683   56.3798 N   0  0  0  0  0  0  0  0  0  0  0  0
   68.6670   43.6542   56.5284 N   0  0  0  0  0  0  0  0  0  0  0  0
   72.1188   38.0761   59.1102 C   0  0  0  0  0  0  0  0  0  0  0  0
   70.7859   37.6957   58.9363 C   0  0  0  0  0  0  0  0  0  0  0  0
   69.8533   38.5762   58.5293 N   0  0  0  0  0  0  0  0  0  0  0  0
   70.1284   39.8777   58.2620 C   0  0  0  0  0  0  0  0  0  0  0  0
   69.3696   40.9319   57.8473 N   0  0  0  0  0  0  0  0  0  0  0  0
   70.1479   42.0209   57.7345 C   0  0  0  0  0  0  0  0  0  0  0  0
   71.4205   41.6344   58.0874 C   0  0  0  0  0  0  0  0  0  0  0  0
   71.4330   40.2842   58.4251 C   0  0  0  0  0  0  0  0  0  0  0  0
   72.3960   39.3929   58.8402 C   0  0  0  0  0  0  0  0  0  0  0  0
   69.8120   46.9929   57.0882 C   0  0  0  0  0  0  0  0  0  0  0  0
   68.8659   47.8193   56.3105 C   0  0  0  0  0  0  0  0  0  0  0  0
   69.1928   48.0582   54.9074 C   0  0  0  0  0  0  0  0  0  0  0  0
   70.0400   49.0395   54.3697 C   0  0  0  0  0  0  0  0  0  0  0  0
   70.0520   48.9298   53.0449 N   0  0  0  0  0  0  0  0  0  0  0  0
   69.2485   47.9150   52.6597 C   0  0  0  0  0  0  0  0  0  0  0  0
   68.9371   47.4071   51.4412 N   0  0  0  0  0  0  0  0  0  0  0  0
   68.1074   46.3644   51.2762 C   0  0  0  0  0  0  0  0  0  0  0  0
   67.5769   45.8228   52.4292 C   0  0  0  0  0  0  0  0  0  0  0  0
   67.8599   46.3005   53.6882 C   0  0  0  0  0  0  0  0  0  0  0  0
   68.7134   47.3718   53.8251 C   0  0  0  0  0  0  0  0  0  0  0  0
  6  7  2  0
  6 14  1  0
  7  8  1  0
  8  9  2  0
  9 10  1  0
  9 13  1  0
 10 11  1  0
 11  1  1  0
 11 12  2  0
  1  2  2  0
  1  5  1  0
  2  3  1  0
  3 15  1  0
  3  4  1  0
 15 16  1  0
 16 17  1  0
 17 18  2  0
 17 25  1  0
 18 19  1  0
 19 20  1  0
 20 21  1  0
 20 25  2  0
 21 22  2  0
 22 23  1  0
 23 24  2  0
 24 25  1  0
  4  5  2  0
 12 13  1  0
 13 14  2  0
M  END
>  <minimizedAffinity>  (687) 
-8.97218

$$$$
data/200k_reference_output/data/smiles/57717.pdb
     RDKit          3D

 23 24  0  0  0  0  0  0  0  0999 V2000
   70.0360   50.9082   52.8776 O   0  0  0  0  0  0  0  0  0  0  0  0
   70.4978   49.8016   53.3082 C   0  0  0  0  0  0  0  0  0  0  0  0
   71.7775   49.8655   53.9242 N   0  0  0  0  0  0  0  0  0  0  0  0
   69.7395   48.5683   53.1640 C   0  0  0  0  0  0  0  0  0  0  0  0
   69.4213   48.0264   51.9451 C   0  0  0  0  0  0  0  0  0  0  0  0
   68.6870   46.8449   51.8381 C   0  0  0  0  0  0  0  0  0  0  0  0
   68.2757   46.2133   52.9809 C   0  0  0  0  0  0  0  0  0  0  0  0
   68.5721   46.7233   54.2498 C   0  0  0  0  0  0  0  0  0  0  0  0
   69.2923   47.8805   54.3024 C   0  0  0  0  0  0  0  0  0  0  0  0
   68.1333   46.0525   55.4236 N   0  0  0  0  0  0  0  0  0  0  0  0
   67.9469   46.7253   56.4537 O   0  0  0  0  0  0  0  0  0  0  0  0
   67.9276   44.6963   55.3916 O   0  0  0  0  0  0  0  0  0  0  0  0
   72.4379   51.0567   54.0303 N   0  0  0  0  0  0  0  0  0  0  0  0
   72.6412   51.8409   54.9796 C   0  0  0  0  0  0  0  0  0  0  0  0
   73.6038   53.3561   54.6422 S   0  0  0  0  0  0  0  0  0  0  0  0
   72.1600   51.5996   56.2818 N   0  0  0  0  0  0  0  0  0  0  0  0
   70.7850   51.5274   56.5733 C   0  0  0  0  0  0  0  0  0  0  0  0
   69.9270   52.5579   56.2850 C   0  0  0  0  0  0  0  0  0  0  0  0
   68.5733   52.4479   56.5768 C   0  0  0  0  0  0  0  0  0  0  0  0
   68.0644   51.2938   57.1662 C   0  0  0  0  0  0  0  0  0  0  0  0
   66.7555   51.1689   57.4542 F   0  0  0  0  0  0  0  0  0  0  0  0
   68.9297   50.2506   57.4593 C   0  0  0  0  0  0  0  0  0  0  0  0
   70.2650   50.3943   57.1567 C   0  0  0  0  0  0  0  0  0  0  0  0
  1  2  2  0
  2  3  1  0
  2  4  1  0
  3 13  1  0
 13 14  2  0
 14 15  1  0
 14 16  1  0
 16 17  1  0
 17 18  2  0
 17 23  1  0
 18 19  1  0
 19 20  2  0
 20 21  1  0
 20 22  1  0
 22 23  2  0
  4  5  2  0
  4  9  1  0
  5  6  1  0
  6  7  2  0
  7  8  1  0
  8 10  1  0
  8  9  2  0
 10 11  2  0
 10 12  1  0
M  CHG  3  10   1  12  -1  13   1
M  END
>  <minimizedAffinity>  (688) 
-8.51038

$$$$
data/200k_reference_output/data/smiles/57723.pdb
     RDKit          3D

 23 25  0  0  0  0  0  0  0  0999 V2000
   69.1887   50.6527   52.9926 N   0  0  0  0  0  0  0  0  0  0  0  0
   69.4118   51.4150   54.1293 C   0  0  0  0  0  0  0  0  0  0  0  0
   68.3930   51.5416   55.0585 C   0  0  0  0  0  0  0  0  0  0  0  0
   68.5630   52.2430   56.2268 C   0  0  0  0  0  0  0  0  0  0  0  0
   69.7622   52.8274   56.4784 C   0  0  0  0  0  0  0  0  0  0  0  0
   70.7904   52.7241   55.5856 C   0  0  0  0  0  0  0  0  0  0  0  0
   70.6233   52.0321   54.4311 C   0  0  0  0  0  0  0  0  0  0  0  0
   72.0817   53.3727   55.8898 C   0  0  0  0  0  0  0  0  0  0  0  0
   73.0594   52.9111   56.6631 N   0  0  0  0  0  0  0  0  0  0  0  0
   74.0387   53.8123   56.6601 N   0  0  0  0  0  0  0  0  0  0  0  0
   73.6698   54.8403   55.8825 C   0  0  0  0  0  0  0  0  0  0  0  0
   72.4773   54.5306   55.4367 O   0  0  0  0  0  0  0  0  0  0  0  0
   71.4596   49.2670   53.0762 O   0  0  0  0  0  0  0  0  0  0  0  0
   70.0185   49.2340   52.5483 S   0  0  0  0  0  0  0  0  0  0  0  0
   70.1256   49.1132   51.0331 O   0  0  0  0  0  0  0  0  0  0  0  0
   69.2489   47.8153   53.1916 C   0  0  0  0  0  0  0  0  0  0  0  0
   68.7515   46.8729   52.2909 C   0  0  0  0  0  0  0  0  0  0  0  0
   68.1079   45.7234   52.6971 C   0  0  0  0  0  0  0  0  0  0  0  0
   67.9511   45.4996   54.0591 C   0  0  0  0  0  0  0  0  0  0  0  0
   67.3184   44.3693   54.4449 F   0  0  0  0  0  0  0  0  0  0  0  0
   68.4269   46.4023   54.9789 C   0  0  0  0  0  0  0  0  0  0  0  0
   69.0729   47.5540   54.5212 C   0  0  0  0  0  0  0  0  0  0  0  0
   69.5421   48.4060   55.4525 F   0  0  0  0  0  0  0  0  0  0  0  0
 13 14  2  0
 14 15  2  0
 14  1  1  0
 14 16  1  0
  1  2  1  0
  2  3  2  0
  2  7  1  0
  3  4  1  0
  4  5  2  0
  5  6  1  0
  6  8  1  0
  6  7  2  0
  8  9  2  0
  8 12  1  0
  9 10  1  0
 10 11  2  0
 11 12  1  0
 16 17  2  0
 16 22  1  0
 17 18  1  0
 18 19  2  0
 19 20  1  0
 19 21  1  0
 21 22  2  0
 22 23  1  0
M  END
>  <minimizedAffinity>  (689) 
-8.60511

$$$$
data/200k_reference_output/data/smiles/57729.pdb
     RDKit          3D

 31 34  0  0  0  0  0  0  0  0999 V2000
   77.4565   35.2829   51.6805 C   0  0  0  0  0  0  0  0  0  0  0  0
   76.3044   35.2352   52.3712 C   0  0  0  0  0  0  0  0  0  0  0  0
   75.1546   35.0615   51.6958 N   0  0  0  0  0  0  0  0  0  0  0  0
   74.0199   35.0170   52.4169 C   0  0  0  0  0  0  0  0  0  0  0  0
   72.9498   34.8561   51.8022 O   0  0  0  0  0  0  0  0  0  0  0  0
   74.0159   35.1438   53.7983 C   0  0  0  0  0  0  0  0  0  0  0  0
   72.8956   35.1009   54.5054 C   0  0  0  0  0  0  0  0  0  0  0  0
   75.1582   35.3161   54.4632 N   0  0  0  0  0  0  0  0  0  0  0  0
   76.3060   35.3622   53.7482 C   0  0  0  0  0  0  0  0  0  0  0  0
   77.4162   35.5248   54.3436 O   0  0  0  0  0  0  0  0  0  0  0  0
   76.1996   33.5547   47.1659 C   0  0  0  0  0  0  0  0  0  0  0  0
   76.8093   34.3730   48.2501 C   0  0  0  0  0  0  0  0  0  0  0  0
   77.6362   35.4554   48.0408 C   0  0  0  0  0  0  0  0  0  0  0  0
   77.9890   35.9395   49.2795 C   0  0  0  0  0  0  0  0  0  0  0  0
   77.3656   35.1379   50.2089 C   0  0  0  0  0  0  0  0  0  0  0  0
   76.6888   34.2383   49.5467 O   0  0  0  0  0  0  0  0  0  0  0  0
   72.8971   35.2365   55.9722 C   0  0  0  0  0  0  0  0  0  0  0  0
   73.3155   34.2037   56.7849 C   0  0  0  0  0  0  0  0  0  0  0  0
   73.3095   34.3513   58.1645 C   0  0  0  0  0  0  0  0  0  0  0  0
   72.8850   35.5251   58.7418 C   0  0  0  0  0  0  0  0  0  0  0  0
   72.4531   36.5970   57.9526 C   0  0  0  0  0  0  0  0  0  0  0  0
   72.4811   36.3941   56.5905 C   0  0  0  0  0  0  0  0  0  0  0  0
   72.0161   37.8440   58.5680 C   0  0  0  0  0  0  0  0  0  0  0  0
   72.8746   38.7004   58.8580 O   0  0  0  0  0  0  0  0  0  0  0  0
   70.6076   38.0865   58.8384 C   0  0  0  0  0  0  0  0  0  0  0  0
   69.9486   37.3996   59.8661 C   0  0  0  0  0  0  0  0  0  0  0  0
   68.6296   37.5921   60.1403 C   0  0  0  0  0  0  0  0  0  0  0  0
   67.8761   38.4723   59.4201 C   0  0  0  0  0  0  0  0  0  0  0  0
   66.5592   38.6252   59.7398 F   0  0  0  0  0  0  0  0  0  0  0  0
   68.4803   39.1716   58.3982 C   0  0  0  0  0  0  0  0  0  0  0  0
   69.8269   38.9700   58.1252 C   0  0  0  0  0  0  0  0  0  0  0  0
 11 12  1  0
 12 13  2  0
 12 16  1  0
 13 14  1  0
 14 15  2  0
 15  1  1  0
 15 16  1  0
  1  2  2  0
  2  3  1  0
  2  9  1  0
  3  4  1  0
  4  5  2  0
  4  6  1  0
  6  7  2  0
  6  8  1  0
  7 17  1  0
 17 18  2  0
 17 22  1  0
 18 19  1  0
 19 20  2  0
 20 21  1  0
 21 23  1  0
 21 22  2  0
 23 24  2  0
 23 25  1  0
 25 26  2  0
 25 31  1  0
 26 27  1  0
 27 28  2  0
 28 29  1  0
 28 30  1  0
 30 31  2  0
  8  9  1  0
  9 10  2  0
M  END
>  <minimizedAffinity>  (690) 
-9.55809

$$$$
data/200k_reference_output/data/smiles/57736.pdb
     RDKit          3D

 29 32  0  0  0  0  0  0  0  0999 V2000
   70.7730   37.4033   59.0931 C   0  0  0  0  0  0  0  0  0  0  0  0
   70.3061   36.7327   60.1466 N   0  0  0  0  0  0  0  0  0  0  0  0
   70.7296   35.4806   60.1748 N   0  0  0  0  0  0  0  0  0  0  0  0
   71.5217   35.2882   59.0878 C   0  0  0  0  0  0  0  0  0  0  0  0
   72.2300   34.2122   58.5982 C   0  0  0  0  0  0  0  0  0  0  0  0
   72.9675   34.3237   57.4333 C   0  0  0  0  0  0  0  0  0  0  0  0
   73.0285   35.5217   56.7067 C   0  0  0  0  0  0  0  0  0  0  0  0
   72.3168   36.5473   57.2291 C   0  0  0  0  0  0  0  0  0  0  0  0
   71.5589   36.4805   58.4009 C   0  0  0  0  0  0  0  0  0  0  0  0
   69.3898   40.6240   57.6883 C   0  0  0  0  0  0  0  0  0  0  0  0
   70.4317   41.4936   57.9218 C   0  0  0  0  0  0  0  0  0  0  0  0
   71.5660   40.9825   58.5449 C   0  0  0  0  0  0  0  0  0  0  0  0
   71.6321   39.6592   58.9095 C   0  0  0  0  0  0  0  0  0  0  0  0
   70.5873   38.7730   58.6798 C   0  0  0  0  0  0  0  0  0  0  0  0
   69.4724   39.2835   58.0645 C   0  0  0  0  0  0  0  0  0  0  0  0
   68.2203   42.8558   56.3301 N   0  0  0  0  0  0  0  0  0  0  0  0
   67.9560   41.2242   56.8914 S   0  0  0  0  0  0  0  0  0  0  0  0
   66.7707   41.2700   57.8145 O   0  0  0  0  0  0  0  0  0  0  0  0
   67.6103   40.3826   55.7134 O   0  0  0  0  0  0  0  0  0  0  0  0
   73.8191   35.5158   55.5413 N   0  0  0  0  0  0  0  0  0  0  0  0
   73.3452   35.4761   54.2090 C   0  0  0  0  0  0  0  0  0  0  0  0
   72.1131   35.4330   54.0121 O   0  0  0  0  0  0  0  0  0  0  0  0
   74.2866   35.4820   53.0385 C   0  0  0  0  0  0  0  0  0  0  0  0
   75.6622   35.1497   53.4458 C   0  0  0  0  0  0  0  0  0  0  0  0
   76.6325   36.1451   53.4601 C   0  0  0  0  0  0  0  0  0  0  0  0
   77.9217   35.8379   53.8508 C   0  0  0  0  0  0  0  0  0  0  0  0
   78.1813   34.5114   54.2184 C   0  0  0  0  0  0  0  0  0  0  0  0
   77.2313   33.5315   54.2052 C   0  0  0  0  0  0  0  0  0  0  0  0
   75.9989   33.8807   53.8192 N   0  0  0  0  0  0  0  0  0  0  0  0
 16 17  1  0
 17 18  2  0
 17 19  2  0
 17 10  1  0
 10 11  2  0
 10 15  1  0
 11 12  1  0
 12 13  2  0
 13 14  1  0
 14  1  1  0
 14 15  2  0
  1  2  2  0
  1  9  1  0
  2  3  1  0
  3  4  1  0
  4  5  1  0
  4  9  2  0
  5  6  2  0
  6  7  1  0
  7 20  1  0
  7  8  2  0
 20 21  1  0
 21 22  2  0
 21 23  1  0
 23 24  1  0
 24 25  2  0
 24 29  1  0
 25 26  1  0
 26 27  2  0
 27 28  1  0
 28 29  2  0
  8  9  1  0
M  END
>  <minimizedAffinity>  (691) 
-8.52473

$$$$
data/200k_reference_output/data/smiles/57754.pdb
     RDKit          3D

 25 27  0  0  0  0  0  0  0  0999 V2000
   69.6289   47.9893   57.4928 C   0  0  0  0  0  0  0  0  0  0  0  0
   69.2228   46.8178   56.9588 C   0  0  0  0  0  0  0  0  0  0  0  0
   70.0887   45.7573   57.4110 C   0  0  0  0  0  0  0  0  0  0  0  0
   69.9838   44.5480   57.0993 O   0  0  0  0  0  0  0  0  0  0  0  0
   71.0707   46.3637   58.2725 N   0  0  0  0  0  0  0  0  0  0  0  0
   70.7944   47.7704   58.3338 C   0  0  0  0  0  0  0  0  0  0  0  0
   71.4515   48.6216   58.9959 O   0  0  0  0  0  0  0  0  0  0  0  0
   69.1081   51.4778   56.1727 C   0  0  0  0  0  0  0  0  0  0  0  0
   67.8621   51.7996   56.6982 C   0  0  0  0  0  0  0  0  0  0  0  0
   67.2028   50.8703   57.4812 C   0  0  0  0  0  0  0  0  0  0  0  0
   67.7480   49.6324   57.7547 C   0  0  0  0  0  0  0  0  0  0  0  0
   68.9753   49.2869   57.2507 C   0  0  0  0  0  0  0  0  0  0  0  0
   69.6305   50.2341   56.4617 C   0  0  0  0  0  0  0  0  0  0  0  0
   70.9906   52.9969   55.7265 C   0  0  0  0  0  0  0  0  0  0  0  0
   69.7664   52.4041   55.3898 O   0  0  0  0  0  0  0  0  0  0  0  0
   68.0875   46.7498   56.0889 N   0  0  0  0  0  0  0  0  0  0  0  0
   68.2661   46.7205   54.6766 C   0  0  0  0  0  0  0  0  0  0  0  0
   67.6846   45.7645   53.8771 C   0  0  0  0  0  0  0  0  0  0  0  0
   67.8691   45.7462   52.4993 C   0  0  0  0  0  0  0  0  0  0  0  0
   68.6584   46.7115   51.9063 C   0  0  0  0  0  0  0  0  0  0  0  0
   69.2576   47.6859   52.6879 C   0  0  0  0  0  0  0  0  0  0  0  0
   69.0468   47.6685   54.0570 C   0  0  0  0  0  0  0  0  0  0  0  0
   70.0893   48.6992   52.0488 C   0  0  0  0  0  0  0  0  0  0  0  0
   70.5871   48.4844   50.9151 O   0  0  0  0  0  0  0  0  0  0  0  0
   70.3463   49.8961   52.6583 O   0  0  0  0  0  0  0  0  0  0  0  0
 14 15  1  0
 15  8  1  0
  8  9  2  0
  8 13  1  0
  9 10  1  0
 10 11  2  0
 11 12  1  0
 12  1  1  0
 12 13  2  0
  1  2  2  0
  1  6  1  0
  2 16  1  0
  2  3  1  0
 16 17  1  0
 17 18  2  0
 17 22  1  0
 18 19  1  0
 19 20  2  0
 20 21  1  0
 21 23  1  0
 21 22  2  0
 23 24  2  0
 23 25  1  0
  3  4  2  0
  3  5  1  0
  5  6  1  0
  6  7  2  0
M  END
>  <minimizedAffinity>  (692) 
-8.55826

$$$$
data/200k_reference_output/data/smiles/57954.pdb
     RDKit          3D

 26 28  0  0  0  0  0  0  0  0999 V2000
   69.2593   47.7681   53.3642 C   0  0  0  0  0  0  0  0  0  0  0  0
   68.7610   46.7944   52.5253 C   0  0  0  0  0  0  0  0  0  0  0  0
   68.1236   45.6784   53.0242 C   0  0  0  0  0  0  0  0  0  0  0  0
   67.9445   45.4640   54.3737 C   0  0  0  0  0  0  0  0  0  0  0  0
   68.4406   46.4357   55.2183 C   0  0  0  0  0  0  0  0  0  0  0  0
   69.0778   47.5517   54.7146 C   0  0  0  0  0  0  0  0  0  0  0  0
   70.0697   49.1974   52.7492 S   0  0  0  0  0  0  0  0  0  0  0  0
   71.5694   49.0508   52.8543 O   0  0  0  0  0  0  0  0  0  0  0  0
   69.7662   49.3899   51.2792 O   0  0  0  0  0  0  0  0  0  0  0  0
   69.5834   50.6391   53.5542 N   0  0  0  0  0  0  0  0  0  0  0  0
   72.1269   52.1839   53.7266 O   0  0  0  0  0  0  0  0  0  0  0  0
   71.2487   52.0409   54.6453 C   0  0  0  0  0  0  0  0  0  0  0  0
   70.3879   50.8354   54.7196 C   0  0  1  0  0  0  0  0  0  0  0  0
   69.5010   51.0188   55.9580 C   0  0  0  0  0  0  0  0  0  0  0  0
   68.8422   52.3773   55.8268 C   0  0  0  0  0  0  0  0  0  0  0  0
   69.8369   53.4745   56.0909 C   0  0  0  0  0  0  0  0  0  0  0  0
   71.1524   53.1032   55.5808 N   0  0  0  0  0  0  0  0  0  0  0  0
   72.2708   53.7779   56.0085 O   0  0  0  0  0  0  0  0  0  0  0  0
   67.2967   44.3280   54.8517 O   0  0  0  0  0  0  0  0  0  0  0  0
   67.8724   43.4295   55.7387 C   0  0  0  0  0  0  0  0  0  0  0  0
   68.9752   43.6928   56.5020 C   0  0  0  0  0  0  0  0  0  0  0  0
   69.5184   42.7614   57.3787 C   0  0  0  0  0  0  0  0  0  0  0  0
   68.9242   41.5154   57.4870 C   0  0  0  0  0  0  0  0  0  0  0  0
   69.5627   40.2913   58.5785 Cl  0  0  0  0  0  0  0  0  0  0  0  0
   67.8124   41.2191   56.7316 C   0  0  0  0  0  0  0  0  0  0  0  0
   67.2947   42.1820   55.8621 C   0  0  0  0  0  0  0  0  0  0  0  0
 11 12  2  0
 12 13  1  0
 12 17  1  0
 13 10  1  6
 13 14  1  0
 10  7  1  0
  7  8  2  0
  7  9  2  0
  7  1  1  0
  1  2  2  0
  1  6  1  0
  2  3  1  0
  3  4  2  0
  4 19  1  0
  4  5  1  0
 19 20  1  0
 20 21  2  0
 20 26  1  0
 21 22  1  0
 22 23  2  0
 23 24  1  0
 23 25  1  0
 25 26  2  0
  5  6  2  0
 14 15  1  0
 15 16  1  0
 16 17  1  0
 17 18  1  0
M  END
>  <minimizedAffinity>  (693) 
-8.85348

$$$$
data/200k_reference_output/data/smiles/58057.pdb
     RDKit          3D

 23 25  0  0  0  0  0  0  0  0999 V2000
   68.0770   44.6605   55.2834 C   0  0  0  0  0  0  0  0  0  0  0  0
   67.1088   43.8628   54.7897 N   0  0  0  0  0  0  0  0  0  0  0  0
   67.0419   42.7496   55.5005 N   0  0  0  0  0  0  0  0  0  0  0  0
   67.9736   42.7977   56.4796 C   0  0  0  0  0  0  0  0  0  0  0  0
   68.5952   43.9829   56.3222 N   0  0  0  0  0  0  0  0  0  0  0  0
   69.5865   49.8588   53.2602 C   0  0  0  0  0  0  0  0  0  0  0  0
   69.1939   48.5111   53.7640 C   0  0  0  0  0  0  0  0  0  0  0  0
   69.2222   48.2348   55.1157 C   0  0  0  0  0  0  0  0  0  0  0  0
   68.8614   46.9899   55.6238 C   0  0  0  0  0  0  0  0  0  0  0  0
   68.4606   45.9795   54.7744 C   0  0  0  0  0  0  0  0  0  0  0  0
   68.4321   46.2519   53.4269 C   0  0  0  0  0  0  0  0  0  0  0  0
   68.7916   47.4969   52.9204 C   0  0  0  0  0  0  0  0  0  0  0  0
   68.2419   41.8094   57.4650 N   0  0  0  0  0  0  0  0  0  0  0  0
   68.1614   40.4413   57.1295 C   0  0  0  0  0  0  0  0  0  0  0  0
   67.8458   40.1917   55.9125 O   0  0  0  0  0  0  0  0  0  0  0  0
   68.4061   39.3066   58.0411 C   0  0  0  0  0  0  0  0  0  0  0  0
   69.6766   39.2004   58.5574 O   0  0  0  0  0  0  0  0  0  0  0  0
   70.5147   38.1306   58.6314 C   0  0  0  0  0  0  0  0  0  0  0  0
   71.6599   37.9460   57.8865 C   0  0  0  0  0  0  0  0  0  0  0  0
   72.4314   36.8344   58.0384 C   0  0  0  0  0  0  0  0  0  0  0  0
   72.1277   35.8341   58.9308 C   0  0  0  0  0  0  0  0  0  0  0  0
   70.9912   35.9903   59.6879 C   0  0  0  0  0  0  0  0  0  0  0  0
   70.2043   37.1117   59.5407 C   0  0  0  0  0  0  0  0  0  0  0  0
  6  7  1  0
  7  8  2  0
  7 12  1  0
  8  9  1  0
  9 10  2  0
 10  1  1  0
 10 11  1  0
  1  2  2  0
  1  5  1  0
  2  3  1  0
  3  4  1  0
  4 13  1  0
  4  5  2  0
 13 14  1  0
 14 15  2  0
 14 16  1  0
 16 17  1  0
 17 18  1  0
 18 19  2  0
 18 23  1  0
 19 20  1  0
 20 21  2  0
 21 22  1  0
 22 23  2  0
 11 12  2  0
M  END
>  <minimizedAffinity>  (694) 
-8.62624

$$$$
data/200k_reference_output/data/smiles/58074.pdb
     RDKit          3D

 28 31  0  0  0  0  0  0  0  0999 V2000
   73.9525   51.3440   55.6285 C   0  0  0  0  0  0  0  0  0  0  0  0
   72.7315   50.7187   55.7060 C   0  0  0  0  0  0  0  0  0  0  0  0
   71.5766   51.1781   55.0968 C   0  0  0  0  0  0  0  0  0  0  0  0
   71.6980   52.3405   54.3736 C   0  0  0  0  0  0  0  0  0  0  0  0
   72.9178   53.0118   54.2646 C   0  0  0  0  0  0  0  0  0  0  0  0
   74.0391   52.5055   54.8958 C   0  0  0  0  0  0  0  0  0  0  0  0
   75.2371   53.1290   54.8126 F   0  0  0  0  0  0  0  0  0  0  0  0
   75.6769   49.4863   54.5342 O   0  0  0  0  0  0  0  0  0  0  0  0
   75.9870   49.8946   55.6807 C   0  0  0  0  0  0  0  0  0  0  0  0
   75.1181   50.8490   56.2654 N   0  0  0  0  0  0  0  0  0  0  0  0
   77.2052   49.3740   56.3405 C   0  0  2  0  0  0  0  0  0  0  0  0
   76.8785   49.0652   57.7750 C   0  0  0  0  0  0  0  0  0  0  0  0
   77.0919   50.2609   58.6794 C   0  0  0  0  0  0  0  0  0  0  0  0
   78.4848   50.8216   58.5633 C   0  0  0  0  0  0  0  0  0  0  0  0
   79.1532   50.1785   57.4463 N   0  0  0  0  0  0  0  0  0  0  0  0
   78.3390   50.3930   56.2657 C   0  0  0  0  0  0  0  0  0  0  0  0
   70.2896   50.4511   55.2483 C   0  0  0  0  0  0  0  0  0  0  0  0
   70.1068   49.4775   54.1218 C   0  0  0  0  0  0  0  0  0  0  0  0
   70.6688   49.7725   52.9053 N   0  0  0  0  0  0  0  0  0  0  0  0
   70.5179   48.9548   51.8902 N   0  0  0  0  0  0  0  0  0  0  0  0
   69.8289   47.8161   51.9687 C   0  0  0  0  0  0  0  0  0  0  0  0
   69.7265   47.0882   50.9621 O   0  0  0  0  0  0  0  0  0  0  0  0
   69.2265   47.4414   53.1686 C   0  0  0  0  0  0  0  0  0  0  0  0
   69.3909   48.3114   54.2392 C   0  0  0  0  0  0  0  0  0  0  0  0
   68.7858   47.9800   55.5806 C   0  0  0  0  0  0  0  0  0  0  0  0
   68.7570   46.4631   55.6754 C   0  0  0  0  0  0  0  0  0  0  0  0
   67.8020   46.0194   54.5672 C   0  0  0  0  0  0  0  0  0  0  0  0
   68.4633   46.1717   53.2303 C   0  0  0  0  0  0  0  0  0  0  0  0
  8  9  2  0
  9 10  1  0
 11  9  1  1
 10  1  1  0
  1  2  2  0
  1  6  1  0
  2  3  1  0
  3 17  1  0
  3  4  2  0
 17 18  1  0
 18 19  2  0
 18 24  1  0
 19 20  1  0
 20 21  1  0
 21 22  2  0
 21 23  1  0
 23 24  2  0
 23 28  1  0
 24 25  1  0
 25 26  1  0
 26 27  1  0
 27 28  1  0
  4  5  1  0
  5  6  2  0
  6  7  1  0
 11 12  1  0
 11 16  1  0
 12 13  1  0
 13 14  1  0
 14 15  1  0
 15 16  1  0
M  CHG  1  15   1
M  END
>  <minimizedAffinity>  (695) 
-9.31467

$$$$
data/200k_reference_output/data/smiles/58174.pdb
     RDKit          3D

 25 27  0  0  0  0  0  0  0  0999 V2000
   68.8924   47.5936   54.4197 C   0  0  0  0  0  0  0  0  0  0  0  0
   69.7142   48.7177   54.5493 C   0  0  0  0  0  0  0  0  0  0  0  0
   70.2797   49.3327   53.4925 C   0  0  0  0  0  0  0  0  0  0  0  0
   70.0303   48.8170   52.2226 C   0  0  0  0  0  0  0  0  0  0  0  0
   69.2291   47.7162   52.0655 C   0  0  0  0  0  0  0  0  0  0  0  0
   68.6546   47.0966   53.1826 C   0  0  0  0  0  0  0  0  0  0  0  0
   67.9005   45.8931   52.9361 C   0  0  0  0  0  0  0  0  0  0  0  0
   67.1363   45.7081   51.7379 N   0  0  0  0  0  0  0  0  0  0  0  0
   67.8598   44.9377   53.7381 O   0  0  0  0  0  0  0  0  0  0  0  0
   68.3589   47.0286   55.6493 N   0  0  0  0  0  0  0  0  0  0  0  0
   69.7518   42.7628   57.4235 C   0  0  0  0  0  0  0  0  0  0  0  0
   69.8158   44.2667   57.4218 C   0  0  0  0  0  0  0  0  0  0  0  0
   70.6191   44.8388   58.3777 C   0  0  0  0  0  0  0  0  0  0  0  0
   70.6927   46.2174   58.4293 C   0  0  0  0  0  0  0  0  0  0  0  0
   69.9577   46.9718   57.5231 C   0  0  0  0  0  0  0  0  0  0  0  0
   69.1791   46.3592   56.5989 C   0  0  0  0  0  0  0  0  0  0  0  0
   69.1238   44.9979   56.5661 N   0  0  0  0  0  0  0  0  0  0  0  0
   71.0666   50.5045   53.5704 N   0  0  0  0  0  0  0  0  0  0  0  0
   71.7853   51.0282   54.7063 C   0  0  2  0  0  0  0  0  0  0  0  0
   71.1365   52.0847   55.4896 C   0  0  0  0  0  0  0  0  0  0  0  0
   71.8864   53.2920   55.8784 C   0  0  0  0  0  0  0  0  0  0  0  0
   73.0812   53.6622   55.1117 C   0  0  0  0  0  0  0  0  0  0  0  0
   73.6268   52.6438   54.1683 C   0  0  0  0  0  0  0  0  0  0  0  0
   73.2384   51.2572   54.5188 C   0  0  2  0  0  0  0  0  0  0  0  0
   73.8833   50.2870   53.6507 N   0  0  0  0  0  0  0  0  0  0  0  0
 11 12  1  0
 12 13  2  0
 12 17  1  0
 13 14  1  0
 14 15  2  0
 15 16  1  0
 16 10  1  0
 16 17  2  0
 10  1  1  0
  1  2  2  0
  1  6  1  0
  2  3  1  0
  3 18  1  0
  3  4  2  0
 19 18  1  6
 19 20  1  0
 19 24  1  0
 20 21  1  0
 21 22  1  0
 22 23  1  0
 23 24  1  0
 24 25  1  6
  4  5  1  0
  5  6  2  0
  6  7  1  0
  7  8  1  0
  7  9  2  0
M  CHG  1  25   1
M  END
>  <minimizedAffinity>  (696) 
-9.24678

$$$$
data/200k_reference_output/data/smiles/58580.pdb
     RDKit          3D

 27 29  0  0  0  0  0  0  0  0999 V2000
   69.3279   45.0222   56.7057 N   0  0  0  0  0  0  0  0  0  0  0  0
   69.8085   44.5752   57.9575 C   0  0  0  0  0  0  0  0  0  0  0  0
   70.0136   45.4681   58.8206 O   0  0  0  0  0  0  0  0  0  0  0  0
   70.0691   43.1446   58.2753 C   0  0  1  0  0  0  0  0  0  0  0  0
   69.1766   42.2681   57.4220 C   0  0  0  0  0  0  0  0  0  0  0  0
   71.4981   42.7122   58.1827 C   0  0  0  0  0  0  0  0  0  0  0  0
   71.4385   42.5522   59.6712 C   0  0  0  0  0  0  0  0  0  0  0  0
   70.0221   42.8403   59.6963 N   0  0  0  0  0  0  0  0  0  0  0  0
   69.0705   42.8108   60.7245 C   0  0  0  0  0  0  0  0  0  0  0  0
   67.8839   43.1098   60.4816 O   0  0  0  0  0  0  0  0  0  0  0  0
   69.4381   42.4309   62.0960 C   0  0  0  0  0  0  0  0  0  0  0  0
   68.3752   41.6683   62.7543 C   0  0  0  0  0  0  0  0  0  0  0  0
   67.3904   41.9684   63.6034 C   0  0  0  0  0  0  0  0  0  0  0  0
   66.5434   41.0228   64.0470 C   0  0  0  0  0  0  0  0  0  0  0  0
   66.7116   39.7519   63.6115 C   0  0  0  0  0  0  0  0  0  0  0  0
   68.1708   39.9234   62.5010 S   0  0  0  0  0  0  0  0  0  0  0  0
   69.0015   46.6618   56.3110 S   0  0  0  0  0  0  0  0  0  0  0  0
   70.0990   47.5746   56.8064 O   0  0  0  0  0  0  0  0  0  0  0  0
   67.6992   47.1192   56.9426 O   0  0  0  0  0  0  0  0  0  0  0  0
   69.8725   49.0962   51.8193 C   0  0  0  0  0  0  0  0  0  0  0  0
   69.2701   47.9535   52.5196 C   0  0  0  0  0  0  0  0  0  0  0  0
   68.5945   47.0077   51.7953 C   0  0  0  0  0  0  0  0  0  0  0  0
   68.0281   45.9329   52.4615 C   0  0  0  0  0  0  0  0  0  0  0  0
   68.1577   45.8348   53.8612 C   0  0  0  0  0  0  0  0  0  0  0  0
   67.5670   44.7543   54.4198 F   0  0  0  0  0  0  0  0  0  0  0  0
   68.8284   46.7724   54.5855 C   0  0  0  0  0  0  0  0  0  0  0  0
   69.3913   47.8502   53.8829 C   0  0  0  0  0  0  0  0  0  0  0  0
 20 21  1  0
 21 22  2  0
 21 27  1  0
 22 23  1  0
 23 24  2  0
 24 25  1  0
 24 26  1  0
 26 17  1  0
 26 27  2  0
 17 18  2  0
 17 19  2  0
 17  1  1  0
  1  2  1  0
  2  3  2  0
  4  2  1  0
  4  5  1  6
  4  6  1  0
  4  8  1  0
  6  7  1  0
  7  8  1  0
  8  9  1  0
  9 10  2  0
  9 11  1  0
 11 12  1  0
 12 13  2  0
 12 16  1  0
 13 14  1  0
 14 15  2  0
 15 16  1  0
M  END
>  <minimizedAffinity>  (697) 
-8.62416

$$$$
data/200k_reference_output/data/smiles/58641.pdb
     RDKit          3D

 25 27  0  0  0  0  0  0  0  0999 V2000
   72.5995   35.6757   57.2986 C   0  0  0  0  0  0  0  0  0  0  0  0
   72.3291   34.6269   58.1435 C   0  0  0  0  0  0  0  0  0  0  0  0
   71.5605   34.8023   59.2996 C   0  0  0  0  0  0  0  0  0  0  0  0
   71.0768   36.0497   59.5786 C   0  0  0  0  0  0  0  0  0  0  0  0
   71.3292   37.1399   58.7466 C   0  0  0  0  0  0  0  0  0  0  0  0
   72.0831   36.9243   57.6298 C   0  0  0  0  0  0  0  0  0  0  0  0
   75.5174   34.9503   55.0269 C   0  0  0  0  0  0  0  0  0  0  0  0
   74.9175   35.1431   53.7856 C   0  0  0  0  0  0  0  0  0  0  0  0
   73.5885   35.5023   53.6797 C   0  0  0  0  0  0  0  0  0  0  0  0
   72.8453   35.6721   54.8389 C   0  0  0  0  0  0  0  0  0  0  0  0
   73.3971   35.4925   56.1000 C   0  0  0  0  0  0  0  0  0  0  0  0
   74.7289   35.1342   56.1334 C   0  0  0  0  0  0  0  0  0  0  0  0
   77.7714   35.2381   54.2503 C   0  0  0  0  0  0  0  0  0  0  0  0
   76.8677   34.5862   55.1178 O   0  0  0  0  0  0  0  0  0  0  0  0
   70.7697   38.4638   59.0656 C   0  0  0  0  0  0  0  0  0  0  0  0
   69.3153   38.6204   58.8519 C   0  0  0  0  0  0  0  0  0  0  0  0
   68.8503   39.7011   58.0029 C   0  0  0  0  0  0  0  0  0  0  0  0
   69.2191   40.9975   58.4179 C   0  0  0  0  0  0  0  0  0  0  0  0
   68.8402   42.1020   57.6979 C   0  0  0  0  0  0  0  0  0  0  0  0
   69.1855   43.2660   58.0941 O   0  0  0  0  0  0  0  0  0  0  0  0
   68.1075   41.9876   56.5783 N   0  0  0  0  0  0  0  0  0  0  0  0
   67.7227   43.1754   55.8402 C   0  0  0  0  0  0  0  0  0  0  0  0
   67.7692   40.7417   56.2041 C   0  0  0  0  0  0  0  0  0  0  0  0
   66.9862   40.6266   55.0073 N   0  0  0  0  0  0  0  0  0  0  0  0
   68.1313   39.6498   56.8960 N   0  0  0  0  0  0  0  0  0  0  0  0
 13 14  1  0
 14  7  1  0
  7  8  2  0
  7 12  1  0
  8  9  1  0
  9 10  2  0
 10 11  1  0
 11  1  1  0
 11 12  2  0
  1  2  2  0
  1  6  1  0
  2  3  1  0
  3  4  2  0
  4  5  1  0
  5 15  1  0
  5  6  2  0
 15 16  1  0
 16 17  1  0
 17 18  2  0
 17 25  1  0
 18 19  1  0
 19 20  2  0
 19 21  1  0
 21 22  1  0
 21 23  1  0
 23 24  1  0
 23 25  2  0
M  END
>  <minimizedAffinity>  (698) 
-8.51065

$$$$
data/200k_reference_output/data/smiles/58653.pdb
     RDKit          3D

 26 29  0  0  0  0  0  0  0  0999 V2000
   70.1316   40.0876   58.2189 C   0  0  0  0  0  0  0  0  0  0  0  0
   68.9027   40.5232   57.8094 C   0  0  0  0  0  0  0  0  0  0  0  0
   68.7261   41.8563   57.4242 C   0  0  0  0  0  0  0  0  0  0  0  0
   69.7548   42.7722   57.4389 C   0  0  0  0  0  0  0  0  0  0  0  0
   70.9868   42.3064   57.8562 C   0  0  0  0  0  0  0  0  0  0  0  0
   71.1727   40.9927   58.2381 C   0  0  0  0  0  0  0  0  0  0  0  0
   72.6939   33.1845   58.9085 C   0  0  0  0  0  0  0  0  0  0  0  0
   71.9195   34.4315   59.1709 C   0  0  0  0  0  0  0  0  0  0  0  0
   71.0696   34.5319   60.2568 C   0  0  0  0  0  0  0  0  0  0  0  0
   70.3675   35.7181   60.4798 C   0  0  0  0  0  0  0  0  0  0  0  0
   70.4892   36.8181   59.6468 C   0  0  0  0  0  0  0  0  0  0  0  0
   71.3285   36.6893   58.5945 N   0  0  0  0  0  0  0  0  0  0  0  0
   72.0194   35.5380   58.3623 C   0  0  0  0  0  0  0  0  0  0  0  0
   71.2883   37.8609   57.9500 C   0  0  0  0  0  0  0  0  0  0  0  0
   70.4075   38.7145   58.6320 C   0  0  0  0  0  0  0  0  0  0  0  0
   69.9422   38.0294   59.6643 N   0  0  0  0  0  0  0  0  0  0  0  0
   68.9800   38.5334   60.6525 C   0  0  0  0  0  0  0  0  0  0  0  0
   69.5660   44.1783   57.0405 C   0  0  0  0  0  0  0  0  0  0  0  0
   68.5555   44.5607   56.3664 N   0  0  0  0  0  0  0  0  0  0  0  0
   68.2821   45.8632   55.9395 N   0  0  0  0  0  0  0  0  0  0  0  0
   68.2830   46.0359   54.5115 C   0  0  0  0  0  0  0  0  0  0  0  0
   68.9284   47.0355   53.7978 C   0  0  0  0  0  0  0  0  0  0  0  0
   68.7083   46.8786   52.4521 C   0  0  0  0  0  0  0  0  0  0  0  0
   69.1630   47.6790   51.3727 N   0  0  0  0  0  0  0  0  0  0  0  0
   67.9349   45.7886   52.3549 N   0  0  0  0  0  0  0  0  0  0  0  0
   67.6789   45.2846   53.5715 N   0  0  0  0  0  0  0  0  0  0  0  0
  7  8  1  0
  8  9  1  0
  8 13  2  0
  9 10  2  0
 10 11  1  0
 11 12  1  0
 11 16  2  0
 12 13  1  0
 12 14  1  0
 14 15  2  0
 15  1  1  0
 15 16  1  0
  1  2  2  0
  1  6  1  0
  2  3  1  0
  3  4  2  0
  4 18  1  0
  4  5  1  0
 18 19  2  0
 19 20  1  0
 20 21  1  0
 21 22  1  0
 21 26  2  0
 22 23  2  0
 23 24  1  0
 23 25  1  0
 25 26  1  0
  5  6  2  0
 16 17  1  0
M  CHG  1  16   1
M  END
>  <minimizedAffinity>  (699) 
-8.97757

$$$$
data/200k_reference_output/data/smiles/58767.pdb
     RDKit          3D

 29 32  0  0  0  0  0  0  0  0999 V2000
   71.7675   46.6317   59.5275 C   0  0  0  0  0  0  0  0  0  0  0  0
   71.0860   45.6603   58.6528 C   0  0  0  0  0  0  0  0  0  0  0  0
   71.3256   44.2801   58.7276 C   0  0  0  0  0  0  0  0  0  0  0  0
   70.6745   43.4043   57.9001 C   0  0  0  0  0  0  0  0  0  0  0  0
   69.7751   43.8905   56.9860 C   0  0  0  0  0  0  0  0  0  0  0  0
   69.5138   45.2685   56.8871 C   0  0  0  0  0  0  0  0  0  0  0  0
   70.1835   46.1250   57.7315 C   0  0  0  0  0  0  0  0  0  0  0  0
   70.9236   41.9949   57.9809 C   0  0  0  0  0  0  0  0  0  0  0  0
   72.0869   41.5634   57.7853 O   0  0  0  0  0  0  0  0  0  0  0  0
   69.9074   41.0519   58.2773 N   0  0  0  0  0  0  0  0  0  0  0  0
   69.7868   39.6168   58.4378 C   0  0  0  0  0  0  0  0  0  0  0  0
   68.3042   39.6922   58.1713 C   0  0  0  0  0  0  0  0  0  0  0  0
   67.3982   38.9992   59.1274 C   0  0  0  0  0  0  0  0  0  0  0  0
   67.9804   39.4720   56.8399 O   0  0  0  0  0  0  0  0  0  0  0  0
   68.4908   41.1444   58.5588 C   0  0  0  0  0  0  0  0  0  0  0  0
   69.9728   47.5140   57.6168 N   0  0  0  0  0  0  0  0  0  0  0  0
   68.7220   48.2603   56.7125 S   0  0  0  0  0  0  0  0  0  0  0  0
   68.4537   49.6371   57.2682 O   0  0  0  0  0  0  0  0  0  0  0  0
   67.4313   47.4765   56.8798 O   0  0  0  0  0  0  0  0  0  0  0  0
   69.1048   48.3978   55.0259 C   0  0  0  0  0  0  0  0  0  0  0  0
   69.8907   49.4705   54.6254 C   0  0  0  0  0  0  0  0  0  0  0  0
   70.2591   49.6214   53.3308 C   0  0  0  0  0  0  0  0  0  0  0  0
   69.8680   48.7124   52.3522 C   0  0  0  0  0  0  0  0  0  0  0  0
   69.0932   47.6466   52.7158 C   0  0  0  0  0  0  0  0  0  0  0  0
   68.6743   46.7441   51.7762 C   0  0  0  0  0  0  0  0  0  0  0  0
   67.8731   45.6838   52.1590 C   0  0  0  0  0  0  0  0  0  0  0  0
   67.5190   45.5702   53.4931 C   0  0  0  0  0  0  0  0  0  0  0  0
   67.9594   46.4840   54.3727 N   0  0  0  0  0  0  0  0  0  0  0  0
   68.7286   47.5133   54.0469 C   0  0  0  0  0  0  0  0  0  0  0  0
  1  2  1  0
  2  3  2  0
  2  7  1  0
  3  4  1  0
  4  8  1  0
  4  5  2  0
  8  9  2  0
  8 10  1  0
 10 11  1  0
 10 15  1  0
 11 12  1  0
 12 13  1  0
 12 14  1  0
 12 15  1  0
  5  6  1  0
  6  7  2  0
  7 16  1  0
 16 17  1  0
 17 18  2  0
 17 19  2  0
 17 20  1  0
 20 21  2  0
 20 29  1  0
 21 22  1  0
 22 23  2  0
 23 24  1  0
 24 25  1  0
 24 29  2  0
 25 26  2  0
 26 27  1  0
 27 28  2  0
 28 29  1  0
M  END
>  <minimizedAffinity>  (700) 
-8.84560

$$$$
data/200k_reference_output/data/smiles/58825.pdb
     RDKit          3D

 20 22  0  0  0  0  0  0  0  0999 V2000
   70.5419   48.3411   50.7080 O   0  0  0  0  0  0  0  0  0  0  0  0
   70.3526   48.3897   51.9427 C   0  0  0  0  0  0  0  0  0  0  0  0
   71.0161   49.2118   52.7725 N   0  0  0  0  0  0  0  0  0  0  0  0
   70.8285   49.2699   54.0530 N   0  0  0  0  0  0  0  0  0  0  0  0
   69.9174   48.4892   54.7359 C   0  0  0  0  0  0  0  0  0  0  0  0
   69.2067   47.6298   53.9473 C   0  0  0  0  0  0  0  0  0  0  0  0
   68.2617   46.8250   54.5464 C   0  0  0  0  0  0  0  0  0  0  0  0
   67.5363   45.9673   53.7527 C   0  0  0  0  0  0  0  0  0  0  0  0
   67.7278   45.8936   52.3865 C   0  0  0  0  0  0  0  0  0  0  0  0
   68.6745   46.7037   51.7906 C   0  0  0  0  0  0  0  0  0  0  0  0
   69.4137   47.5701   52.5592 C   0  0  0  0  0  0  0  0  0  0  0  0
   69.8413   48.6195   56.2061 C   0  0  0  0  0  0  0  0  0  0  0  0
   68.7767   49.5730   56.6447 C   0  0  0  0  0  0  0  0  0  0  0  0
   67.7398   49.0011   57.3861 C   0  0  0  0  0  0  0  0  0  0  0  0
   67.7148   47.6589   57.6391 F   0  0  0  0  0  0  0  0  0  0  0  0
   66.7195   49.7679   57.8798 C   0  0  0  0  0  0  0  0  0  0  0  0
   66.7219   51.1292   57.6365 C   0  0  0  0  0  0  0  0  0  0  0  0
   67.7355   51.7061   56.9091 C   0  0  0  0  0  0  0  0  0  0  0  0
   68.7494   50.9109   56.4258 C   0  0  0  0  0  0  0  0  0  0  0  0
   69.7688   51.5085   55.7455 F   0  0  0  0  0  0  0  0  0  0  0  0
  1  2  2  0
  2  3  1  0
  2 11  1  0
  3  4  1  0
  4  5  2  0
  5 12  1  0
  5  6  1  0
 12 13  1  0
 13 14  2  0
 13 19  1  0
 14 15  1  0
 14 16  1  0
 16 17  2  0
 17 18  1  0
 18 19  2  0
 19 20  1  0
  6  7  1  0
  6 11  2  0
  7  8  2  0
  8  9  1  0
  9 10  2  0
 10 11  1  0
M  END
>  <minimizedAffinity>  (701) 
-8.57861

$$$$
data/200k_reference_output/data/smiles/58847.pdb
     RDKit          3D

 23 25  0  0  0  0  0  0  0  0999 V2000
   69.4670   42.7594   57.8758 C   0  0  0  0  0  0  0  0  0  0  0  0
   68.8908   43.1241   59.0025 O   0  0  0  0  0  0  0  0  0  0  0  0
   70.7763   42.1994   58.0322 C   0  0  0  0  0  0  0  0  0  0  0  0
   71.0274   40.8130   58.2092 C   0  0  0  0  0  0  0  0  0  0  0  0
   72.3236   40.6050   58.3796 N   0  0  0  0  0  0  0  0  0  0  0  0
   72.9924   41.7650   58.3308 C   0  0  0  0  0  0  0  0  0  0  0  0
   74.3287   42.0776   58.4401 C   0  0  0  0  0  0  0  0  0  0  0  0
   74.7046   43.3800   58.3304 C   0  0  0  0  0  0  0  0  0  0  0  0
   73.8227   44.3960   58.1174 C   0  0  0  0  0  0  0  0  0  0  0  0
   74.2889   46.0786   57.9729 Cl  0  0  0  0  0  0  0  0  0  0  0  0
   72.4716   44.0611   58.0097 C   0  0  0  0  0  0  0  0  0  0  0  0
   72.0195   42.7621   58.1118 C   0  0  0  0  0  0  0  0  0  0  0  0
   67.9340   42.2412   56.0681 O   0  0  0  0  0  0  0  0  0  0  0  0
   68.6344   43.0168   56.7432 C   0  0  0  0  0  0  0  0  0  0  0  0
   68.5303   44.3923   56.2275 N   0  0  0  0  0  0  0  0  0  0  0  0
   67.7370   44.6941   55.1339 N   0  0  0  0  0  0  0  0  0  0  0  0
   68.1508   45.6643   54.2024 C   0  0  0  0  0  0  0  0  0  0  0  0
   67.8736   45.5012   52.8611 C   0  0  0  0  0  0  0  0  0  0  0  0
   68.2639   46.4336   51.9233 C   0  0  0  0  0  0  0  0  0  0  0  0
   68.9455   47.5617   52.2876 C   0  0  0  0  0  0  0  0  0  0  0  0
   69.3669   48.5351   51.4063 O   0  0  0  0  0  0  0  0  0  0  0  0
   69.2312   47.7396   53.6380 C   0  0  0  0  0  0  0  0  0  0  0  0
   68.8407   46.8066   54.5715 C   0  0  0  0  0  0  0  0  0  0  0  0
 13 14  2  0
 14 15  1  0
 14  1  1  0
 15 16  1  0
 16 17  1  0
 17 18  2  0
 17 23  1  0
 18 19  1  0
 19 20  2  0
 20 21  1  0
 20 22  1  0
 22 23  2  0
  1  2  2  0
  1  3  1  0
  3  4  2  0
  3 12  1  0
  4  5  1  0
  5  6  1  0
  6  7  1  0
  6 12  2  0
  7  8  2  0
  8  9  1  0
  9 10  1  0
  9 11  2  0
 11 12  1  0
M  END
>  <minimizedAffinity>  (702) 
-8.58202

$$$$
data/200k_reference_output/data/smiles/58867.pdb
     RDKit          3D

 24 25  0  0  0  0  0  0  0  0999 V2000
   68.1202   44.5320   55.6531 N   0  0  0  0  0  0  0  0  0  0  0  0
   68.0405   45.3087   54.5019 C   0  0  0  0  0  0  0  0  0  0  0  0
   67.4679   44.8007   53.5025 O   0  0  0  0  0  0  0  0  0  0  0  0
   68.5697   46.6641   54.3617 C   0  0  0  0  0  0  0  0  0  0  0  0
   68.6625   47.5158   55.4213 C   0  0  0  0  0  0  0  0  0  0  0  0
   69.1651   48.8117   55.3096 C   0  0  0  0  0  0  0  0  0  0  0  0
   69.5879   49.2491   54.0645 C   0  0  0  0  0  0  0  0  0  0  0  0
   70.1262   50.6422   53.9581 C   0  0  0  0  0  0  0  0  0  0  0  0
   69.5079   48.4136   52.9732 C   0  0  0  0  0  0  0  0  0  0  0  0
   68.9981   47.1341   53.1449 C   0  0  0  0  0  0  0  0  0  0  0  0
   69.9520   48.9022   51.7172 N   0  0  0  0  0  0  0  0  0  0  0  0
   70.6033   48.2201   50.9039 O   0  0  0  0  0  0  0  0  0  0  0  0
   69.6560   50.1956   51.3602 O   0  0  0  0  0  0  0  0  0  0  0  0
   67.5720   41.0024   57.0053 N   0  0  0  0  0  0  0  0  0  0  0  0
   68.1559   42.2990   56.8252 C   0  0  0  0  0  0  0  0  0  0  0  0
   69.1523   42.5386   57.5292 O   0  0  0  0  0  0  0  0  0  0  0  0
   67.6786   43.2596   55.9361 N   0  0  0  0  0  0  0  0  0  0  0  0
   71.1929   38.0383   58.5194 C   0  0  0  0  0  0  0  0  0  0  0  0
   69.8336   38.5924   58.6803 C   0  0  0  0  0  0  0  0  0  0  0  0
   69.0409   38.1830   59.7285 C   0  0  0  0  0  0  0  0  0  0  0  0
   67.7641   38.7021   59.8817 C   0  0  0  0  0  0  0  0  0  0  0  0
   67.3074   39.6354   58.9614 C   0  0  0  0  0  0  0  0  0  0  0  0
   68.0784   40.0572   57.9102 C   0  0  0  0  0  0  0  0  0  0  0  0
   69.3377   39.5381   57.7691 C   0  0  0  0  0  0  0  0  0  0  0  0
 18 19  1  0
 19 20  2  0
 19 24  1  0
 20 21  1  0
 21 22  2  0
 22 23  1  0
 23 14  1  0
 23 24  2  0
 14 15  1  0
 15 16  2  0
 15 17  1  0
 17  1  1  0
  1  2  1  0
  2  3  2  0
  2  4  1  0
  4  5  2  0
  4 10  1  0
  5  6  1  0
  6  7  2  0
  7  8  1  0
  7  9  1  0
  9 11  1  0
  9 10  2  0
 11 12  2  0
 11 13  1  0
M  CHG  2  11   1  13  -1
M  END
>  <minimizedAffinity>  (703) 
-8.56255

$$$$
data/200k_reference_output/data/smiles/58963.pdb
     RDKit          3D

 28 32  0  0  0  0  0  0  0  0999 V2000
   71.7866   35.8510   53.3307 O   0  0  0  0  0  0  0  0  0  0  0  0
   72.9484   35.4461   53.6319 C   0  0  0  0  0  0  0  0  0  0  0  0
   73.8083   34.9834   52.7015 N   0  0  0  0  0  0  0  0  0  0  0  0
   75.0438   34.5512   53.0138 C   0  0  0  0  0  0  0  0  0  0  0  0
   75.4002   34.5966   54.3095 N   0  0  0  0  0  0  0  0  0  0  0  0
   74.5722   35.0513   55.2776 C   0  0  0  0  0  0  0  0  0  0  0  0
   74.9449   35.0944   56.6052 C   0  0  0  0  0  0  0  0  0  0  0  0
   74.0797   35.5641   57.5798 C   0  0  0  0  0  0  0  0  0  0  0  0
   72.8072   36.0116   57.2725 C   0  0  0  0  0  0  0  0  0  0  0  0
   72.4461   35.9640   55.9408 C   0  0  0  0  0  0  0  0  0  0  0  0
   73.3050   35.4959   54.9645 C   0  0  0  0  0  0  0  0  0  0  0  0
   75.9672   34.0458   51.9530 C   0  0  2  0  0  0  0  0  0  0  0  0
   76.8370   32.9376   52.4594 C   0  0  0  0  0  0  0  0  0  0  0  0
   78.1502   33.4517   52.6554 N   0  0  0  0  0  0  0  0  0  0  0  0
   78.1918   34.8033   52.2008 C   0  0  0  0  0  0  0  0  0  0  0  0
   76.9221   35.1002   51.4833 C   0  0  1  0  0  0  0  0  0  0  0  0
   77.0304   34.9871   50.0140 C   0  0  0  0  0  0  0  0  0  0  0  0
   78.0102   35.6928   49.3584 C   0  0  0  0  0  0  0  0  0  0  0  0
   78.1759   35.6333   47.9778 C   0  0  0  0  0  0  0  0  0  0  0  0
   77.3434   34.8510   47.2371 C   0  0  0  0  0  0  0  0  0  0  0  0
   77.5011   34.7885   45.8807 F   0  0  0  0  0  0  0  0  0  0  0  0
   76.3533   34.1322   47.8564 C   0  0  0  0  0  0  0  0  0  0  0  0
   76.1995   34.2023   49.2474 C   0  0  0  0  0  0  0  0  0  0  0  0
   71.9133   36.5022   58.3150 C   0  0  0  0  0  0  0  0  0  0  0  0
   71.2617   35.7826   59.2920 C   0  0  0  0  0  0  0  0  0  0  0  0
   70.5401   36.6241   60.0432 N   0  0  0  0  0  0  0  0  0  0  0  0
   70.6851   37.8672   59.6078 N   0  0  0  0  0  0  0  0  0  0  0  0
   71.5331   37.8134   58.5371 C   0  0  0  0  0  0  0  0  0  0  0  0
  1  2  2  0
  2  3  1  0
  2 11  1  0
  3  4  1  0
 12  4  1  1
  4  5  2  0
 12 13  1  0
 12 16  1  0
 13 14  1  0
 14 15  1  0
 15 16  1  0
 16 17  1  6
 17 18  2  0
 17 23  1  0
 18 19  1  0
 19 20  2  0
 20 21  1  0
 20 22  1  0
 22 23  2  0
  5  6  1  0
  6  7  1  0
  6 11  2  0
  7  8  2  0
  8  9  1  0
  9 24  1  0
  9 10  2  0
 24 25  1  0
 24 28  2  0
 25 26  2  0
 26 27  1  0
 27 28  1  0
 10 11  1  0
M  CHG  1  14   1
M  END
>  <minimizedAffinity>  (704) 
-8.69542

$$$$
data/200k_reference_output/data/smiles/58984.pdb
     RDKit          3D

 25 29  0  0  0  0  0  0  0  0999 V2000
   75.2329   35.8936   53.7731 N   0  0  0  0  0  0  0  0  0  0  0  0
   75.0706   35.4029   55.0278 C   0  0  0  0  0  0  0  0  0  0  0  0
   73.7338   35.2769   55.3336 C   0  0  0  0  0  0  0  0  0  0  0  0
   73.1018   35.7055   54.2270 N   0  0  0  0  0  0  0  0  0  0  0  0
   73.9947   36.0650   53.3162 N   0  0  0  0  0  0  0  0  0  0  0  0
   73.1104   34.7991   56.5604 C   0  0  0  0  0  0  0  0  0  0  0  0
   73.0573   33.5143   57.0633 C   0  0  0  0  0  0  0  0  0  0  0  0
   72.3872   33.4867   58.2324 N   0  0  0  0  0  0  0  0  0  0  0  0
   71.9895   34.7494   58.5173 C   0  0  0  0  0  0  0  0  0  0  0  0
   71.2983   35.2645   59.5492 N   0  0  0  0  0  0  0  0  0  0  0  0
   71.0409   36.5865   59.5705 C   0  0  0  0  0  0  0  0  0  0  0  0
   71.4619   37.4334   58.5688 C   0  0  0  0  0  0  0  0  0  0  0  0
   72.1716   36.9182   57.5050 C   0  0  0  0  0  0  0  0  0  0  0  0
   72.4315   35.5660   57.4908 C   0  0  0  0  0  0  0  0  0  0  0  0
   76.4562   36.1725   53.0695 C   0  0  0  0  0  0  0  0  0  0  0  0
   77.0652   35.0079   52.3908 C   0  0  0  0  0  0  0  0  0  0  0  0
   78.2474   35.4663   47.9724 C   0  0  0  0  0  0  0  0  0  0  0  0
   77.3793   34.8629   47.0905 C   0  0  0  0  0  0  0  0  0  0  0  0
   76.3187   34.2313   47.6161 N   0  0  0  0  0  0  0  0  0  0  0  0
   76.1034   34.1862   48.9442 C   0  0  0  0  0  0  0  0  0  0  0  0
   75.0973   33.6116   49.6507 N   0  0  0  0  0  0  0  0  0  0  0  0
   75.2928   33.8257   50.9475 C   0  0  0  0  0  0  0  0  0  0  0  0
   76.4653   34.5672   51.1378 C   0  0  0  0  0  0  0  0  0  0  0  0
   76.9466   34.7768   49.8781 C   0  0  0  0  0  0  0  0  0  0  0  0
   78.0518   35.4346   49.3340 C   0  0  0  0  0  0  0  0  0  0  0  0
 17 18  2  0
 17 25  1  0
 18 19  1  0
 19 20  2  0
 20 21  1  0
 20 24  1  0
 21 22  1  0
 22 23  2  0
 23 16  1  0
 23 24  1  0
 16 15  1  0
 15  1  1  0
  1  2  1  0
  1  5  1  0
  2  3  2  0
  3  6  1  0
  3  4  1  0
  6  7  2  0
  6 14  1  0
  7  8  1  0
  8  9  1  0
  9 10  1  0
  9 14  2  0
 10 11  2  0
 11 12  1  0
 12 13  2  0
 13 14  1  0
  4  5  2  0
 24 25  2  0
M  END
>  <minimizedAffinity>  (705) 
-8.51859

$$$$
data/200k_reference_output/data/smiles/59012.pdb
     RDKit          3D

 26 29  0  0  0  0  0  0  0  0999 V2000
   69.2294   47.6241   56.0533 N   0  0  0  0  0  0  0  0  0  0  0  0
   69.6675   48.6157   55.2660 C   0  0  0  0  0  0  0  0  0  0  0  0
   69.4774   48.5424   53.8979 C   0  0  0  0  0  0  0  0  0  0  0  0
   68.8456   47.4799   53.2753 C   0  0  0  0  0  0  0  0  0  0  0  0
   68.6486   47.3925   51.9156 C   0  0  0  0  0  0  0  0  0  0  0  0
   68.0078   46.2937   51.3892 C   0  0  0  0  0  0  0  0  0  0  0  0
   67.5630   45.2856   52.1889 C   0  0  0  0  0  0  0  0  0  0  0  0
   67.7625   45.3795   53.5360 C   0  0  0  0  0  0  0  0  0  0  0  0
   68.4057   46.4785   54.0891 C   0  0  0  0  0  0  0  0  0  0  0  0
   68.6056   46.5779   55.4258 C   0  0  0  0  0  0  0  0  0  0  0  0
   68.1694   45.6050   56.1327 O   0  0  0  0  0  0  0  0  0  0  0  0
   70.0653   49.7276   53.3064 C   0  0  0  0  0  0  0  0  0  0  0  0
   70.1032   50.0425   52.0787 O   0  0  0  0  0  0  0  0  0  0  0  0
   70.6240   50.5259   54.3872 C   0  0  0  0  0  0  0  0  0  0  0  0
   71.2921   51.7364   54.3694 C   0  0  0  0  0  0  0  0  0  0  0  0
   71.7323   52.2994   55.5245 C   0  0  0  0  0  0  0  0  0  0  0  0
   71.4833   51.6147   56.6961 C   0  0  0  0  0  0  0  0  0  0  0  0
   70.8157   50.4029   56.7214 C   0  0  0  0  0  0  0  0  0  0  0  0
   70.3701   49.8335   55.5513 C   0  0  0  0  0  0  0  0  0  0  0  0
   69.3072   47.5652   57.4636 C   0  0  0  0  0  0  0  0  0  0  0  0
   70.4422   46.7596   57.9628 C   0  0  0  0  0  0  0  0  0  0  0  0
   70.6453   44.3611   58.6496 C   0  0  0  0  0  0  0  0  0  0  0  0
   71.4711   44.1758   57.7334 O   0  0  0  0  0  0  0  0  0  0  0  0
   70.0715   45.6729   58.8272 N   0  0  0  0  0  0  0  0  0  0  0  0
   68.9506   43.6083   60.1699 N   0  0  0  0  0  0  0  0  0  0  0  0
   70.2293   43.2813   59.5671 C   0  0  0  0  0  0  0  0  0  0  0  0
 25 26  1  0
 26 22  1  0
 22 23  2  0
 22 24  1  0
 24 21  1  0
 21 20  1  0
 20  1  1  0
  1  2  1  0
  1 10  1  0
  2  3  2  0
  2 19  1  0
  3  4  1  0
  3 12  1  0
  4  5  1  0
  4  9  2  0
  5  6  2  0
  6  7  1  0
  7  8  2  0
  8  9  1  0
  9 10  1  0
 10 11  2  0
 12 13  2  0
 12 14  1  0
 14 15  1  0
 14 19  2  0
 15 16  2  0
 16 17  1  0
 17 18  2  0
 18 19  1  0
M  CHG  1  25   1
M  END
>  <minimizedAffinity>  (706) 
-8.61950

$$$$
data/200k_reference_output/data/smiles/59084.pdb
     RDKit          3D

 20 22  0  0  0  0  0  0  0  0999 V2000
   70.1251   49.1802   52.6302 S   0  0  0  0  0  0  0  0  0  0  0  0
   70.3059   48.9136   51.1726 O   0  0  0  0  0  0  0  0  0  0  0  0
   71.4771   49.2691   53.2490 O   0  0  0  0  0  0  0  0  0  0  0  0
   69.2580   47.8322   53.3395 C   0  0  0  0  0  0  0  0  0  0  0  0
   69.3331   47.5935   54.7114 C   0  0  0  0  0  0  0  0  0  0  0  0
   68.6227   46.5108   55.2126 C   0  0  0  0  0  0  0  0  0  0  0  0
   67.8792   45.7182   54.3588 C   0  0  0  0  0  0  0  0  0  0  0  0
   67.8110   45.9610   53.0039 C   0  0  0  0  0  0  0  0  0  0  0  0
   67.1961   45.3912   51.9492 N   0  0  0  0  0  0  0  0  0  0  0  0
   67.4903   46.0598   50.8591 O   0  0  0  0  0  0  0  0  0  0  0  0
   68.2774   47.0443   51.1772 N   0  0  0  0  0  0  0  0  0  0  0  0
   68.5122   47.0339   52.4973 C   0  0  0  0  0  0  0  0  0  0  0  0
   69.3011   50.6628   52.8804 N   0  0  0  0  0  0  0  0  0  0  0  0
   67.2322   51.0472   57.3737 C   0  0  0  0  0  0  0  0  0  0  0  0
   68.2132   51.4861   56.3357 C   0  0  0  0  0  0  0  0  0  0  0  0
   69.0637   52.5328   56.6080 C   0  0  0  0  0  0  0  0  0  0  0  0
   69.9806   52.9685   55.6858 C   0  0  0  0  0  0  0  0  0  0  0  0
   70.0584   52.3595   54.4692 C   0  0  0  0  0  0  0  0  0  0  0  0
   69.2312   51.3053   54.1411 C   0  0  0  0  0  0  0  0  0  0  0  0
   68.3083   50.8877   55.1074 C   0  0  0  0  0  0  0  0  0  0  0  0
 14 15  1  0
 15 16  2  0
 15 20  1  0
 16 17  1  0
 17 18  2  0
 18 19  1  0
 19 13  1  0
 19 20  2  0
 13  1  1  0
  1  2  2  0
  1  3  2  0
  1  4  1  0
  4  5  2  0
  4 12  1  0
  5  6  1  0
  6  7  2  0
  7  8  1  0
  8  9  2  0
  8 12  1  0
  9 10  1  0
 10 11  1  0
 11 12  2  0
M  END
>  <minimizedAffinity>  (707) 
-8.98592

$$$$
data/200k_reference_output/data/smiles/59154.pdb
     RDKit          3D

 21 23  0  0  0  0  0  0  0  0999 V2000
   68.1782   46.0560   56.0980 N   0  0  0  0  0  0  0  0  0  0  0  0
   68.9626   45.0091   56.6419 C   0  0  0  0  0  0  0  0  0  0  0  0
   68.6797   43.7622   56.5073 N   0  0  0  0  0  0  0  0  0  0  0  0
   69.4362   42.7270   57.0046 C   0  0  0  0  0  0  0  0  0  0  0  0
   70.5522   43.1452   57.6736 C   0  0  0  0  0  0  0  0  0  0  0  0
   70.9045   44.4937   57.8504 C   0  0  0  0  0  0  0  0  0  0  0  0
   70.0962   45.4312   57.3252 N   0  0  0  0  0  0  0  0  0  0  0  0
   72.1332   44.7643   58.6402 C   0  0  0  0  0  0  0  0  0  0  0  0
   73.2706   43.9989   57.9628 C   0  0  0  0  0  0  0  0  0  0  0  0
   72.8727   42.5920   57.6022 C   0  0  0  0  0  0  0  0  0  0  0  0
   71.5306   42.1845   58.2433 C   0  0  0  0  0  0  0  0  0  0  0  0
   69.1372   47.7966   52.9591 C   0  0  0  0  0  0  0  0  0  0  0  0
   68.6522   46.9333   52.0094 C   0  0  0  0  0  0  0  0  0  0  0  0
   68.0025   45.7968   52.3999 C   0  0  0  0  0  0  0  0  0  0  0  0
   67.8392   45.5199   53.7614 C   0  0  0  0  0  0  0  0  0  0  0  0
   68.3211   46.3731   54.7319 C   0  0  0  0  0  0  0  0  0  0  0  0
   68.9633   47.5026   54.2996 C   0  0  0  0  0  0  0  0  0  0  0  0
   69.3387   50.6185   53.2081 N   0  0  0  0  0  0  0  0  0  0  0  0
   70.0038   49.2317   52.4576 S   0  0  0  0  0  0  0  0  0  0  0  0
   71.4547   49.1070   52.9201 O   0  0  0  0  0  0  0  0  0  0  0  0
   70.0142   49.3885   50.9763 O   0  0  0  0  0  0  0  0  0  0  0  0
 18 19  1  0
 19 20  2  0
 19 21  2  0
 19 12  1  0
 12 13  2  0
 12 17  1  0
 13 14  1  0
 14 15  2  0
 15 16  1  0
 16  1  1  0
 16 17  2  0
  1  2  1  0
  2  3  2  0
  2  7  1  0
  3  4  1  0
  4  5  2  0
  5  6  1  0
  5 11  1  0
  6  7  2  0
  6  8  1  0
  8  9  1  0
  9 10  1  0
 10 11  1  0
M  END
>  <minimizedAffinity>  (708) 
-8.98071

$$$$
data/200k_reference_output/data/smiles/59270.pdb
     RDKit          3D

 30 34  0  0  0  0  0  0  0  0999 V2000
   68.9384   41.1895   57.6347 C   0  0  0  0  0  0  0  0  0  0  0  0
   67.8930   40.9554   56.7961 C   0  0  0  0  0  0  0  0  0  0  0  0
   67.4087   41.9762   55.9583 C   0  0  0  0  0  0  0  0  0  0  0  0
   67.9698   43.2288   55.9591 C   0  0  0  0  0  0  0  0  0  0  0  0
   67.7122   44.3700   55.2759 N   0  0  0  0  0  0  0  0  0  0  0  0
   68.5561   45.3443   55.6411 C   0  0  0  0  0  0  0  0  0  0  0  0
   69.3582   44.7677   56.5838 N   0  0  0  0  0  0  0  0  0  0  0  0
   69.0136   43.4828   56.7881 C   0  0  0  0  0  0  0  0  0  0  0  0
   69.4888   42.4788   57.6115 C   0  0  0  0  0  0  0  0  0  0  0  0
   68.6560   46.7260   55.1828 C   0  0  0  0  0  0  0  0  0  0  0  0
   68.5787   47.7681   56.0981 C   0  0  0  0  0  0  0  0  0  0  0  0
   68.4007   47.4450   57.4555 N   0  0  0  0  0  0  0  0  0  0  0  0
   68.6704   49.0947   55.6977 C   0  0  0  0  0  0  0  0  0  0  0  0
   68.5940   50.1301   56.6095 C   0  0  0  0  0  0  0  0  0  0  0  0
   68.4255   49.8020   57.9045 F   0  0  0  0  0  0  0  0  0  0  0  0
   68.6871   51.4652   56.2122 C   0  0  0  0  0  0  0  0  0  0  0  0
   68.8596   51.7436   54.8722 C   0  0  0  0  0  0  0  0  0  0  0  0
   68.9608   53.0064   54.3835 F   0  0  0  0  0  0  0  0  0  0  0  0
   68.9372   50.7147   53.9523 C   0  0  0  0  0  0  0  0  0  0  0  0
   68.8427   49.3844   54.3635 C   0  0  0  0  0  0  0  0  0  0  0  0
   68.9165   48.3725   53.4873 N   0  0  0  0  0  0  0  0  0  0  0  0
   68.8275   47.0575   53.8675 C   0  0  0  0  0  0  0  0  0  0  0  0
   68.9033   46.1664   53.0098 O   0  0  0  0  0  0  0  0  0  0  0  0
   71.6955   36.8676   58.7089 C   0  0  0  0  0  0  0  0  0  0  0  0
   70.8750   37.9987   58.4038 N   0  0  0  0  0  0  0  0  0  0  0  0
   69.7217   37.9748   59.2928 C   0  0  0  0  0  0  0  0  0  0  0  0
   68.6825   38.9813   58.7878 C   0  0  0  0  0  0  0  0  0  0  0  0
   69.4505   40.2010   58.4841 N   0  0  0  0  0  0  0  0  0  0  0  0
   70.7259   40.2957   59.1044 C   0  0  0  0  0  0  0  0  0  0  0  0
   71.6283   39.2168   58.5264 C   0  0  0  0  0  0  0  0  0  0  0  0
 24 25  1  0
 25 26  1  0
 25 30  1  0
 26 27  1  0
 27 28  1  0
 28  1  1  0
 28 29  1  0
  1  2  2  0
  1  9  1  0
  2  3  1  0
  3  4  2  0
  4  5  1  0
  4  8  1  0
  5  6  1  0
  6 10  1  0
  6  7  2  0
 10 11  2  0
 10 22  1  0
 11 12  1  0
 11 13  1  0
 13 14  2  0
 13 20  1  0
 14 15  1  0
 14 16  1  0
 16 17  2  0
 17 18  1  0
 17 19  1  0
 19 20  2  0
 20 21  1  0
 21 22  1  0
 22 23  2  0
  7  8  1  0
  8  9  2  0
 29 30  1  0
M  CHG  2   7   1  25   1
M  END
>  <minimizedAffinity>  (709) 
-9.01917

$$$$
data/200k_reference_output/data/smiles/59433.pdb
     RDKit          3D

 25 27  0  0  0  0  0  0  0  0999 V2000
   71.1323   48.8555   58.5806 C   0  0  0  0  0  0  0  0  0  0  0  0
   70.3899   49.9773   58.8858 C   0  0  0  0  0  0  0  0  0  0  0  0
   69.1527   50.2114   58.2895 C   0  0  0  0  0  0  0  0  0  0  0  0
   68.6578   49.3068   57.3749 C   0  0  0  0  0  0  0  0  0  0  0  0
   69.3812   48.1616   57.0415 C   0  0  0  0  0  0  0  0  0  0  0  0
   70.6036   47.9772   57.6625 C   0  0  0  0  0  0  0  0  0  0  0  0
   68.8707   47.1967   56.0731 C   0  0  0  0  0  0  0  0  0  0  0  0
   68.2235   46.0587   56.3789 N   0  0  0  0  0  0  0  0  0  0  0  0
   67.8953   45.4089   55.2678 N   0  0  0  0  0  0  0  0  0  0  0  0
   68.3200   46.1029   54.1873 C   0  0  0  0  0  0  0  0  0  0  0  0
   68.2568   45.9069   52.8237 C   0  0  0  0  0  0  0  0  0  0  0  0
   68.8141   46.8509   51.9860 C   0  0  0  0  0  0  0  0  0  0  0  0
   69.4298   47.9819   52.5189 C   0  0  0  0  0  0  0  0  0  0  0  0
   69.4947   48.1798   53.8805 C   0  0  0  0  0  0  0  0  0  0  0  0
   68.9389   47.2385   54.7066 C   0  0  0  0  0  0  0  0  0  0  0  0
   70.0155   48.9730   51.6172 C   0  0  0  0  0  0  0  0  0  0  0  0
   69.7637   50.3613   51.7852 N   0  0  0  0  0  0  0  0  0  0  0  0
   70.7522   48.6204   50.6773 O   0  0  0  0  0  0  0  0  0  0  0  0
   72.5520   47.6879   60.2419 C   0  0  0  0  0  0  0  0  0  0  0  0
   71.4799   47.1413   60.6581 O   0  0  0  0  0  0  0  0  0  0  0  0
   72.3990   48.5774   59.1669 N   0  0  0  0  0  0  0  0  0  0  0  0
   73.7830   47.3152   60.9354 C   0  0  0  0  0  0  0  0  0  0  0  0
   74.3311   47.2052   63.2066 C   0  0  0  0  0  0  0  0  0  0  0  0
   74.1107   48.0769   62.0868 N   0  0  0  0  0  0  0  0  0  0  0  0
   75.1782   48.9950   61.8130 C   0  0  0  0  0  0  0  0  0  0  0  0
 23 24  1  0
 24 25  1  0
 24 22  1  0
 22 19  1  0
 19 20  2  0
 19 21  1  0
 21  1  1  0
  1  2  2  0
  1  6  1  0
  2  3  1  0
  3  4  2  0
  4  5  1  0
  5  7  1  0
  5  6  2  0
  7  8  2  0
  7 15  1  0
  8  9  1  0
  9 10  1  0
 10 11  1  0
 10 15  2  0
 11 12  2  0
 12 13  1  0
 13 16  1  0
 13 14  2  0
 16 17  1  0
 16 18  2  0
 14 15  1  0
M  CHG  1  24   1
M  END
>  <minimizedAffinity>  (710) 
-8.66075

$$$$
data/200k_reference_output/data/smiles/59518.pdb
     RDKit          3D

 28 30  0  0  0  0  0  0  0  0999 V2000
   67.2769   41.5504   56.8858 C   0  0  0  0  0  0  0  0  0  0  0  0
   68.1337   40.3512   56.5935 C   0  0  0  0  0  0  0  0  0  0  0  0
   68.3162   39.5104   57.8685 C   0  0  0  0  0  0  0  0  0  0  0  0
   68.9081   40.3832   58.8238 N   0  0  0  0  0  0  0  0  0  0  0  0
   68.0459   41.3971   59.3038 C   0  0  0  0  0  0  0  0  0  0  0  0
   66.9107   41.6246   58.3460 C   0  0  0  0  0  0  0  0  0  0  0  0
   67.4659   43.6371   55.3957 N   0  0  0  0  0  0  0  0  0  0  0  0
   67.9121   42.8093   56.4484 C   0  0  0  0  0  0  0  0  0  0  0  0
   68.9491   43.1935   57.0608 O   0  0  0  0  0  0  0  0  0  0  0  0
   67.0749   44.9587   53.0370 O   0  0  0  0  0  0  0  0  0  0  0  0
   67.9078   45.4719   53.8140 C   0  0  0  0  0  0  0  0  0  0  0  0
   68.1542   44.8292   55.0565 N   0  0  0  0  0  0  0  0  0  0  0  0
   68.5803   46.6930   53.4101 C   0  0  0  0  0  0  0  0  0  0  0  0
   69.0710   46.9071   52.1307 C   0  0  0  0  0  0  0  0  0  0  0  0
   69.7049   48.1223   51.8419 C   0  0  0  0  0  0  0  0  0  0  0  0
   69.8530   49.0886   52.7645 N   0  0  0  0  0  0  0  0  0  0  0  0
   69.3867   48.9045   54.0063 C   0  0  0  0  0  0  0  0  0  0  0  0
   68.7611   47.7117   54.3027 C   0  0  0  0  0  0  0  0  0  0  0  0
   69.8406   39.6068   60.0246 S   0  0  0  0  0  0  0  0  0  0  0  0
   70.8236   40.4941   60.6832 O   0  0  0  0  0  0  0  0  0  0  0  0
   68.9022   39.0682   61.0679 O   0  0  0  0  0  0  0  0  0  0  0  0
   70.6658   38.2333   59.3200 C   0  0  0  0  0  0  0  0  0  0  0  0
   70.4405   36.9734   59.8273 C   0  0  0  0  0  0  0  0  0  0  0  0
   71.0814   35.8827   59.2835 C   0  0  0  0  0  0  0  0  0  0  0  0
   71.9610   35.9870   58.2292 C   0  0  0  0  0  0  0  0  0  0  0  0
   72.7803   34.5982   57.5338 Cl  0  0  0  0  0  0  0  0  0  0  0  0
   72.1664   37.2676   57.7412 C   0  0  0  0  0  0  0  0  0  0  0  0
   71.5385   38.3715   58.2663 C   0  0  0  0  0  0  0  0  0  0  0  0
 10 11  2  0
 11 12  1  0
 11 13  1  0
 12  7  1  0
  7  8  1  0
  8  9  2  0
  8  1  1  0
  1  2  1  0
  1  6  1  0
  2  3  1  0
  3  4  1  0
  4 19  1  0
  4  5  1  0
 19 20  2  0
 19 21  2  0
 19 22  1  0
 22 23  2  0
 22 28  1  0
 23 24  1  0
 24 25  2  0
 25 26  1  0
 25 27  1  0
 27 28  2  0
  5  6  1  0
 13 14  2  0
 13 18  1  0
 14 15  1  0
 15 16  2  0
 16 17  1  0
 17 18  2  0
M  END
>  <minimizedAffinity>  (711) 
-8.80567

$$$$
data/200k_reference_output/data/smiles/59522.pdb
     RDKit          3D

 28 31  0  0  0  0  0  0  0  0999 V2000
   68.9209   47.9756   53.3171 C   0  0  0  0  0  0  0  0  0  0  0  0
   68.4871   46.9041   52.6109 C   0  0  0  0  0  0  0  0  0  0  0  0
   68.0870   45.7311   53.2514 C   0  0  0  0  0  0  0  0  0  0  0  0
   68.1460   45.6957   54.6203 C   0  0  0  0  0  0  0  0  0  0  0  0
   68.5908   46.7917   55.3381 C   0  0  0  0  0  0  0  0  0  0  0  0
   68.9807   47.9355   54.7145 C   0  0  0  0  0  0  0  0  0  0  0  0
   69.3435   49.2585   52.6717 C   0  0  0  0  0  0  0  0  0  0  0  0
   73.1393   51.8365   55.6244 O   0  0  0  0  0  0  0  0  0  0  0  0
   72.2119   51.2820   54.9504 C   0  0  0  0  0  0  0  0  0  0  0  0
   72.5251   50.2296   54.1922 N   0  0  0  0  0  0  0  0  0  0  0  0
   71.5894   49.6364   53.4860 N   0  0  0  0  0  0  0  0  0  0  0  0
   70.2849   50.0405   53.4800 C   0  0  0  0  0  0  0  0  0  0  0  0
   69.9449   51.1023   54.2369 C   0  0  0  0  0  0  0  0  0  0  0  0
   70.9310   51.7480   54.9980 C   0  0  0  0  0  0  0  0  0  0  0  0
   70.6247   52.9069   55.8476 C   0  0  0  0  0  0  0  0  0  0  0  0
   69.2038   53.0548   56.2564 C   0  0  0  0  0  0  0  0  0  0  0  0
   68.3555   51.9056   55.8276 C   0  0  0  0  0  0  0  0  0  0  0  0
   68.6113   51.6856   54.3281 C   0  0  0  0  0  0  0  0  0  0  0  0
   68.6377   46.6617   56.7329 N   0  0  0  0  0  0  0  0  0  0  0  0
   70.0345   46.5360   57.7144 S   0  0  0  0  0  0  0  0  0  0  0  0
   71.0531   45.6726   57.0125 O   0  0  0  0  0  0  0  0  0  0  0  0
   69.6887   45.9023   59.0515 O   0  0  0  0  0  0  0  0  0  0  0  0
   70.7177   48.1009   58.0165 C   0  0  0  0  0  0  0  0  0  0  0  0
   69.9493   49.2163   58.2596 C   0  0  0  0  0  0  0  0  0  0  0  0
   70.5029   50.4524   58.5289 C   0  0  0  0  0  0  0  0  0  0  0  0
   71.8734   50.5808   58.5568 C   0  0  0  0  0  0  0  0  0  0  0  0
   72.6319   49.4829   58.3174 N   0  0  0  0  0  0  0  0  0  0  0  0
   72.0945   48.2809   58.0554 C   0  0  0  0  0  0  0  0  0  0  0  0
  8  9  2  0
  9 10  1  0
  9 14  1  0
 10 11  1  0
 11 12  2  0
 12  7  1  0
 12 13  1  0
  7  1  1  0
  1  2  2  0
  1  6  1  0
  2  3  1  0
  3  4  2  0
  4  5  1  0
  5 19  1  0
  5  6  2  0
 19 20  1  0
 20 21  2  0
 20 22  2  0
 20 23  1  0
 23 24  2  0
 23 28  1  0
 24 25  1  0
 25 26  2  0
 26 27  1  0
 27 28  2  0
 13 14  2  0
 13 18  1  0
 14 15  1  0
 15 16  1  0
 16 17  1  0
 17 18  1  0
M  END
>  <minimizedAffinity>  (712) 
-8.65237

$$$$
data/200k_reference_output/data/smiles/59652.pdb
     RDKit          3D

 26 28  0  0  0  0  0  0  0  0999 V2000
   68.2652   42.1833   57.0129 C   0  0  0  0  0  0  0  0  0  0  0  0
   67.2398   42.0024   56.1388 N   0  0  0  0  0  0  0  0  0  0  0  0
   67.1439   43.0668   55.3604 N   0  0  0  0  0  0  0  0  0  0  0  0
   68.0590   43.9717   55.6611 N   0  0  0  0  0  0  0  0  0  0  0  0
   68.7628   43.4284   56.6898 C   0  0  0  0  0  0  0  0  0  0  0  0
   69.8461   44.0640   57.3268 N   0  0  0  0  0  0  0  0  0  0  0  0
   68.2775   45.2379   55.0553 C   0  0  0  0  0  0  0  0  0  0  0  0
   68.6365   46.3805   55.7355 C   0  0  0  0  0  0  0  0  0  0  0  0
   68.8422   47.5918   55.1228 C   0  0  0  0  0  0  0  0  0  0  0  0
   69.2295   48.8145   55.8754 C   0  0  0  0  0  0  0  0  0  0  0  0
   68.6848   47.6897   53.7451 C   0  0  0  0  0  0  0  0  0  0  0  0
   68.3284   46.5680   53.0408 C   0  0  0  0  0  0  0  0  0  0  0  0
   68.1632   46.6825   51.5772 C   0  0  0  0  0  0  0  0  0  0  0  0
   68.1289   45.3675   53.6809 C   0  0  0  0  0  0  0  0  0  0  0  0
   69.7160   40.2887   57.7923 N   0  0  0  0  0  0  0  0  0  0  0  0
   68.7327   41.2729   58.0507 C   0  0  0  0  0  0  0  0  0  0  0  0
   68.2502   41.3688   59.1933 O   0  0  0  0  0  0  0  0  0  0  0  0
   70.2744   39.3565   58.7153 C   0  0  0  0  0  0  0  0  0  0  0  0
   71.4804   38.5902   58.3214 C   0  0  0  0  0  0  0  0  0  0  0  0
   71.8136   32.9377   59.4139 C   0  0  0  0  0  0  0  0  0  0  0  0
   71.7193   34.3957   59.1404 C   0  0  0  0  0  0  0  0  0  0  0  0
   70.9640   35.2386   59.9239 C   0  0  0  0  0  0  0  0  0  0  0  0
   70.8693   36.5879   59.6804 C   0  0  0  0  0  0  0  0  0  0  0  0
   71.5564   37.1640   58.5995 C   0  0  0  0  0  0  0  0  0  0  0  0
   72.3183   36.2979   57.8144 C   0  0  0  0  0  0  0  0  0  0  0  0
   72.3968   34.9513   58.0788 C   0  0  0  0  0  0  0  0  0  0  0  0
 20 21  1  0
 21 22  2  0
 21 26  1  0
 22 23  1  0
 23 24  2  0
 24 19  1  0
 24 25  1  0
 19 18  1  0
 18 15  1  0
 15 16  1  0
 16 17  2  0
 16  1  1  0
  1  2  1  0
  1  5  2  0
  2  3  2  0
  3  4  1  0
  4  7  1  0
  4  5  1  0
  7  8  2  0
  7 14  1  0
  8  9  1  0
  9 10  1  0
  9 11  2  0
 11 12  1  0
 12 13  1  0
 12 14  2  0
  5  6  1  0
 25 26  2  0
M  END
>  <minimizedAffinity>  (713) 
-9.02414

$$$$
data/200k_reference_output/data/smiles/59668.pdb
     RDKit          3D

 24 26  0  0  0  0  0  0  0  0999 V2000
   69.3019   42.7017   57.2216 O   0  0  0  0  0  0  0  0  0  0  0  0
   68.1773   42.3058   56.8655 C   0  0  0  0  0  0  0  0  0  0  0  0
   67.6457   41.0998   57.3658 N   0  0  0  0  0  0  0  0  0  0  0  0
   67.4849   43.1475   55.9334 N   0  0  0  0  0  0  0  0  0  0  0  0
   68.0554   44.3394   55.4627 N   0  0  0  0  0  0  0  0  0  0  0  0
   67.7283   44.8731   54.3389 C   0  0  0  0  0  0  0  0  0  0  0  0
   68.3386   46.1260   53.8603 C   0  0  0  0  0  0  0  0  0  0  0  0
   68.3881   47.2352   54.6800 C   0  0  0  0  0  0  0  0  0  0  0  0
   68.9458   48.4358   54.2884 C   0  0  0  0  0  0  0  0  0  0  0  0
   69.4817   48.5526   53.0316 C   0  0  0  0  0  0  0  0  0  0  0  0
   69.4359   47.4420   52.2020 C   0  0  0  0  0  0  0  0  0  0  0  0
   68.8730   46.2462   52.6084 C   0  0  0  0  0  0  0  0  0  0  0  0
   70.0221   47.8355   51.0543 N   0  0  0  0  0  0  0  0  0  0  0  0
   70.3924   49.0740   51.1689 O   0  0  0  0  0  0  0  0  0  0  0  0
   70.0897   49.5475   52.3393 N   0  0  0  0  0  0  0  0  0  0  0  0
   70.3292   50.8235   52.8191 O   0  0  0  0  0  0  0  0  0  0  0  0
   68.2855   40.1822   58.2616 C   0  0  0  0  0  0  0  0  0  0  0  0
   67.6769   39.9683   59.5804 C   0  0  0  0  0  0  0  0  0  0  0  0
   66.5976   38.9970   59.7564 C   0  0  0  0  0  0  0  0  0  0  0  0
   66.6696   37.6995   59.3088 C   0  0  0  0  0  0  0  0  0  0  0  0
   65.6312   36.8368   59.4942 C   0  0  0  0  0  0  0  0  0  0  0  0
   64.4876   37.2661   60.1414 C   0  0  0  0  0  0  0  0  0  0  0  0
   64.3897   38.5588   60.5992 C   0  0  0  0  0  0  0  0  0  0  0  0
   65.4421   39.4033   60.4010 C   0  0  0  0  0  0  0  0  0  0  0  0
  1  2  2  0
  2  3  1  0
  2  4  1  0
  3 17  1  0
 17 18  1  0
 18 19  1  0
 19 20  2  0
 19 24  1  0
 20 21  1  0
 21 22  2  0
 22 23  1  0
 23 24  2  0
  4  5  1  0
  5  6  2  0
  6  7  1  0
  7  8  1  0
  7 12  2  0
  8  9  2  0
  9 10  1  0
 10 11  1  0
 10 15  2  0
 11 12  1  0
 11 13  2  0
 13 14  1  0
 14 15  1  0
 15 16  1  0
M  CHG  2  15   1  16  -1
M  END
>  <minimizedAffinity>  (714) 
-8.94564

$$$$
data/200k_reference_output/data/smiles/59695.pdb
     RDKit          3D

 26 28  0  0  0  0  0  0  0  0999 V2000
   69.3012   49.3236   57.3501 C   0  0  0  0  0  0  0  0  0  0  0  0
   69.1436   47.9004   57.1414 N   0  0  0  0  0  0  0  0  0  0  0  0
   70.0327   46.9947   57.6947 C   0  0  0  0  0  0  0  0  0  0  0  0
   69.7993   45.7541   57.4592 O   0  0  0  0  0  0  0  0  0  0  0  0
   71.1548   47.2674   58.4812 N   0  0  0  0  0  0  0  0  0  0  0  0
   71.8184   48.3991   58.9806 C   0  0  0  0  0  0  0  0  0  0  0  0
   72.0525   49.5499   58.6002 O   0  0  0  0  0  0  0  0  0  0  0  0
   72.1269   47.5860   60.2027 C   0  0  0  0  0  0  0  0  0  0  0  0
   72.1970   46.4767   59.1638 C   0  0  2  0  0  0  0  0  0  0  0  0
   67.9992   47.5076   56.3212 C   0  0  0  0  0  0  0  0  0  0  0  0
   68.3358   47.2474   54.9218 C   0  0  0  0  0  0  0  0  0  0  0  0
   67.7599   46.2024   54.2498 C   0  0  0  0  0  0  0  0  0  0  0  0
   68.0691   45.9371   52.9099 C   0  0  0  0  0  0  0  0  0  0  0  0
   68.9855   46.7631   52.2556 C   0  0  0  0  0  0  0  0  0  0  0  0
   69.5681   47.8146   52.9235 C   0  0  0  0  0  0  0  0  0  0  0  0
   69.2324   48.0461   54.2619 C   0  0  0  0  0  0  0  0  0  0  0  0
   70.4953   48.6378   52.2334 N   0  0  0  0  0  0  0  0  0  0  0  0
   70.3935   48.9155   51.0432 O   0  0  0  0  0  0  0  0  0  0  0  0
   71.5853   49.1700   52.9145 O   0  0  0  0  0  0  0  0  0  0  0  0
   73.4880   46.4187   58.3799 C   0  0  0  0  0  0  0  0  0  0  0  0
   73.8361   44.9733   58.2410 C   0  0  0  0  0  0  0  0  0  0  0  0
   75.0778   44.4939   58.6018 C   0  0  0  0  0  0  0  0  0  0  0  0
   75.4126   43.1549   58.4780 C   0  0  0  0  0  0  0  0  0  0  0  0
   74.5077   42.2394   57.9852 C   0  0  0  0  0  0  0  0  0  0  0  0
   73.2643   42.7107   57.6227 C   0  0  0  0  0  0  0  0  0  0  0  0
   72.9262   44.0586   57.7473 C   0  0  0  0  0  0  0  0  0  0  0  0
  1  2  1  0
  2 10  1  0
  2  3  1  0
 10 11  1  0
 11 12  2  0
 11 16  1  0
 12 13  1  0
 13 14  2  0
 14 15  1  0
 15 17  1  0
 15 16  2  0
 17 18  2  0
 17 19  1  0
  3  4  2  0
  3  5  1  0
  5  6  1  0
  5  9  1  0
  6  7  2  0
  6  8  1  0
  8  9  1  0
  9 20  1  6
 20 21  1  0
 21 22  2  0
 21 26  1  0
 22 23  1  0
 23 24  2  0
 24 25  1  0
 25 26  2  0
M  CHG  2  17   1  19  -1
M  END
>  <minimizedAffinity>  (715) 
-8.54633

$$$$
data/200k_reference_output/data/smiles/59935.pdb
     RDKit          3D

 29 32  0  0  0  0  0  0  0  0999 V2000
   70.7024   45.8043   58.5382 C   0  0  0  0  0  0  0  0  0  0  0  0
   71.5556   46.6326   59.2874 C   0  0  0  0  0  0  0  0  0  0  0  0
   71.3420   48.2308   58.5164 S   0  0  0  0  0  0  0  0  0  0  0  0
   70.1663   47.7093   57.2847 C   0  0  0  0  0  0  0  0  0  0  0  0
   70.0286   46.3765   57.5514 C   0  0  0  0  0  0  0  0  0  0  0  0
   74.4240   42.7429   60.8053 C   0  0  0  0  0  0  0  0  0  0  0  0
   75.1833   43.6976   61.1280 O   0  0  0  0  0  0  0  0  0  0  0  0
   73.8299   42.6354   59.5282 N   0  0  0  0  0  0  0  0  0  0  0  0
   74.0651   43.6277   58.4995 C   0  0  0  0  0  0  0  0  0  0  0  0
   72.7991   43.9321   57.7260 C   0  0  0  0  0  0  0  0  0  0  0  0
   71.6596   43.4668   58.4960 N   0  0  0  0  0  0  0  0  0  0  0  0
   70.6225   44.3325   58.9103 C   0  0  0  0  0  0  0  0  0  0  0  0
   69.6373   43.9613   59.5684 O   0  0  0  0  0  0  0  0  0  0  0  0
   71.6203   42.0707   58.8295 C   0  0  0  0  0  0  0  0  0  0  0  0
   72.9714   41.5169   59.2337 C   0  0  0  0  0  0  0  0  0  0  0  0
   73.5051   42.2849   63.0429 C   0  0  0  0  0  0  0  0  0  0  0  0
   74.1259   41.6691   61.8047 C   0  0  0  0  0  0  0  0  0  0  0  0
   69.6034   48.5352   56.2699 C   0  0  0  0  0  0  0  0  0  0  0  0
   69.7333   48.4075   54.8453 C   0  0  0  0  0  0  0  0  0  0  0  0
   70.6705   49.2573   54.2581 N   0  0  0  0  0  0  0  0  0  0  0  0
   70.9268   49.2998   52.9942 N   0  0  0  0  0  0  0  0  0  0  0  0
   70.3145   48.5230   52.0888 C   0  0  0  0  0  0  0  0  0  0  0  0
   70.6095   48.6152   50.8824 O   0  0  0  0  0  0  0  0  0  0  0  0
   69.3741   47.6553   52.5977 C   0  0  0  0  0  0  0  0  0  0  0  0
   68.7115   46.8280   51.7079 C   0  0  0  0  0  0  0  0  0  0  0  0
   67.7659   45.9459   52.1691 C   0  0  0  0  0  0  0  0  0  0  0  0
   67.4738   45.8796   53.5131 C   0  0  0  0  0  0  0  0  0  0  0  0
   68.1302   46.7051   54.4311 C   0  0  0  0  0  0  0  0  0  0  0  0
   69.0734   47.5863   53.9758 C   0  0  0  0  0  0  0  0  0  0  0  0
 16 17  1  0
 17  6  1  0
  6  7  2  0
  6  8  1  0
  8  9  1  0
  8 15  1  0
  9 10  1  0
 10 11  1  0
 11 12  1  0
 11 14  1  0
 12 13  2  0
 12  1  1  0
  1  2  2  0
  1  5  1  0
  2  3  1  0
  3  4  1  0
  4 18  1  0
  4  5  2  0
 18 19  1  0
 19 20  2  0
 19 29  1  0
 20 21  1  0
 21 22  1  0
 22 23  2  0
 22 24  1  0
 24 25  1  0
 24 29  2  0
 25 26  2  0
 26 27  1  0
 27 28  2  0
 28 29  1  0
 14 15  1  0
M  END
>  <minimizedAffinity>  (716) 
-8.52229

$$$$
data/200k_reference_output/data/smiles/60067.pdb
     RDKit          3D

 30 33  0  0  0  0  0  0  0  0999 V2000
   72.8616   35.3546   55.0022 C   0  0  0  0  0  0  0  0  0  0  0  0
   73.9099   35.3057   54.2059 C   0  0  0  0  0  0  0  0  0  0  0  0
   75.1139   35.4261   54.7901 N   0  0  0  0  0  0  0  0  0  0  0  0
   76.2049   35.3876   54.0043 C   0  0  0  0  0  0  0  0  0  0  0  0
   77.3354   35.4938   54.5077 O   0  0  0  0  0  0  0  0  0  0  0  0
   76.1076   35.2273   52.6246 C   0  0  0  0  0  0  0  0  0  0  0  0
   77.1780   35.1941   51.8519 C   0  0  0  0  0  0  0  0  0  0  0  0
   74.9102   35.1098   52.0689 N   0  0  0  0  0  0  0  0  0  0  0  0
   73.8039   35.1460   52.8323 C   0  0  0  0  0  0  0  0  0  0  0  0
   72.6594   35.0382   52.3423 O   0  0  0  0  0  0  0  0  0  0  0  0
   72.3568   37.0195   58.2711 C   0  0  0  0  0  0  0  0  0  0  0  0
   72.9306   36.1351   59.1381 C   0  0  0  0  0  0  0  0  0  0  0  0
   73.4899   34.9714   58.6468 C   0  0  0  0  0  0  0  0  0  0  0  0
   73.5023   34.6467   57.3048 C   0  0  0  0  0  0  0  0  0  0  0  0
   72.9309   35.5279   56.4464 C   0  0  0  0  0  0  0  0  0  0  0  0
   72.3629   36.7065   56.9386 C   0  0  0  0  0  0  0  0  0  0  0  0
   72.3885   39.3104   58.8370 O   0  0  0  0  0  0  0  0  0  0  0  0
   71.7153   38.2770   58.6826 C   0  0  0  0  0  0  0  0  0  0  0  0
   70.2794   38.3381   58.9169 C   0  0  0  0  0  0  0  0  0  0  0  0
   69.4692   39.0928   58.1098 C   0  0  0  0  0  0  0  0  0  0  0  0
   68.0872   39.1540   58.2748 C   0  0  0  0  0  0  0  0  0  0  0  0
   67.5028   38.4325   59.2878 C   0  0  0  0  0  0  0  0  0  0  0  0
   68.2663   37.6665   60.1201 C   0  0  0  0  0  0  0  0  0  0  0  0
   69.6434   37.6275   59.9260 C   0  0  0  0  0  0  0  0  0  0  0  0
   77.1271   35.0307   50.3980 C   0  0  0  0  0  0  0  0  0  0  0  0
   76.3338   34.1161   49.7698 C   0  0  0  0  0  0  0  0  0  0  0  0
   76.3643   34.0575   48.3846 C   0  0  0  0  0  0  0  0  0  0  0  0
   77.1657   34.8852   47.6270 C   0  0  0  0  0  0  0  0  0  0  0  0
   77.9733   35.8151   48.2605 C   0  0  0  0  0  0  0  0  0  0  0  0
   77.9311   35.8618   49.6366 C   0  0  0  0  0  0  0  0  0  0  0  0
 17 18  2  0
 18 19  1  0
 18 11  1  0
 19 20  2  0
 19 24  1  0
 20 21  1  0
 21 22  2  0
 22 23  1  0
 23 24  2  0
 11 12  2  0
 11 16  1  0
 12 13  1  0
 13 14  2  0
 14 15  1  0
 15  1  1  0
 15 16  2  0
  1  2  2  0
  2  3  1  0
  2  9  1  0
  3  4  1  0
  4  5  2  0
  4  6  1  0
  6  7  2  0
  6  8  1  0
  7 25  1  0
 25 26  2  0
 25 30  1  0
 26 27  1  0
 27 28  2  0
 28 29  1  0
 29 30  2  0
  8  9  1  0
  9 10  2  0
M  END
>  <minimizedAffinity>  (717) 
-9.71764

$$$$
data/200k_reference_output/data/smiles/60376.pdb
     RDKit          3D

 25 27  0  0  0  0  0  0  0  0999 V2000
   66.3852   42.0274   55.7711 C   0  0  0  0  0  0  0  0  0  0  0  0
   67.7493   42.4194   56.1922 C   0  0  0  0  0  0  0  0  0  0  0  0
   68.1849   43.5717   55.8510 N   0  0  0  0  0  0  0  0  0  0  0  0
   68.5218   41.4625   56.9768 C   0  0  0  0  0  0  0  0  0  0  0  0
   68.0613   40.1736   57.2097 C   0  0  0  0  0  0  0  0  0  0  0  0
   68.7873   39.2640   57.9464 C   0  0  0  0  0  0  0  0  0  0  0  0
   70.0296   39.5789   58.5057 C   0  0  0  0  0  0  0  0  0  0  0  0
   70.4744   40.8648   58.2660 C   0  0  0  0  0  0  0  0  0  0  0  0
   69.7449   41.7746   57.5262 C   0  0  0  0  0  0  0  0  0  0  0  0
   70.7640   38.6391   59.2593 N   0  0  0  0  0  0  0  0  0  0  0  0
   70.2690   37.6286   60.1606 C   0  0  0  0  0  0  0  0  0  0  0  0
   71.0767   36.4096   59.6895 C   0  0  0  0  0  0  0  0  0  0  0  0
   72.2992   36.9692   58.9920 C   0  0  0  0  0  0  0  0  0  0  0  0
   72.1954   38.4728   59.2965 C   0  0  0  0  0  0  0  0  0  0  0  0
   67.4692   44.5181   55.0969 N   0  0  0  0  0  0  0  0  0  0  0  0
   68.0818   45.6795   54.5729 C   0  0  0  0  0  0  0  0  0  0  0  0
   68.1147   45.8750   53.2154 C   0  0  0  0  0  0  0  0  0  0  0  0
   68.6966   46.9918   52.6572 C   0  0  0  0  0  0  0  0  0  0  0  0
   69.2689   47.9560   53.4630 C   0  0  0  0  0  0  0  0  0  0  0  0
   69.2353   47.7601   54.8249 C   0  0  0  0  0  0  0  0  0  0  0  0
   68.6533   46.6413   55.3751 C   0  0  0  0  0  0  0  0  0  0  0  0
   70.0268   49.4037   52.8299 S   0  0  0  0  0  0  0  0  0  0  0  0
   69.9061   49.4208   51.1024 N   0  0  0  0  0  0  0  0  0  0  0  0
   69.3616   50.6450   53.3467 O   0  0  0  0  0  0  0  0  0  0  0  0
   71.4942   49.4173   53.2140 O   0  0  0  0  0  0  0  0  0  0  0  0
  1  2  1  0
  2  3  2  0
  2  4  1  0
  3 15  1  0
 15 16  1  0
 16 17  2  0
 16 21  1  0
 17 18  1  0
 18 19  2  0
 19 22  1  0
 19 20  1  0
 22 23  1  0
 22 24  2  0
 22 25  2  0
 20 21  2  0
  4  5  2  0
  4  9  1  0
  5  6  1  0
  6  7  2  0
  7 10  1  0
  7  8  1  0
 10 11  1  0
 10 14  1  0
 11 12  1  0
 12 13  1  0
 13 14  1  0
  8  9  2  0
M  END
>  <minimizedAffinity>  (718) 
-9.04958

$$$$
data/200k_reference_output/data/smiles/60397.pdb
     RDKit          3D

 28 32  0  0  0  0  0  0  0  0999 V2000
   72.0987   42.6314   56.9875 O   0  0  0  0  0  0  0  0  0  0  0  0
   71.4402   41.8302   57.7625 C   0  0  0  0  0  0  0  0  0  0  0  0
   70.0714   42.0802   57.8157 N   0  0  0  0  0  0  0  0  0  0  0  0
   72.1793   40.7927   58.4687 C   0  0  0  0  0  0  0  0  0  0  0  0
   73.4782   40.9776   58.9028 N   0  0  0  0  0  0  0  0  0  0  0  0
   73.9174   39.9059   59.5018 N   0  0  0  0  0  0  0  0  0  0  0  0
   72.9436   38.9485   59.5037 C   0  0  0  0  0  0  0  0  0  0  0  0
   71.8776   39.5073   58.8629 C   0  0  0  0  0  0  0  0  0  0  0  0
   70.6255   38.7608   58.6602 C   0  0  0  0  0  0  0  0  0  0  0  0
   70.6585   37.3090   59.0203 C   0  0  0  0  0  0  0  0  0  0  0  0
   72.0491   36.7503   59.1384 C   0  0  2  0  0  0  0  0  0  0  0  0
   72.7454   36.6246   57.8001 C   0  0  0  0  0  0  0  0  0  0  0  0
   73.6436   35.4230   58.0474 C   0  0  0  0  0  0  0  0  0  0  0  0
   73.3110   34.8986   59.2647 O   0  0  0  0  0  0  0  0  0  0  0  0
   71.9999   35.2915   59.5382 C   0  0  0  0  0  0  0  0  0  0  0  0
   72.9090   37.5695   60.0437 C   0  0  0  0  0  0  0  0  0  0  0  0
   69.4015   43.1128   57.0974 C   0  0  0  0  0  0  0  0  0  0  0  0
   68.2322   42.9355   56.3888 C   0  0  0  0  0  0  0  0  0  0  0  0
   67.8975   44.1229   55.8454 N   0  0  0  0  0  0  0  0  0  0  0  0
   68.7781   45.0435   56.1613 N   0  0  0  0  0  0  0  0  0  0  0  0
   69.7083   44.4315   56.9327 C   0  0  0  0  0  0  0  0  0  0  0  0
   68.7345   46.4248   55.7527 C   0  0  0  0  0  0  0  0  0  0  0  0
   68.6403   46.5849   54.2806 C   0  0  0  0  0  0  0  0  0  0  0  0
   69.3418   47.5835   53.6489 C   0  0  0  0  0  0  0  0  0  0  0  0
   69.2830   47.7695   52.2788 C   0  0  0  0  0  0  0  0  0  0  0  0
   68.4983   46.9307   51.5200 C   0  0  0  0  0  0  0  0  0  0  0  0
   67.7887   45.9239   52.1462 C   0  0  0  0  0  0  0  0  0  0  0  0
   67.8596   45.7525   53.5185 C   0  0  0  0  0  0  0  0  0  0  0  0
  1  2  2  0
  2  3  1  0
  2  4  1  0
  3 17  1  0
 17 18  1  0
 17 21  2  0
 18 19  2  0
 19 20  1  0
 20 22  1  0
 20 21  1  0
 22 23  1  0
 23 24  2  0
 23 28  1  0
 24 25  1  0
 25 26  2  0
 26 27  1  0
 27 28  2  0
  4  5  2  0
  4  8  1  0
  5  6  1  0
  6  7  1  0
  7  8  2  0
  7 16  1  0
  8  9  1  0
  9 10  1  0
 11 10  1  6
 11 12  1  0
 11 15  1  0
 11 16  1  0
 12 13  1  0
 13 14  1  0
 14 15  1  0
M  END
>  <minimizedAffinity>  (719) 
-8.69504

$$$$
data/200k_reference_output/data/smiles/60472.pdb
     RDKit          3D

 27 28  0  0  0  0  0  0  0  0999 V2000
   68.2093   42.7930   56.6014 C   0  0  0  0  0  0  0  0  0  0  0  0
   68.8475   43.1484   57.6185 O   0  0  0  0  0  0  0  0  0  0  0  0
   67.8910   43.8070   55.6612 N   0  0  0  0  0  0  0  0  0  0  0  0
   68.2486   45.1543   55.8150 N   0  0  0  0  0  0  0  0  0  0  0  0
   68.2852   46.0330   54.6986 C   0  0  0  0  0  0  0  0  0  0  0  0
   67.9739   45.4999   53.5870 O   0  0  0  0  0  0  0  0  0  0  0  0
   68.6459   47.4354   54.7856 C   0  0  0  0  0  0  0  0  0  0  0  0
   68.6764   48.0328   56.0268 C   0  0  0  0  0  0  0  0  0  0  0  0
   69.0141   49.3757   56.1791 C   0  0  0  0  0  0  0  0  0  0  0  0
   69.3327   50.1567   55.0902 C   0  0  0  0  0  0  0  0  0  0  0  0
   69.3039   49.5629   53.8472 C   0  0  0  0  0  0  0  0  0  0  0  0
   68.9643   48.2241   53.7103 C   0  0  0  0  0  0  0  0  0  0  0  0
   69.6974   51.5964   55.2257 C   0  0  0  0  0  0  0  0  0  0  0  0
   68.7169   52.4838   54.4955 C   0  0  0  0  0  0  0  0  0  0  0  0
   69.6878   51.9649   56.6741 C   0  0  0  0  0  0  0  0  0  0  0  0
   71.0675   51.8644   54.6489 C   0  0  0  0  0  0  0  0  0  0  0  0
   67.8365   41.3699   56.4484 C   0  0  0  0  0  0  0  0  0  0  0  0
   67.7281   40.7635   57.8001 C   0  0  0  0  0  0  0  0  0  0  0  0
   69.7520   39.4274   58.3580 N   0  0  0  0  0  0  0  0  0  0  0  0
   68.3912   39.4740   57.9648 C   0  0  0  0  0  0  0  0  0  0  0  0
   67.7575   38.4122   57.7577 O   0  0  0  0  0  0  0  0  0  0  0  0
   72.9961   35.6076   57.9336 C   0  0  0  0  0  0  0  0  0  0  0  0
   71.8759   36.4917   58.3844 C   0  0  0  0  0  0  0  0  0  0  0  0
   71.5425   37.7171   57.8456 C   0  0  0  0  0  0  0  0  0  0  0  0
   70.4606   38.2054   58.5365 C   0  0  0  0  0  0  0  0  0  0  0  0
   70.1731   37.2780   59.4622 N   0  0  0  0  0  0  0  0  0  0  0  0
   71.0188   36.2862   59.3486 O   0  0  0  0  0  0  0  0  0  0  0  0
 22 23  1  0
 23 24  2  0
 23 27  1  0
 24 25  1  0
 25 19  1  0
 25 26  2  0
 19 20  1  0
 20 21  2  0
 20 18  1  0
 18 17  1  0
 17  1  1  0
  1  2  2  0
  1  3  1  0
  3  4  1  0
  4  5  1  0
  5  6  2  0
  5  7  1  0
  7  8  2  0
  7 12  1  0
  8  9  1  0
  9 10  2  0
 10 13  1  0
 10 11  1  0
 13 14  1  0
 13 15  1  0
 13 16  1  0
 11 12  2  0
 26 27  1  0
M  END
>  <minimizedAffinity>  (720) 
-8.55085

$$$$
data/200k_reference_output/data/smiles/60499.pdb
     RDKit          3D

 20 21  0  0  0  0  0  0  0  0999 V2000
   68.2319   46.5571   56.4018 O   0  0  0  0  0  0  0  0  0  0  0  0
   68.4029   46.1549   55.2342 C   0  0  0  0  0  0  0  0  0  0  0  0
   68.1738   44.7558   55.0146 N   0  0  0  0  0  0  0  0  0  0  0  0
   68.8071   47.0507   54.1854 C   0  0  0  0  0  0  0  0  0  0  0  0
   68.7388   46.5910   52.8898 C   0  0  0  0  0  0  0  0  0  0  0  0
   69.1323   47.3703   51.8272 C   0  0  0  0  0  0  0  0  0  0  0  0
   69.6116   48.6530   52.0401 C   0  0  0  0  0  0  0  0  0  0  0  0
   70.0204   49.4568   50.9862 O   0  0  0  0  0  0  0  0  0  0  0  0
   69.6692   49.0932   53.3382 C   0  0  0  0  0  0  0  0  0  0  0  0
   69.2777   48.3188   54.4102 C   0  0  0  0  0  0  0  0  0  0  0  0
   67.7905   43.8806   55.9179 N   0  0  0  0  0  0  0  0  0  0  0  0
   67.9449   42.8788   56.4931 C   0  0  0  0  0  0  0  0  0  0  0  0
   68.1306   41.6659   57.1894 C   0  0  0  0  0  0  0  0  0  0  0  0
   68.4545   41.8113   58.5817 C   0  0  0  0  0  0  0  0  0  0  0  0
   68.6509   40.7355   59.3982 C   0  0  0  0  0  0  0  0  0  0  0  0
   68.5501   39.4415   58.9336 C   0  0  0  0  0  0  0  0  0  0  0  0
   68.7505   38.3647   59.7763 O   0  0  0  0  0  0  0  0  0  0  0  0
   68.2410   39.2936   57.6082 C   0  0  0  0  0  0  0  0  0  0  0  0
   68.0371   40.3763   56.7632 C   0  0  0  0  0  0  0  0  0  0  0  0
   67.7231   40.1285   55.4185 O   0  0  0  0  0  0  0  0  0  0  0  0
  1  2  2  0
  2  3  1  0
  2  4  1  0
  3 11  1  0
 11 12  2  3
 12 13  1  0
 13 14  2  0
 13 19  1  0
 14 15  1  0
 15 16  2  0
 16 17  1  0
 16 18  1  0
 18 19  2  0
 19 20  1  0
  4  5  2  0
  4 10  1  0
  5  6  1  0
  6  7  2  0
  7  8  1  0
  7  9  1  0
  9 10  2  0
M  END
>  <minimizedAffinity>  (721) 
-8.70864

$$$$
data/200k_reference_output/data/smiles/60537.pdb
     RDKit          3D

 25 27  0  0  0  0  0  0  0  0999 V2000
   70.6344   43.9191   58.3533 O   0  0  0  0  0  0  0  0  0  0  0  0
   69.6722   43.7205   57.5547 C   0  0  0  0  0  0  0  0  0  0  0  0
   69.1831   44.8657   56.8735 N   0  0  0  0  0  0  0  0  0  0  0  0
   69.1431   42.3759   57.3909 C   0  0  0  0  0  0  0  0  0  0  0  0
   68.0235   42.1896   56.5979 C   0  0  0  0  0  0  0  0  0  0  0  0
   67.5045   40.9056   56.4313 C   0  0  0  0  0  0  0  0  0  0  0  0
   68.0958   39.8378   57.0468 C   0  0  0  0  0  0  0  0  0  0  0  0
   69.2049   39.9879   57.8385 C   0  0  0  0  0  0  0  0  0  0  0  0
   69.7055   41.2714   57.9904 C   0  0  0  0  0  0  0  0  0  0  0  0
   69.8826   38.8914   58.5182 C   0  0  0  0  0  0  0  0  0  0  0  0
   71.2136   38.5767   58.2543 C   0  0  0  0  0  0  0  0  0  0  0  0
   71.7720   37.5570   58.9162 N   0  0  0  0  0  0  0  0  0  0  0  0
   71.1373   36.8095   59.8232 C   0  0  0  0  0  0  0  0  0  0  0  0
   69.8595   37.0868   60.0973 N   0  0  0  0  0  0  0  0  0  0  0  0
   69.2568   38.1010   59.4583 C   0  0  0  0  0  0  0  0  0  0  0  0
   69.7294   46.1442   57.0658 N   0  0  0  0  0  0  0  0  0  0  0  0
   68.8141   47.3546   56.2536 S   0  0  0  0  0  0  0  0  0  0  0  0
   69.4686   48.6759   56.4828 O   0  0  0  0  0  0  0  0  0  0  0  0
   67.4210   47.4372   56.8287 O   0  0  0  0  0  0  0  0  0  0  0  0
   68.6795   47.0661   54.5529 C   0  0  0  0  0  0  0  0  0  0  0  0
   69.3285   47.9282   53.6955 C   0  0  0  0  0  0  0  0  0  0  0  0
   69.2814   47.7829   52.3351 C   0  0  0  0  0  0  0  0  0  0  0  0
   68.5688   46.7484   51.7565 C   0  0  0  0  0  0  0  0  0  0  0  0
   67.9153   45.8776   52.6080 C   0  0  0  0  0  0  0  0  0  0  0  0
   67.9664   46.0291   53.9796 C   0  0  0  0  0  0  0  0  0  0  0  0
  1  2  2  0
  2  3  1  0
  2  4  1  0
  3 16  1  0
 16 17  1  0
 17 18  2  0
 17 19  2  0
 17 20  1  0
 20 21  2  0
 20 25  1  0
 21 22  1  0
 22 23  2  0
 23 24  1  0
 24 25  2  0
  4  5  2  0
  4  9  1  0
  5  6  1  0
  6  7  2  0
  7  8  1  0
  8 10  1  0
  8  9  2  0
 10 11  2  0
 10 15  1  0
 11 12  1  0
 12 13  2  0
 13 14  1  0
 14 15  2  0
M  END
>  <minimizedAffinity>  (722) 
-8.62325

$$$$
data/200k_reference_output/data/smiles/60579.pdb
     RDKit          3D

 30 32  0  0  0  0  0  0  0  0999 V2000
   68.6144   43.2040   57.0184 N   0  0  0  0  0  0  0  0  0  0  0  0
   69.5006   42.4046   57.7719 C   0  0  0  0  0  0  0  0  0  0  0  0
   70.6407   42.8768   58.0113 O   0  0  0  0  0  0  0  0  0  0  0  0
   69.1616   41.0771   58.2778 C   0  0  0  0  0  0  0  0  0  0  0  0
   70.0180   40.0431   58.2495 N   0  0  0  0  0  0  0  0  0  0  0  0
   69.7340   38.8287   58.7023 N   0  0  0  0  0  0  0  0  0  0  0  0
   68.5142   38.5855   59.2327 C   0  0  0  0  0  0  0  0  0  0  0  0
   67.5787   39.5889   59.2995 C   0  0  0  0  0  0  0  0  0  0  0  0
   67.9165   40.8332   58.8174 C   0  0  0  0  0  0  0  0  0  0  0  0
   67.0757   41.7944   58.8613 O   0  0  0  0  0  0  0  0  0  0  0  0
   70.6379   37.7529   58.6669 C   0  0  0  0  0  0  0  0  0  0  0  0
   71.6756   37.7507   57.7748 C   0  0  0  0  0  0  0  0  0  0  0  0
   72.5807   36.6774   57.7369 C   0  0  0  0  0  0  0  0  0  0  0  0
   72.4382   35.6082   58.5980 C   0  0  0  0  0  0  0  0  0  0  0  0
   73.3281   34.5676   58.5507 F   0  0  0  0  0  0  0  0  0  0  0  0
   71.3965   35.6217   59.4861 C   0  0  0  0  0  0  0  0  0  0  0  0
   70.4925   36.6960   59.5224 C   0  0  0  0  0  0  0  0  0  0  0  0
   67.4926   44.2675   54.7835 O   0  0  0  0  0  0  0  0  0  0  0  0
   68.3353   45.0071   55.3654 C   0  0  0  0  0  0  0  0  0  0  0  0
   68.9352   44.4791   56.5310 N   0  0  0  0  0  0  0  0  0  0  0  0
   68.6425   46.3417   54.8173 C   0  0  0  0  0  0  0  0  0  0  0  0
   68.6460   46.5870   53.4631 C   0  0  0  0  0  0  0  0  0  0  0  0
   68.9447   47.8704   52.9939 C   0  0  0  0  0  0  0  0  0  0  0  0
   69.2384   48.9164   53.8379 C   0  0  0  0  0  0  0  0  0  0  0  0
   69.2320   48.6604   55.1913 C   0  0  0  0  0  0  0  0  0  0  0  0
   68.9381   47.3964   55.6551 C   0  0  0  0  0  0  0  0  0  0  0  0
   69.5460   50.2554   53.2656 C   0  0  0  0  0  0  0  0  0  0  0  0
   69.5846   50.2073   51.8864 F   0  0  0  0  0  0  0  0  0  0  0  0
   68.5260   51.1036   53.6849 F   0  0  0  0  0  0  0  0  0  0  0  0
   70.7194   50.7490   53.7494 F   0  0  0  0  0  0  0  0  0  0  0  0
 18 19  2  0
 19 20  1  0
 19 21  1  0
 20  1  1  0
  1  2  1  0
  2  3  2  0
  2  4  1  0
  4  5  2  0
  4  9  1  0
  5  6  1  0
  6 11  1  0
  6  7  1  0
 11 12  2  0
 11 17  1  0
 12 13  1  0
 13 14  2  0
 14 15  1  0
 14 16  1  0
 16 17  2  0
  7  8  2  0
  8  9  1  0
  9 10  2  0
 21 22  2  0
 21 26  1  0
 22 23  1  0
 23 24  2  0
 24 27  1  0
 24 25  1  0
 27 28  1  0
 27 29  1  0
 27 30  1  0
 25 26  2  0
M  END
>  <minimizedAffinity>  (723) 
-8.85107

$$$$
data/200k_reference_output/data/smiles/60729.pdb
     RDKit          3D

 29 32  0  0  0  0  0  0  0  0999 V2000
   71.2624   49.3622   58.3790 N   0  0  0  0  0  0  0  0  0  0  0  0
   71.7444   49.3654   57.0179 C   0  0  0  0  0  0  0  0  0  0  0  0
   70.8297   50.0842   56.0830 C   0  0  0  0  0  0  0  0  0  0  0  0
   69.4057   49.7674   56.1372 C   0  0  0  0  0  0  0  0  0  0  0  0
   69.0152   49.9965   57.6243 C   0  0  0  0  0  0  0  0  0  0  0  0
   70.2082   50.3488   58.4732 C   0  0  0  0  0  0  0  0  0  0  0  0
   68.8717   48.5233   55.6998 N   0  0  0  0  0  0  0  0  0  0  0  0
   68.1864   47.6768   56.5610 C   0  0  0  0  0  0  0  0  0  0  0  0
   67.9850   47.9504   57.7783 O   0  0  0  0  0  0  0  0  0  0  0  0
   67.8365   46.6235   55.8572 N   0  0  0  0  0  0  0  0  0  0  0  0
   68.2542   46.7374   54.5848 C   0  0  0  0  0  0  0  0  0  0  0  0
   68.1085   45.8780   53.4922 C   0  0  0  0  0  0  0  0  0  0  0  0
   68.6429   46.2692   52.2845 C   0  0  0  0  0  0  0  0  0  0  0  0
   69.2998   47.4723   52.1701 C   0  0  0  0  0  0  0  0  0  0  0  0
   69.4427   48.3156   53.2453 C   0  0  0  0  0  0  0  0  0  0  0  0
   68.9114   47.9530   54.4986 C   0  0  0  0  0  0  0  0  0  0  0  0
   70.8072   48.0645   58.8047 C   0  0  0  0  0  0  0  0  0  0  0  0
   71.9597   47.1946   59.2197 C   0  0  0  0  0  0  0  0  0  0  0  0
   69.7919   45.3697   58.7846 O   0  0  0  0  0  0  0  0  0  0  0  0
   70.9267   45.0738   58.3019 C   0  0  0  0  0  0  0  0  0  0  0  0
   72.0342   45.9475   58.4900 N   0  0  0  0  0  0  0  0  0  0  0  0
   71.0471   43.8564   57.5788 N   0  0  0  0  0  0  0  0  0  0  0  0
   69.9290   43.0049   57.4079 C   0  0  0  0  0  0  0  0  0  0  0  0
   69.8016   41.8159   58.0994 C   0  0  0  0  0  0  0  0  0  0  0  0
   68.7249   40.9802   57.9484 C   0  0  0  0  0  0  0  0  0  0  0  0
   67.7049   41.2952   57.0850 C   0  0  0  0  0  0  0  0  0  0  0  0
   67.8196   42.4843   56.3862 C   0  0  0  0  0  0  0  0  0  0  0  0
   66.8303   42.8331   55.5212 F   0  0  0  0  0  0  0  0  0  0  0  0
   68.8944   43.3293   56.5285 C   0  0  0  0  0  0  0  0  0  0  0  0
 19 20  2  0
 20 21  1  0
 20 22  1  0
 21 18  1  0
 18 17  1  0
 17  1  1  0
  1  2  1  0
  1  6  1  0
  2  3  1  0
  3  4  1  0
  4  7  1  0
  4  5  1  0
  7  8  1  0
  7 16  1  0
  8  9  2  0
  8 10  1  0
 10 11  1  0
 11 12  1  0
 11 16  2  0
 12 13  2  0
 13 14  1  0
 14 15  2  0
 15 16  1  0
  5  6  1  0
 22 23  1  0
 23 24  2  0
 23 29  1  0
 24 25  1  0
 25 26  2  0
 26 27  1  0
 27 28  1  0
 27 29  2  0
M  CHG  1   1   1
M  END
>  <minimizedAffinity>  (724) 
-8.70257

$$$$
data/200k_reference_output/data/smiles/60743.pdb
     RDKit          3D

 24 28  0  0  0  0  0  0  0  0999 V2000
   70.1453   47.5412   50.8813 O   0  0  0  0  0  0  0  0  0  0  0  0
   69.8029   47.8184   52.0476 C   0  0  0  0  0  0  0  0  0  0  0  0
   69.6839   49.1238   52.6737 C   0  0  0  0  0  0  0  0  0  0  0  0
   69.2524   48.8514   54.0318 N   0  0  0  0  0  0  0  0  0  0  0  0
   69.1140   47.5099   54.2405 C   0  0  0  0  0  0  0  0  0  0  0  0
   68.7137   47.0118   55.4570 C   0  0  0  0  0  0  0  0  0  0  0  0
   68.4532   47.9460   56.4766 C   0  0  0  0  0  0  0  0  0  0  0  0
   68.0852   47.5159   57.5981 O   0  0  0  0  0  0  0  0  0  0  0  0
   68.6074   49.2786   56.2131 C   0  0  0  0  0  0  0  0  0  0  0  0
   68.3498   50.1995   57.2195 C   0  0  0  0  0  0  0  0  0  0  0  0
   68.4903   51.5537   57.0058 C   0  0  0  0  0  0  0  0  0  0  0  0
   68.8931   52.0291   55.7777 C   0  0  0  0  0  0  0  0  0  0  0  0
   69.1481   51.1178   54.7783 C   0  0  0  0  0  0  0  0  0  0  0  0
   69.0051   49.7589   55.0015 C   0  0  0  0  0  0  0  0  0  0  0  0
   69.4488   46.8262   53.0257 N   0  0  0  0  0  0  0  0  0  0  0  0
   68.5440   45.5971   55.7560 C   0  0  0  0  0  0  0  0  0  0  0  0
   69.3200   44.9789   56.7071 N   0  0  0  0  0  0  0  0  0  0  0  0
   69.0182   43.6881   56.8386 C   0  0  0  0  0  0  0  0  0  0  0  0
   69.5056   42.6640   57.6448 C   0  0  0  0  0  0  0  0  0  0  0  0
   68.9809   41.4035   57.5502 C   0  0  0  0  0  0  0  0  0  0  0  0
   67.9599   41.1308   56.6525 C   0  0  0  0  0  0  0  0  0  0  0  0
   67.5013   42.1748   55.8681 C   0  0  0  0  0  0  0  0  0  0  0  0
   68.0103   43.4431   55.9449 C   0  0  0  0  0  0  0  0  0  0  0  0
   67.7623   44.6334   55.3162 N   0  0  0  0  0  0  0  0  0  0  0  0
  1  2  2  0
  2  3  1  0
  2 15  1  0
  3  4  1  0
  4  5  1  0
  4 14  1  0
  5  6  2  0
  5 15  1  0
  6 16  1  0
  6  7  1  0
 16 17  2  0
 16 24  1  0
 17 18  1  0
 18 19  2  0
 18 23  1  0
 19 20  1  0
 20 21  2  0
 21 22  1  0
 22 23  2  0
 23 24  1  0
  7  8  2  0
  7  9  1  0
  9 10  1  0
  9 14  2  0
 10 11  2  0
 11 12  1  0
 12 13  2  0
 13 14  1  0
M  CHG  1  17   1
M  END
>  <minimizedAffinity>  (725) 
-8.72014

$$$$
data/200k_reference_output/data/smiles/61153.pdb
     RDKit          3D

 23 25  0  0  0  0  0  0  0  0999 V2000
   70.3082   49.4999   52.6962 S   0  0  0  0  0  0  0  0  0  0  0  0
   71.7787   49.3728   53.1104 O   0  0  0  0  0  0  0  0  0  0  0  0
   70.2192   49.0859   51.2454 O   0  0  0  0  0  0  0  0  0  0  0  0
   68.9227   47.1927   53.2360 C   0  0  0  0  0  0  0  0  0  0  0  0
   68.2312   46.3277   54.0743 C   0  0  0  0  0  0  0  0  0  0  0  0
   67.9884   46.6010   55.3955 C   0  0  0  0  0  0  0  0  0  0  0  0
   68.4704   47.7925   55.8694 C   0  0  0  0  0  0  0  0  0  0  0  0
   69.1602   48.6660   55.0558 C   0  0  0  0  0  0  0  0  0  0  0  0
   69.4147   48.4103   53.7180 C   0  0  0  0  0  0  0  0  0  0  0  0
   70.1866   46.4321   51.4463 O   0  0  0  0  0  0  0  0  0  0  0  0
   69.1141   46.8372   51.8926 N   0  0  0  0  0  0  0  0  0  0  0  0
   68.0724   46.9106   50.9652 O   0  0  0  0  0  0  0  0  0  0  0  0
   69.8538   51.1143   52.9285 N   0  0  0  0  0  0  0  0  0  0  0  0
   69.8725   51.8719   54.1109 C   0  0  0  0  0  0  0  0  0  0  0  0
   68.7973   52.0880   54.9311 C   0  0  0  0  0  0  0  0  0  0  0  0
   68.8844   52.8074   56.1023 C   0  0  0  0  0  0  0  0  0  0  0  0
   70.0744   53.3508   56.5118 C   0  0  0  0  0  0  0  0  0  0  0  0
   71.2014   53.1559   55.7051 C   0  0  0  0  0  0  0  0  0  0  0  0
   72.4104   53.6999   56.1077 C   0  0  0  0  0  0  0  0  0  0  0  0
   73.5028   53.4923   55.2969 C   0  0  0  0  0  0  0  0  0  0  0  0
   73.3311   52.7596   54.1380 C   0  0  0  0  0  0  0  0  0  0  0  0
   72.1482   52.2432   53.7710 N   0  0  0  0  0  0  0  0  0  0  0  0
   71.0727   52.4329   54.5444 C   0  0  0  0  0  0  0  0  0  0  0  0
 10 11  2  0
 11 12  1  0
 11  4  1  0
  4  5  2  0
  4  9  1  0
  5  6  1  0
  6  7  2  0
  7  8  1  0
  8  9  2  0
  9  1  1  0
  1  2  2  0
  1  3  2  0
  1 13  1  0
 13 14  1  0
 14 15  2  0
 14 23  1  0
 15 16  1  0
 16 17  2  0
 17 18  1  0
 18 19  1  0
 18 23  2  0
 19 20  2  0
 20 21  1  0
 21 22  2  0
 22 23  1  0
M  CHG  2  11   1  12  -1
M  END
>  <minimizedAffinity>  (726) 
-8.59609

$$$$
data/200k_reference_output/data/smiles/61216.pdb
     RDKit          3D

 30 33  0  0  0  0  0  0  0  0999 V2000
   70.3629   44.8130   58.1778 C   0  0  0  0  0  0  0  0  0  0  0  0
   70.1944   45.4796   59.2546 O   0  0  0  0  0  0  0  0  0  0  0  0
   70.2456   45.5873   57.0037 N   0  0  0  0  0  0  0  0  0  0  0  0
   73.0609   43.9594   58.1928 C   0  0  0  0  0  0  0  0  0  0  0  0
   71.9751   42.9560   58.2455 C   0  0  0  0  0  0  0  0  0  0  0  0
   70.6457   43.3866   58.2399 C   0  0  0  0  0  0  0  0  0  0  0  0
   69.7267   42.4155   58.2907 N   0  0  0  0  0  0  0  0  0  0  0  0
   68.4046   42.7221   58.2881 O   0  0  0  0  0  0  0  0  0  0  0  0
   70.0517   41.0860   58.3458 C   0  0  0  0  0  0  0  0  0  0  0  0
   69.0921   40.1056   58.3977 C   0  0  0  0  0  0  0  0  0  0  0  0
   69.4004   38.7650   58.4530 C   0  0  0  0  0  0  0  0  0  0  0  0
   70.7329   38.3554   58.4584 C   0  0  0  0  0  0  0  0  0  0  0  0
   71.7023   39.3433   58.4060 C   0  0  0  0  0  0  0  0  0  0  0  0
   71.3629   40.6792   58.3514 C   0  0  0  0  0  0  0  0  0  0  0  0
   72.2898   41.6423   58.3003 N   0  0  0  0  0  0  0  0  0  0  0  0
   73.6120   41.2384   58.3057 O   0  0  0  0  0  0  0  0  0  0  0  0
   69.9668   47.0102   56.9772 C   0  0  0  0  0  0  0  0  0  0  0  0
   68.6024   47.3140   56.4388 C   0  0  0  0  0  0  0  0  0  0  0  0
   68.1074   48.6473   56.8020 C   0  0  0  0  0  0  0  0  0  0  0  0
   66.9801   48.7883   57.5654 C   0  0  0  0  0  0  0  0  0  0  0  0
   66.5590   50.0638   57.8779 C   0  0  0  0  0  0  0  0  0  0  0  0
   67.2674   51.1713   57.4249 C   0  0  0  0  0  0  0  0  0  0  0  0
   68.4041   51.0354   56.6552 C   0  0  0  0  0  0  0  0  0  0  0  0
   68.8243   49.7595   56.3424 C   0  0  0  0  0  0  0  0  0  0  0  0
   68.5763   47.1291   54.9432 C   0  0  0  0  0  0  0  0  0  0  0  0
   69.2477   47.9978   54.1101 C   0  0  0  0  0  0  0  0  0  0  0  0
   69.2591   47.8748   52.7406 C   0  0  0  0  0  0  0  0  0  0  0  0
   68.5756   46.8462   52.1640 C   0  0  0  0  0  0  0  0  0  0  0  0
   67.8901   45.9530   52.9539 C   0  0  0  0  0  0  0  0  0  0  0  0
   67.8901   46.0931   54.3450 C   0  0  0  0  0  0  0  0  0  0  0  0
  4  5  1  0
  5  6  2  0
  5 15  1  0
  6  1  1  0
  6  7  1  0
  1  2  2  0
  1  3  1  0
  3 17  1  0
 17 18  1  0
 18 19  1  0
 18 25  1  0
 19 20  2  0
 19 24  1  0
 20 21  1  0
 21 22  2  0
 22 23  1  0
 23 24  2  0
 25 26  2  0
 25 30  1  0
 26 27  1  0
 27 28  2  0
 28 29  1  0
 29 30  2  0
  7  8  1  0
  7  9  2  0
  9 10  1  0
  9 14  1  0
 10 11  2  0
 11 12  1  0
 12 13  2  0
 13 14  1  0
 14 15  2  0
 15 16  1  0
M  CHG  4   7   1   8  -1  15   1  16  -1
M  END
>  <minimizedAffinity>  (727) 
-9.71862

$$$$
data/200k_reference_output/data/smiles/61232.pdb
     RDKit          3D

 22 23  0  0  0  0  0  0  0  0999 V2000
   70.3441   48.9335   51.0746 O   0  0  0  0  0  0  0  0  0  0  0  0
   70.0074   49.1739   52.5867 S   0  0  0  0  0  0  0  0  0  0  0  0
   71.4705   49.1751   53.1365 O   0  0  0  0  0  0  0  0  0  0  0  0
   69.2771   47.8538   53.1809 C   0  0  0  0  0  0  0  0  0  0  0  0
   68.6091   46.8765   52.4369 C   0  0  0  0  0  0  0  0  0  0  0  0
   68.4828   47.1475   51.1307 F   0  0  0  0  0  0  0  0  0  0  0  0
   68.0371   45.8297   53.0530 C   0  0  0  0  0  0  0  0  0  0  0  0
   67.1601   45.0374   52.3295 F   0  0  0  0  0  0  0  0  0  0  0  0
   68.1064   45.6322   54.3858 C   0  0  0  0  0  0  0  0  0  0  0  0
   67.6121   44.4955   54.9082 F   0  0  0  0  0  0  0  0  0  0  0  0
   68.7864   46.5730   55.1914 C   0  0  0  0  0  0  0  0  0  0  0  0
   68.8726   46.3573   56.5197 F   0  0  0  0  0  0  0  0  0  0  0  0
   69.3316   47.6352   54.5771 C   0  0  0  0  0  0  0  0  0  0  0  0
   69.6684   48.7120   55.3915 F   0  0  0  0  0  0  0  0  0  0  0  0
   69.5496   50.7877   52.5439 N   0  0  0  0  0  0  0  0  0  0  0  0
   70.0735   51.4417   53.7615 C   0  0  0  0  0  0  0  0  0  0  0  0
   68.9739   51.9992   54.6021 C   0  0  0  0  0  0  0  0  0  0  0  0
   68.8572   51.7581   55.9772 C   0  0  0  0  0  0  0  0  0  0  0  0
   67.6611   51.3735   56.6210 C   0  0  0  0  0  0  0  0  0  0  0  0
   68.0289   50.9347   57.8189 N   0  0  0  0  0  0  0  0  0  0  0  0
   69.3677   51.0306   57.9891 C   0  0  0  0  0  0  0  0  0  0  0  0
   69.8418   51.5360   56.8476 N   0  0  0  0  0  0  0  0  0  0  0  0
  1  2  2  0
  2  3  2  0
  2 15  1  0
  2  4  1  0
 15 16  1  0
 16 17  1  0
 17 18  1  0
 18 19  2  0
 18 22  1  0
 19 20  1  0
 20 21  1  0
 21 22  2  0
  4  5  2  0
  4 13  1  0
  5  6  1  0
  5  7  1  0
  7  8  1  0
  7  9  2  0
  9 10  1  0
  9 11  1  0
 11 12  1  0
 11 13  2  0
 13 14  1  0
M  CHG  1  22   1
M  END
>  <minimizedAffinity>  (728) 
-8.86065

$$$$
data/200k_reference_output/data/smiles/61263.pdb
     RDKit          3D

 24 26  0  0  0  0  0  0  0  0999 V2000
   70.5639   49.4567   53.8220 C   0  0  0  0  0  0  0  0  0  0  0  0
   70.5337   49.5808   52.4557 C   0  0  0  0  0  0  0  0  0  0  0  0
   69.7826   48.7365   51.6774 C   0  0  0  0  0  0  0  0  0  0  0  0
   69.0193   47.7217   52.2137 C   0  0  0  0  0  0  0  0  0  0  0  0
   68.2899   46.9038   51.4333 N   0  0  0  0  0  0  0  0  0  0  0  0
   67.5435   45.9137   51.9439 C   0  0  0  0  0  0  0  0  0  0  0  0
   66.8710   45.1698   51.1513 O   0  0  0  0  0  0  0  0  0  0  0  0
   67.5060   45.7082   53.2895 C   0  0  0  0  0  0  0  0  0  0  0  0
   68.2689   46.5588   54.1310 C   0  0  0  0  0  0  0  0  0  0  0  0
   69.0313   47.5713   53.6053 C   0  0  0  0  0  0  0  0  0  0  0  0
   69.7912   48.4290   54.3727 C   0  0  0  0  0  0  0  0  0  0  0  0
   71.5023   50.5034   54.8639 S   0  0  0  0  0  0  0  0  0  0  0  0
   72.5853   51.1148   54.0202 O   0  0  0  0  0  0  0  0  0  0  0  0
   72.1596   49.7404   55.9690 O   0  0  0  0  0  0  0  0  0  0  0  0
   67.0836   50.5635   57.5360 C   0  0  0  0  0  0  0  0  0  0  0  0
   68.1386   51.5371   57.0099 C   0  0  0  0  0  0  0  0  0  0  0  0
   69.4403   51.1912   57.6454 C   0  0  0  0  0  0  0  0  0  0  0  0
   70.5741   51.8449   56.9394 C   0  0  0  0  0  0  0  0  0  0  0  0
   70.5675   51.7684   55.5352 N   0  0  0  0  0  0  0  0  0  0  0  0
   69.3507   52.0243   54.8664 C   0  0  0  0  0  0  0  0  0  0  0  0
   68.1265   51.4448   55.5182 C   0  0  0  0  0  0  0  0  0  0  0  0
   68.2114   46.3195   55.5544 C   0  0  0  0  0  0  0  0  0  0  0  0
   68.5499   45.1719   56.0226 O   0  0  0  0  0  0  0  0  0  0  0  0
   67.8212   47.2162   56.4875 O   0  0  0  0  0  0  0  0  0  0  0  0
 15 16  1  0
 16 17  1  0
 16 21  1  0
 17 18  1  0
 18 19  1  0
 19 12  1  0
 19 20  1  0
 12 13  2  0
 12 14  2  0
 12  1  1  0
  1  2  2  0
  1 11  1  0
  2  3  1  0
  3  4  2  0
  4  5  1  0
  4 10  1  0
  5  6  1  0
  6  7  2  0
  6  8  1  0
  8  9  2  0
  9 22  1  0
  9 10  1  0
 22 23  2  0
 22 24  1  0
 10 11  2  0
 20 21  1  0
M  END
>  <minimizedAffinity>  (729) 
-8.93124

$$$$
data/200k_reference_output/data/smiles/61399.pdb
     RDKit          3D

 29 32  0  0  0  0  0  0  0  0999 V2000
   74.3044   42.5557   61.2792 C   0  0  0  0  0  0  0  0  0  0  0  0
   73.5289   42.7846   60.0793 N   0  0  0  0  0  0  0  0  0  0  0  0
   72.2742   43.4020   60.1407 C   0  0  0  0  0  0  0  0  0  0  0  0
   71.5722   43.3180   61.1616 O   0  0  0  0  0  0  0  0  0  0  0  0
   71.8009   44.1563   58.9666 C   0  0  1  0  0  0  0  0  0  0  0  0
   71.9929   43.1909   57.7709 C   0  0  1  0  0  0  0  0  0  0  0  0
   73.5151   43.1100   57.6228 C   0  0  0  0  0  0  0  0  0  0  0  0
   74.0691   42.3627   58.8142 C   0  0  1  0  0  0  0  0  0  0  0  0
   75.5605   42.4203   58.7612 C   0  0  0  0  0  0  0  0  0  0  0  0
   73.6629   41.0040   58.6542 O   0  0  0  0  0  0  0  0  0  0  0  0
   72.2697   40.8346   58.4876 C   0  0  0  0  0  0  0  0  0  0  0  0
   71.6860   39.6131   58.7459 C   0  0  0  0  0  0  0  0  0  0  0  0
   70.3208   39.3932   58.5999 C   0  0  0  0  0  0  0  0  0  0  0  0
   69.4935   40.4150   58.1826 C   0  0  0  0  0  0  0  0  0  0  0  0
   70.0858   41.6327   57.9257 C   0  0  0  0  0  0  0  0  0  0  0  0
   71.4565   41.8609   58.0708 C   0  0  0  0  0  0  0  0  0  0  0  0
   70.3850   44.5495   59.0080 C   0  0  0  0  0  0  0  0  0  0  0  0
   69.6013   43.8891   59.7762 N   0  0  0  0  0  0  0  0  0  0  0  0
   69.8278   45.6085   58.2496 N   0  0  0  0  0  0  0  0  0  0  0  0
   69.4891   45.5343   56.8981 N   0  0  0  0  0  0  0  0  0  0  0  0
   68.9886   46.6054   56.1204 C   0  0  0  0  0  0  0  0  0  0  0  0
   68.8275   47.7140   56.6873 O   0  0  0  0  0  0  0  0  0  0  0  0
   68.6458   46.5080   54.7063 C   0  0  0  0  0  0  0  0  0  0  0  0
   67.9051   45.4763   54.1788 C   0  0  0  0  0  0  0  0  0  0  0  0
   67.6135   45.4438   52.8141 C   0  0  0  0  0  0  0  0  0  0  0  0
   68.0515   46.4332   51.9592 C   0  0  0  0  0  0  0  0  0  0  0  0
   67.7579   46.3818   50.6442 F   0  0  0  0  0  0  0  0  0  0  0  0
   68.7990   47.4807   52.4719 C   0  0  0  0  0  0  0  0  0  0  0  0
   69.0675   47.4793   53.8213 C   0  0  0  0  0  0  0  0  0  0  0  0
  1  2  1  0
  2  3  1  0
  2  8  1  0
  3  4  2  0
  3  5  1  0
  5 17  1  1
  5  6  1  0
 17 18  2  0
 17 19  1  0
 19 20  1  0
 20 21  1  0
 21 22  2  0
 21 23  1  0
 23 24  2  0
 23 29  1  0
 24 25  1  0
 25 26  2  0
 26 27  1  0
 26 28  1  0
 28 29  2  0
  6  7  1  0
  6 16  1  1
  7  8  1  0
  8  9  1  1
  8 10  1  0
 10 11  1  0
 11 12  2  0
 11 16  1  0
 12 13  1  0
 13 14  2  0
 14 15  1  0
 15 16  2  0
M  CHG  1  18   1
M  END
>  <minimizedAffinity>  (730) 
-8.84170

$$$$
data/200k_reference_output/data/smiles/61419.pdb
     RDKit          3D

 24 26  0  0  0  0  0  0  0  0999 V2000
   68.8553   43.3876   56.6152 C   0  0  0  0  0  0  0  0  0  0  0  0
   69.9945   43.9635   57.0400 N   0  0  0  0  0  0  0  0  0  0  0  0
   70.9702   43.2466   57.6599 C   0  0  0  0  0  0  0  0  0  0  0  0
   72.1410   43.8359   58.0973 C   0  0  0  0  0  0  0  0  0  0  0  0
   73.1353   43.1113   58.7283 C   0  0  0  0  0  0  0  0  0  0  0  0
   72.9350   41.7580   58.9182 C   0  0  0  0  0  0  0  0  0  0  0  0
   71.7517   41.1627   58.4758 C   0  0  0  0  0  0  0  0  0  0  0  0
   70.7622   41.8956   57.8462 C   0  0  0  0  0  0  0  0  0  0  0  0
   69.6093   41.3226   57.4133 N   0  0  0  0  0  0  0  0  0  0  0  0
   68.6522   42.0477   56.8015 C   0  0  0  0  0  0  0  0  0  0  0  0
   67.4177   41.4328   56.3385 C   0  0  0  0  0  0  0  0  0  0  0  0
   66.2947   41.8164   56.7701 O   0  0  0  0  0  0  0  0  0  0  0  0
   67.4804   40.4100   55.4059 O   0  0  0  0  0  0  0  0  0  0  0  0
   67.8716   44.1541   55.9811 O   0  0  0  0  0  0  0  0  0  0  0  0
   68.8267   47.6196   53.7825 C   0  0  0  0  0  0  0  0  0  0  0  0
   69.0669   47.5433   55.1396 C   0  0  0  0  0  0  0  0  0  0  0  0
   68.7585   46.4121   55.8706 C   0  0  0  0  0  0  0  0  0  0  0  0
   68.1925   45.3029   55.2764 C   0  0  0  0  0  0  0  0  0  0  0  0
   67.9532   45.3810   53.9202 C   0  0  0  0  0  0  0  0  0  0  0  0
   68.2608   46.5099   53.1893 C   0  0  0  0  0  0  0  0  0  0  0  0
   69.1555   48.8344   52.9837 C   0  0  0  0  0  0  0  0  0  0  0  0
   71.4859   49.0285   52.7502 O   0  0  0  0  0  0  0  0  0  0  0  0
   70.4152   48.6509   52.2486 C   0  0  0  0  0  0  0  0  0  0  0  0
   70.4071   48.0635   51.0096 O   0  0  0  0  0  0  0  0  0  0  0  0
 22 23  2  0
 23 24  1  0
 23 21  1  0
 21 15  1  0
 15 16  2  0
 15 20  1  0
 16 17  1  0
 17 18  2  0
 18 14  1  0
 18 19  1  0
 14  1  1  0
  1  2  2  0
  1 10  1  0
  2  3  1  0
  3  4  2  0
  3  8  1  0
  4  5  1  0
  5  6  2  0
  6  7  1  0
  7  8  2  0
  8  9  1  0
  9 10  2  0
 10 11  1  0
 11 12  2  0
 11 13  1  0
 19 20  2  0
M  END
>  <minimizedAffinity>  (731) 
-9.19590

$$$$
data/200k_reference_output/data/smiles/61588.pdb
     RDKit          3D

 21 23  0  0  0  0  0  0  0  0999 V2000
   68.7026   46.2712   55.6125 C   0  0  0  0  0  0  0  0  0  0  0  0
   69.2011   47.1959   56.5256 C   0  0  0  0  0  0  0  0  0  0  0  0
   69.7039   48.4198   56.1402 C   0  0  0  0  0  0  0  0  0  0  0  0
   69.7247   48.7712   54.7905 C   0  0  0  0  0  0  0  0  0  0  0  0
   69.2347   47.8682   53.8692 C   0  0  0  0  0  0  0  0  0  0  0  0
   69.2446   48.1906   52.5294 C   0  0  0  0  0  0  0  0  0  0  0  0
   68.7549   47.2899   51.6104 C   0  0  0  0  0  0  0  0  0  0  0  0
   68.2481   46.0536   51.9993 C   0  0  0  0  0  0  0  0  0  0  0  0
   68.2440   45.7431   53.3426 C   0  0  0  0  0  0  0  0  0  0  0  0
   68.7312   46.6357   54.2833 C   0  0  0  0  0  0  0  0  0  0  0  0
   69.7585   49.4617   52.0507 C   0  0  0  0  0  0  0  0  0  0  0  0
   69.7744   49.7752   50.8184 O   0  0  0  0  0  0  0  0  0  0  0  0
   70.2754   50.4235   52.9799 N   0  0  0  0  0  0  0  0  0  0  0  0
   70.2527   50.0643   54.3549 C   0  0  0  0  0  0  0  0  0  0  0  0
   70.7000   50.8902   55.1821 O   0  0  0  0  0  0  0  0  0  0  0  0
   68.4728   44.0522   56.5691 N   0  0  0  0  0  0  0  0  0  0  0  0
   68.1854   45.0208   55.9616 N   0  0  0  0  0  0  0  0  0  0  0  0
   69.6750   42.0935   57.5260 C   0  0  0  0  0  0  0  0  0  0  0  0
   69.4858   43.5176   57.3226 N   0  0  0  0  0  0  0  0  0  0  0  0
   70.4337   44.4101   57.9630 C   0  0  0  0  0  0  0  0  0  0  0  0
   69.7764   44.9268   59.0994 O   0  0  0  0  0  0  0  0  0  0  0  0
 18 19  1  0
 19 20  1  0
 19 16  1  0
 20 21  1  0
 16 17  2  0
 17  1  1  0
  1  2  2  0
  1 10  1  0
  2  3  1  0
  3  4  2  0
  4  5  1  0
  4 14  1  0
  5  6  1  0
  5 10  2  0
  6  7  2  0
  6 11  1  0
  7  8  1  0
  8  9  2  0
  9 10  1  0
 11 12  2  0
 11 13  1  0
 13 14  1  0
 14 15  2  0
M  END
>  <minimizedAffinity>  (732) 
-8.65387

$$$$
data/200k_reference_output/data/smiles/61596.pdb
     RDKit          3D

 23 25  0  0  0  0  0  0  0  0999 V2000
   71.5375   50.6087   55.0878 N   0  0  0  0  0  0  0  0  0  0  0  0
   70.8138   49.6664   54.2781 C   0  0  0  0  0  0  0  0  0  0  0  0
   69.9623   48.7827   54.8155 N   0  0  0  0  0  0  0  0  0  0  0  0
   69.2686   47.8875   54.0883 C   0  0  0  0  0  0  0  0  0  0  0  0
   68.3943   46.9782   54.6353 C   0  0  0  0  0  0  0  0  0  0  0  0
   67.6948   46.0690   53.8624 C   0  0  0  0  0  0  0  0  0  0  0  0
   67.8590   46.0487   52.4930 C   0  0  0  0  0  0  0  0  0  0  0  0
   68.7459   46.9697   51.9393 C   0  0  0  0  0  0  0  0  0  0  0  0
   69.4407   47.8761   52.7210 C   0  0  0  0  0  0  0  0  0  0  0  0
   70.3248   48.7985   52.1916 C   0  0  0  0  0  0  0  0  0  0  0  0
   70.4787   48.7840   50.9425 O   0  0  0  0  0  0  0  0  0  0  0  0
   70.9682   49.6455   52.9736 O   0  0  0  0  0  0  0  0  0  0  0  0
   71.5379   52.0130   54.7887 C   0  0  2  0  0  0  0  0  0  0  0  0
   73.8548   52.6292   55.5640 N   0  0  0  0  0  0  0  0  0  0  0  0
   72.9200   52.4843   54.5181 C   0  0  0  0  0  0  0  0  0  0  0  0
   73.2534   52.7533   53.3488 O   0  0  0  0  0  0  0  0  0  0  0  0
   70.9135   52.7871   55.9189 C   0  0  0  0  0  0  0  0  0  0  0  0
   69.7875   52.0428   56.5046 C   0  0  0  0  0  0  0  0  0  0  0  0
   68.5169   52.0401   55.9887 C   0  0  0  0  0  0  0  0  0  0  0  0
   67.4859   51.3268   56.6043 C   0  0  0  0  0  0  0  0  0  0  0  0
   67.7213   50.6063   57.7472 C   0  0  0  0  0  0  0  0  0  0  0  0
   68.9877   50.5933   58.2832 C   0  0  0  0  0  0  0  0  0  0  0  0
   70.0140   51.3032   57.6708 C   0  0  0  0  0  0  0  0  0  0  0  0
 14 15  1  0
 15 16  2  0
 15 13  1  0
 13 17  1  1
 13  1  1  0
 17 18  1  0
 18 19  2  0
 18 23  1  0
 19 20  1  0
 20 21  2  0
 21 22  1  0
 22 23  2  0
  1  2  1  0
  2  3  2  0
  2 12  1  0
  3  4  1  0
  4  5  2  0
  4  9  1  0
  5  6  1  0
  6  7  2  0
  7  8  1  0
  8  9  2  0
  9 10  1  0
 10 11  2  0
 10 12  1  0
M  END
>  <minimizedAffinity>  (733) 
-8.57871

$$$$
data/200k_reference_output/data/smiles/61600.pdb
     RDKit          3D

 26 28  0  0  0  0  0  0  0  0999 V2000
   67.8550   44.6486   54.9633 N   0  0  0  0  0  0  0  0  0  0  0  0
   68.2814   43.8530   56.0611 C   0  0  0  0  0  0  0  0  0  0  0  0
   69.0415   44.4252   56.8864 O   0  0  0  0  0  0  0  0  0  0  0  0
   70.3587   51.7221   52.8346 N   0  0  0  0  0  0  0  0  0  0  0  0
   69.9576   50.3726   53.0281 C   0  0  0  0  0  0  0  0  0  0  0  0
   70.0883   49.4448   52.0420 N   0  0  0  0  0  0  0  0  0  0  0  0
   69.7217   48.1745   52.1962 C   0  0  0  0  0  0  0  0  0  0  0  0
   69.8709   47.2345   51.1474 N   0  0  0  0  0  0  0  0  0  0  0  0
   69.1852   47.7519   53.3889 C   0  0  0  0  0  0  0  0  0  0  0  0
   68.7872   46.4406   53.6000 C   0  0  0  0  0  0  0  0  0  0  0  0
   68.2488   46.0013   54.7890 C   0  0  0  0  0  0  0  0  0  0  0  0
   68.1122   46.9436   55.8026 C   0  0  0  0  0  0  0  0  0  0  0  0
   68.5025   48.2520   55.6104 C   0  0  0  0  0  0  0  0  0  0  0  0
   69.0394   48.6817   54.4180 C   0  0  0  0  0  0  0  0  0  0  0  0
   69.4322   49.9370   54.1845 N   0  0  0  0  0  0  0  0  0  0  0  0
   67.8524   42.4256   56.2255 C   0  0  0  0  0  0  0  0  0  0  0  0
   68.8212   41.7016   57.0868 C   0  0  0  0  0  0  0  0  0  0  0  0
   68.4470   40.5297   57.7115 C   0  0  0  0  0  0  0  0  0  0  0  0
   69.3206   39.8317   58.5184 C   0  0  0  0  0  0  0  0  0  0  0  0
   70.6215   40.3026   58.7240 C   0  0  0  0  0  0  0  0  0  0  0  0
   71.0104   41.4770   58.1030 C   0  0  0  0  0  0  0  0  0  0  0  0
   70.1089   42.1446   57.3050 C   0  0  0  0  0  0  0  0  0  0  0  0
   72.3920   41.9520   58.3381 C   0  0  0  0  0  0  0  0  0  0  0  0
   72.8075   42.6174   57.2007 F   0  0  0  0  0  0  0  0  0  0  0  0
   73.2043   40.8390   58.4667 F   0  0  0  0  0  0  0  0  0  0  0  0
   72.4613   42.7620   59.4573 F   0  0  0  0  0  0  0  0  0  0  0  0
  4  5  1  0
  5  6  2  0
  5 15  1  0
  6  7  1  0
  7  8  1  0
  7  9  2  0
  9 10  1  0
  9 14  1  0
 10 11  2  0
 11  1  1  0
 11 12  1  0
  1  2  1  0
  2  3  2  0
  2 16  1  0
 16 17  1  0
 17 18  2  0
 17 22  1  0
 18 19  1  0
 19 20  2  0
 20 21  1  0
 21 23  1  0
 21 22  2  0
 23 24  1  0
 23 25  1  0
 23 26  1  0
 12 13  2  0
 13 14  1  0
 14 15  2  0
M  END
>  <minimizedAffinity>  (734) 
-8.88011

$$$$
data/200k_reference_output/data/smiles/61646.pdb
     RDKit          3D

 27 29  0  0  0  0  0  0  0  0999 V2000
   69.7116   46.8726   57.3281 C   0  0  0  0  0  0  0  0  0  0  0  0
   70.7684   47.3643   57.8225 O   0  0  0  0  0  0  0  0  0  0  0  0
   69.5881   45.4786   57.3769 N   0  0  0  0  0  0  0  0  0  0  0  0
   68.6534   47.7263   56.7323 C   0  0  0  0  0  0  0  0  0  0  0  0
   70.7342   51.1615   54.0250 C   0  0  0  0  0  0  0  0  0  0  0  0
   70.0485   49.8590   54.0953 N   0  0  0  0  0  0  0  0  0  0  0  0
   69.6502   49.3512   55.2338 N   0  0  0  0  0  0  0  0  0  0  0  0
   68.9810   48.1638   55.3498 C   0  0  0  0  0  0  0  0  0  0  0  0
   68.7194   47.4843   54.1962 C   0  0  0  0  0  0  0  0  0  0  0  0
   68.0397   46.3065   54.2702 C   0  0  0  0  0  0  0  0  0  0  0  0
   67.7775   45.6248   53.0840 C   0  0  0  0  0  0  0  0  0  0  0  0
   68.1849   46.1145   51.8569 C   0  0  0  0  0  0  0  0  0  0  0  0
   68.8649   47.3128   51.8344 C   0  0  0  0  0  0  0  0  0  0  0  0
   69.1468   48.0243   52.9811 C   0  0  0  0  0  0  0  0  0  0  0  0
   69.8164   49.2218   52.9289 C   0  0  0  0  0  0  0  0  0  0  0  0
   70.1947   49.6950   51.8402 O   0  0  0  0  0  0  0  0  0  0  0  0
   70.6586   44.6752   57.9717 C   0  0  0  0  0  0  0  0  0  0  0  0
   70.2184   43.2689   58.0599 C   0  0  0  0  0  0  0  0  0  0  0  0
   69.1713   42.8058   57.2933 C   0  0  0  0  0  0  0  0  0  0  0  0
   68.7312   41.4773   57.3785 C   0  0  0  0  0  0  0  0  0  0  0  0
   69.3414   40.6044   58.2364 C   0  0  0  0  0  0  0  0  0  0  0  0
   70.3907   41.0613   59.0064 C   0  0  0  0  0  0  0  0  0  0  0  0
   70.8174   42.3862   58.9094 C   0  0  0  0  0  0  0  0  0  0  0  0
   68.8785   39.1991   58.3606 C   0  0  0  0  0  0  0  0  0  0  0  0
   68.3224   39.0666   59.6127 F   0  0  0  0  0  0  0  0  0  0  0  0
   69.9429   38.3152   58.3049 F   0  0  0  0  0  0  0  0  0  0  0  0
   67.9068   38.8954   57.4317 F   0  0  0  0  0  0  0  0  0  0  0  0
  5  6  1  0
  6  7  1  0
  6 15  1  0
  7  8  2  0
  8  4  1  0
  8  9  1  0
  4  1  1  0
  1  2  2  0
  1  3  1  0
  3 17  1  0
 17 18  1  0
 18 19  2  0
 18 23  1  0
 19 20  1  0
 20 21  2  0
 21 24  1  0
 21 22  1  0
 24 25  1  0
 24 26  1  0
 24 27  1  0
 22 23  2  0
  9 10  1  0
  9 14  2  0
 10 11  2  0
 11 12  1  0
 12 13  2  0
 13 14  1  0
 14 15  1  0
 15 16  2  0
M  END
>  <minimizedAffinity>  (735) 
-8.58683

$$$$
data/200k_reference_output/data/smiles/61667.pdb
     RDKit          3D

 28 31  0  0  0  0  0  0  0  0999 V2000
   68.0254   45.3685   54.6415 C   0  0  0  0  0  0  0  0  0  0  0  0
   68.3094   45.6637   53.3263 C   0  0  0  0  0  0  0  0  0  0  0  0
   68.7438   46.9061   52.8965 C   0  0  0  0  0  0  0  0  0  0  0  0
   69.0830   47.4567   51.7226 N   0  0  0  0  0  0  0  0  0  0  0  0
   69.4363   48.7184   51.8760 N   0  0  0  0  0  0  0  0  0  0  0  0
   69.3479   49.0754   53.1858 C   0  0  0  0  0  0  0  0  0  0  0  0
   68.9076   47.9205   53.8297 C   0  0  0  0  0  0  0  0  0  0  0  0
   68.6192   47.6125   55.1419 C   0  0  0  0  0  0  0  0  0  0  0  0
   68.1943   46.3768   55.5247 N   0  0  0  0  0  0  0  0  0  0  0  0
   69.6398   50.3610   53.7855 C   0  0  0  0  0  0  0  0  0  0  0  0
   70.9373   50.7130   54.0631 C   0  0  0  0  0  0  0  0  0  0  0  0
   71.2412   51.9315   54.6386 C   0  0  0  0  0  0  0  0  0  0  0  0
   70.2422   52.7966   54.9354 N   0  0  0  0  0  0  0  0  0  0  0  0
   68.9540   52.4666   54.6681 C   0  0  0  0  0  0  0  0  0  0  0  0
   68.6334   51.2414   54.0880 C   0  0  0  0  0  0  0  0  0  0  0  0
   69.1471   43.9304   56.7384 O   0  0  0  0  0  0  0  0  0  0  0  0
   68.1768   43.3840   56.1499 C   0  0  0  0  0  0  0  0  0  0  0  0
   67.5819   44.0838   55.0786 N   0  0  0  0  0  0  0  0  0  0  0  0
   67.7773   42.1145   56.6249 N   0  0  0  0  0  0  0  0  0  0  0  0
   68.4399   41.4439   57.7424 C   0  0  1  0  0  0  0  0  0  0  0  0
   67.8802   41.8129   59.0378 C   0  0  0  0  0  0  0  0  0  0  0  0
   68.5662   42.4680   60.0346 C   0  0  0  0  0  0  0  0  0  0  0  0
   67.9741   42.7794   61.2360 C   0  0  0  0  0  0  0  0  0  0  0  0
   66.6469   42.4296   61.4668 C   0  0  0  0  0  0  0  0  0  0  0  0
   65.9238   41.7711   60.4933 C   0  0  0  0  0  0  0  0  0  0  0  0
   66.5456   41.4742   59.3013 C   0  0  0  0  0  0  0  0  0  0  0  0
   68.4678   39.9833   57.4392 C   0  0  0  0  0  0  0  0  0  0  0  0
   67.9502   39.6707   56.1884 O   0  0  0  0  0  0  0  0  0  0  0  0
 16 17  2  0
 17 18  1  0
 17 19  1  0
 18  1  1  0
  1  2  2  0
  1  9  1  0
  2  3  1  0
  3  4  1  0
  3  7  2  0
  4  5  1  0
  5  6  2  0
  6 10  1  0
  6  7  1  0
 10 11  2  0
 10 15  1  0
 11 12  1  0
 12 13  2  0
 13 14  1  0
 14 15  2  0
  7  8  1  0
  8  9  2  0
 19 20  1  0
 20 27  1  6
 20 21  1  0
 27 28  1  0
 21 22  2  0
 21 26  1  0
 22 23  1  0
 23 24  2  0
 24 25  1  0
 25 26  2  0
M  END
>  <minimizedAffinity>  (736) 
-8.72999

$$$$
data/200k_reference_output/data/smiles/61800.pdb
     RDKit          3D

 28 30  0  0  0  0  0  0  0  0999 V2000
   68.6933   46.4160   55.4221 C   0  0  0  0  0  0  0  0  0  0  0  0
   67.9336   45.3498   55.1293 N   0  0  0  0  0  0  0  0  0  0  0  0
   67.5152   45.0928   53.8854 C   0  0  0  0  0  0  0  0  0  0  0  0
   67.8553   45.9225   52.8557 C   0  0  0  0  0  0  0  0  0  0  0  0
   67.3433   45.6462   51.2117 Cl  0  0  0  0  0  0  0  0  0  0  0  0
   68.6390   47.0354   53.1113 C   0  0  0  0  0  0  0  0  0  0  0  0
   69.0138   47.9075   52.1176 C   0  0  0  0  0  0  0  0  0  0  0  0
   69.8003   49.0073   52.4288 C   0  0  0  0  0  0  0  0  0  0  0  0
   70.2159   49.2460   53.7203 C   0  0  0  0  0  0  0  0  0  0  0  0
   69.8305   48.3640   54.6975 C   0  0  0  0  0  0  0  0  0  0  0  0
   69.0444   47.2548   54.4117 C   0  0  0  0  0  0  0  0  0  0  0  0
   69.6296   44.3971   56.9727 N   0  0  0  0  0  0  0  0  0  0  0  0
   69.5664   45.7162   57.4790 C   0  0  0  0  0  0  0  0  0  0  0  0
   70.0067   45.9321   58.8093 N   0  0  0  0  0  0  0  0  0  0  0  0
   69.1232   46.6672   56.7420 N   0  0  0  0  0  0  0  0  0  0  0  0
   71.2013   50.6244   54.1095 S   0  0  0  0  0  0  0  0  0  0  0  0
   72.6403   50.2540   53.8569 O   0  0  0  0  0  0  0  0  0  0  0  0
   70.9078   51.8039   53.2479 O   0  0  0  0  0  0  0  0  0  0  0  0
   70.9770   51.0064   55.7976 N   0  0  0  0  0  0  0  0  0  0  0  0
   69.7283   50.8604   56.4567 C   0  0  0  0  0  0  0  0  0  0  0  0
   68.6198   51.5079   55.9355 C   0  0  0  0  0  0  0  0  0  0  0  0
   67.4211   51.3920   56.5860 C   0  0  0  0  0  0  0  0  0  0  0  0
   67.2607   50.6589   57.7376 C   0  0  0  0  0  0  0  0  0  0  0  0
   68.3660   50.0283   58.2324 C   0  0  0  0  0  0  0  0  0  0  0  0
   69.6124   50.1158   57.6063 C   0  0  0  0  0  0  0  0  0  0  0  0
   70.7296   49.3714   58.2114 C   0  0  0  0  0  0  0  0  0  0  0  0
   70.8587   49.3790   59.4661 O   0  0  0  0  0  0  0  0  0  0  0  0
   71.6580   48.6539   57.4940 O   0  0  0  0  0  0  0  0  0  0  0  0
 12 13  1  0
 13 14  1  0
 13 15  2  0
 15  1  1  0
  1  2  2  0
  1 11  1  0
  2  3  1  0
  3  4  2  0
  4  5  1  0
  4  6  1  0
  6  7  1  0
  6 11  2  0
  7  8  2  0
  8  9  1  0
  9 16  1  0
  9 10  2  0
 16 17  2  0
 16 18  2  0
 16 19  1  0
 19 20  1  0
 20 21  2  0
 20 25  1  0
 21 22  1  0
 22 23  2  0
 23 24  1  0
 24 25  2  0
 25 26  1  0
 26 27  2  0
 26 28  1  0
 10 11  1  0
M  CHG  1  15   1
M  END
>  <minimizedAffinity>  (737) 
-8.91630

$$$$
data/200k_reference_output/data/smiles/61820.pdb
     RDKit          3D

 27 31  0  0  0  0  0  0  0  0999 V2000
   66.9604   40.7982   55.6730 O   0  0  0  0  0  0  0  0  0  0  0  0
   67.8075   41.4378   56.3777 C   0  0  0  0  0  0  0  0  0  0  0  0
   68.1765   42.8343   56.1879 C   0  0  0  0  0  0  0  0  0  0  0  0
   67.8092   43.8120   55.3318 N   0  0  0  0  0  0  0  0  0  0  0  0
   68.3098   45.0593   55.3692 C   0  0  0  0  0  0  0  0  0  0  0  0
   68.1211   46.2174   54.6424 C   0  0  0  0  0  0  0  0  0  0  0  0
   68.9260   47.2193   55.1423 C   0  0  0  0  0  0  0  0  0  0  0  0
   69.5917   46.6558   56.1649 N   0  0  0  0  0  0  0  0  0  0  0  0
   69.2278   45.3694   56.3024 N   0  0  0  0  0  0  0  0  0  0  0  0
   69.6251   44.4275   57.1780 C   0  0  0  0  0  0  0  0  0  0  0  0
   70.4828   44.7101   58.0538 O   0  0  0  0  0  0  0  0  0  0  0  0
   69.1151   43.1275   57.1522 C   0  0  0  0  0  0  0  0  0  0  0  0
   69.3837   41.9243   57.9824 C   0  0  0  0  0  0  0  0  0  0  0  0
   68.5296   40.8842   57.4686 N   0  0  0  0  0  0  0  0  0  0  0  0
   69.0441   48.6056   54.6728 C   0  0  0  0  0  0  0  0  0  0  0  0
   69.4075   48.9993   53.4039 C   0  0  0  0  0  0  0  0  0  0  0  0
   69.4022   50.3980   53.3582 C   0  0  0  0  0  0  0  0  0  0  0  0
   69.0231   50.7600   54.6492 C   0  0  0  0  0  0  0  0  0  0  0  0
   68.8284   49.6881   55.3694 O   0  0  0  0  0  0  0  0  0  0  0  0
   68.4539   39.5170   57.9753 C   0  0  0  0  0  0  0  0  0  0  0  0
   69.3810   39.2376   59.1047 C   0  0  0  0  0  0  0  0  0  0  0  0
   70.2939   38.1103   58.9400 C   0  0  0  0  0  0  0  0  0  0  0  0
   70.2050   36.9617   59.6948 C   0  0  0  0  0  0  0  0  0  0  0  0
   71.0813   35.9089   59.5405 C   0  0  0  0  0  0  0  0  0  0  0  0
   72.0818   36.0077   58.5995 C   0  0  0  0  0  0  0  0  0  0  0  0
   72.2036   37.1372   57.8262 C   0  0  0  0  0  0  0  0  0  0  0  0
   71.3154   38.1745   57.9997 C   0  0  0  0  0  0  0  0  0  0  0  0
  1  2  2  0
  2  3  1  0
  2 14  1  0
  3  4  1  0
  3 12  2  0
  4  5  1  0
  5  6  2  0
  5  9  1  0
  6  7  1  0
  7 15  1  0
  7  8  2  0
 15 16  2  0
 15 19  1  0
 16 17  1  0
 17 18  2  0
 18 19  1  0
  8  9  1  0
  9 10  1  0
 10 11  2  0
 10 12  1  0
 12 13  1  0
 13 14  1  0
 14 20  1  0
 20 21  1  0
 21 22  1  0
 22 23  2  0
 22 27  1  0
 23 24  1  0
 24 25  2  0
 25 26  1  0
 26 27  2  0
M  END
>  <minimizedAffinity>  (738) 
-8.67777

$$$$
data/200k_reference_output/data/smiles/62093.pdb
     RDKit          3D

 21 23  0  0  0  0  0  0  0  0999 V2000
   69.2139   45.3601   56.4980 C   0  0  0  0  0  0  0  0  0  0  0  0
   68.9528   43.9113   56.7364 C   0  0  0  0  0  0  0  0  0  0  0  0
   67.7949   43.3498   56.2638 N   0  0  0  0  0  0  0  0  0  0  0  0
   67.5065   42.0576   56.4728 C   0  0  0  0  0  0  0  0  0  0  0  0
   68.3527   41.2228   57.1711 C   0  0  0  0  0  0  0  0  0  0  0  0
   68.0730   39.8916   57.3954 C   0  0  0  0  0  0  0  0  0  0  0  0
   68.9316   39.0692   58.0971 C   0  0  0  0  0  0  0  0  0  0  0  0
   70.0963   39.6336   58.5732 C   0  0  0  0  0  0  0  0  0  0  0  0
   70.3770   40.9720   58.3470 C   0  0  0  0  0  0  0  0  0  0  0  0
   69.5182   41.7879   57.6477 C   0  0  0  0  0  0  0  0  0  0  0  0
   69.7598   43.0867   57.4112 N   0  0  0  0  0  0  0  0  0  0  0  0
   68.4068   45.9821   55.5809 O   0  0  0  0  0  0  0  0  0  0  0  0
   69.3028   47.7058   52.4965 C   0  0  0  0  0  0  0  0  0  0  0  0
   68.5679   46.9905   51.5841 C   0  0  0  0  0  0  0  0  0  0  0  0
   67.7939   45.9487   52.0401 C   0  0  0  0  0  0  0  0  0  0  0  0
   67.7425   45.6179   53.3576 C   0  0  0  0  0  0  0  0  0  0  0  0
   68.4986   46.3547   54.2905 C   0  0  0  0  0  0  0  0  0  0  0  0
   69.2782   47.3995   53.8537 C   0  0  0  0  0  0  0  0  0  0  0  0
   71.1757   49.0910   52.7381 O   0  0  0  0  0  0  0  0  0  0  0  0
   70.1395   48.8200   52.0636 C   0  0  0  0  0  0  0  0  0  0  0  0
   69.8121   49.5654   50.9435 O   0  0  0  0  0  0  0  0  0  0  0  0
 19 20  2  0
 20 21  1  0
 20 13  1  0
 13 14  2  0
 13 18  1  0
 14 15  1  0
 15 16  2  0
 16 17  1  0
 17 12  1  0
 17 18  2  0
 12  1  1  0
  1  2  1  0
  2  3  2  0
  2 11  1  0
  3  4  1  0
  4  5  2  0
  5  6  1  0
  5 10  1  0
  6  7  2  0
  7  8  1  0
  8  9  2  0
  9 10  1  0
 10 11  2  0
M  END
>  <minimizedAffinity>  (739) 
-8.66052

$$$$
data/200k_reference_output/data/smiles/62222.pdb
     RDKit          3D

 25 26  0  0  0  0  0  0  0  0999 V2000
   68.9036   43.5796   56.7256 C   0  0  0  0  0  0  0  0  0  0  0  0
   69.9080   43.8544   57.2650 O   0  0  0  0  0  0  0  0  0  0  0  0
   68.2822   44.5802   55.9530 N   0  0  0  0  0  0  0  0  0  0  0  0
   68.4340   45.8399   55.4085 C   0  0  0  0  0  0  0  0  0  0  0  0
   68.2028   45.7088   53.9741 C   0  0  0  0  0  0  0  0  0  0  0  0
   68.6429   46.9180   53.2239 C   0  0  0  0  0  0  0  0  0  0  0  0
   69.1515   47.9306   53.7639 C   0  0  0  0  0  0  0  0  0  0  0  0
   69.3682   48.0834   55.1435 C   0  0  0  0  0  0  0  0  0  0  0  0
   68.9609   46.9573   55.8947 C   0  0  0  0  0  0  0  0  0  0  0  0
   69.9717   49.1321   52.6494 S   0  0  0  0  0  0  0  0  0  0  0  0
   69.2687   50.7121   53.1261 N   0  0  0  0  0  0  0  0  0  0  0  0
   69.5623   48.8988   51.2598 O   0  0  0  0  0  0  0  0  0  0  0  0
   71.4080   49.0577   52.8552 O   0  0  0  0  0  0  0  0  0  0  0  0
   68.1764   42.2436   56.6590 C   0  0  0  0  0  0  0  0  0  0  0  0
   68.4711   41.2783   57.4799 C   0  0  0  0  0  0  0  0  0  0  0  0
   65.9586   41.8279   55.1929 N   0  0  0  0  0  0  0  0  0  0  0  0
   67.0148   42.0235   55.9043 C   0  0  0  0  0  0  0  0  0  0  0  0
   67.8531   40.0172   57.8197 C   0  0  0  0  0  0  0  0  0  0  0  0
   67.4034   39.9294   59.0617 C   0  0  0  0  0  0  0  0  0  0  0  0
   66.6863   38.9083   59.7954 C   0  0  0  0  0  0  0  0  0  0  0  0
   67.1126   37.5699   59.8928 C   0  0  0  0  0  0  0  0  0  0  0  0
   66.1650   36.5796   60.3316 C   0  0  0  0  0  0  0  0  0  0  0  0
   64.8894   36.9310   60.6504 C   0  0  0  0  0  0  0  0  0  0  0  0
   64.4816   38.2341   60.5650 C   0  0  0  0  0  0  0  0  0  0  0  0
   65.3998   39.2006   60.1346 C   0  0  0  0  0  0  0  0  0  0  0  0
 16 17  3  0
 17 14  1  0
 14 15  2  0
 14  1  1  0
 15 18  1  0
 18 19  2  0
 19 20  1  0
 20 21  2  0
 20 25  1  0
 21 22  1  0
 22 23  2  0
 23 24  1  0
 24 25  2  0
  1  2  2  0
  1  3  1  0
  3  4  1  0
  4  5  2  0
  4  9  1  0
  5  6  1  0
  6  7  2  0
  7 10  1  0
  7  8  1  0
 10 11  1  0
 10 12  2  0
 10 13  2  0
  8  9  2  0
M  END
>  <minimizedAffinity>  (740) 
-8.95899

$$$$
data/200k_reference_output/data/smiles/62226.pdb
     RDKit          3D

 22 25  0  0  0  0  0  0  0  0999 V2000
   70.3338   51.0212   53.5330 C   0  0  0  0  0  0  0  0  0  0  0  0
   70.5090   51.9860   52.7469 O   0  0  0  0  0  0  0  0  0  0  0  0
   72.0175   49.0140   58.3333 C   0  0  0  0  0  0  0  0  0  0  0  0
   70.8492   49.7762   57.8584 C   0  0  0  0  0  0  0  0  0  0  0  0
   69.8088   50.1880   58.6468 C   0  0  0  0  0  0  0  0  0  0  0  0
   68.7336   50.9008   58.1579 C   0  0  0  0  0  0  0  0  0  0  0  0
   68.6790   51.2277   56.8142 C   0  0  0  0  0  0  0  0  0  0  0  0
   67.8152   51.8874   56.0265 N   0  0  0  0  0  0  0  0  0  0  0  0
   68.2856   51.9022   54.7656 C   0  0  0  0  0  0  0  0  0  0  0  0
   69.4897   51.2346   54.7189 C   0  0  0  0  0  0  0  0  0  0  0  0
   69.7205   50.8192   56.0123 C   0  0  0  0  0  0  0  0  0  0  0  0
   70.7927   50.1056   56.5136 C   0  0  0  0  0  0  0  0  0  0  0  0
   70.9364   49.8317   53.2436 O   0  0  0  0  0  0  0  0  0  0  0  0
   70.3746   48.8092   52.5249 N   0  0  0  0  0  0  0  0  0  0  0  0
   70.5167   48.4931   51.2652 N   0  0  0  0  0  0  0  0  0  0  0  0
   69.7869   47.4190   50.9643 N   0  0  0  0  0  0  0  0  0  0  0  0
   69.1318   47.0055   52.0746 C   0  0  0  0  0  0  0  0  0  0  0  0
   68.2625   45.9714   52.3331 C   0  0  0  0  0  0  0  0  0  0  0  0
   67.7410   45.7859   53.5764 C   0  0  0  0  0  0  0  0  0  0  0  0
   68.1161   46.6754   54.5795 C   0  0  0  0  0  0  0  0  0  0  0  0
   68.9877   47.7110   54.3151 C   0  0  0  0  0  0  0  0  0  0  0  0
   69.5272   47.9151   53.0619 C   0  0  0  0  0  0  0  0  0  0  0  0
  3  4  1  0
  4  5  2  0
  4 12  1  0
  5  6  1  0
  6  7  2  0
  7  8  1  0
  7 11  1  0
  8  9  1  0
  9 10  2  0
 10  1  1  0
 10 11  1  0
  1  2  2  0
  1 13  1  0
 13 14  1  0
 14 15  1  0
 14 22  1  0
 15 16  2  0
 16 17  1  0
 17 18  1  0
 17 22  2  0
 18 19  2  0
 19 20  1  0
 20 21  2  0
 21 22  1  0
 11 12  2  0
M  END
>  <minimizedAffinity>  (741) 
-8.50080

$$$$
data/200k_reference_output/data/smiles/62349.pdb
     RDKit          3D

 28 30  0  0  0  0  0  0  0  0999 V2000
   69.8692   51.0038   53.9250 N   0  0  0  0  0  0  0  0  0  0  0  0
   68.5649   51.1978   54.4651 C   0  0  0  0  0  0  0  0  0  0  0  0
   68.6435   52.6530   54.9255 C   0  0  0  0  0  0  0  0  0  0  0  0
   70.0670   52.7437   55.4489 C   0  0  0  0  0  0  0  0  0  0  0  0
   70.8275   51.5952   54.7686 C   0  0  2  0  0  0  0  0  0  0  0  0
   70.1944   49.6002   53.1072 S   0  0  0  0  0  0  0  0  0  0  0  0
   71.6912   49.3311   53.1762 O   0  0  0  0  0  0  0  0  0  0  0  0
   69.9162   49.8406   51.6192 O   0  0  0  0  0  0  0  0  0  0  0  0
   67.3526   45.3333   52.0648 C   0  0  0  0  0  0  0  0  0  0  0  0
   68.0556   46.2188   53.0129 C   0  0  0  0  0  0  0  0  0  0  0  0
   68.0509   45.9121   54.3560 C   0  0  0  0  0  0  0  0  0  0  0  0
   68.6817   46.6890   55.2989 C   0  0  0  0  0  0  0  0  0  0  0  0
   69.3538   47.8295   54.8908 C   0  0  0  0  0  0  0  0  0  0  0  0
   70.0209   48.6329   55.9409 C   0  0  0  0  0  0  0  0  0  0  0  0
   69.3685   48.1550   53.5292 C   0  0  0  0  0  0  0  0  0  0  0  0
   68.7270   47.3588   52.6006 C   0  0  0  0  0  0  0  0  0  0  0  0
   72.0148   52.2173   54.1187 C   0  0  0  0  0  0  0  0  0  0  0  0
   73.1610   51.3514   54.2738 N   0  0  0  0  0  0  0  0  0  0  0  0
   73.9979   51.2716   55.4121 C   0  0  0  0  0  0  0  0  0  0  0  0
   73.7432   52.0063   56.3894 O   0  0  0  0  0  0  0  0  0  0  0  0
   75.1391   50.3773   55.4977 C   0  0  0  0  0  0  0  0  0  0  0  0
   75.3451   49.5052   54.6274 O   0  0  0  0  0  0  0  0  0  0  0  0
   76.0322   50.4781   56.5644 N   0  0  0  0  0  0  0  0  0  0  0  0
   77.1898   49.6829   56.7933 C   0  0  0  0  0  0  0  0  0  0  0  0
   77.6323   49.9014   58.2254 C   0  0  0  0  0  0  0  0  0  0  0  0
   78.8861   50.7544   58.1747 C   0  0  0  0  0  0  0  0  0  0  0  0
   79.1123   51.0902   56.7195 C   0  0  0  0  0  0  0  0  0  0  0  0
   78.4007   49.9830   56.0156 C   0  0  0  0  0  0  0  0  0  0  0  0
  9 10  1  0
 10 11  2  0
 10 16  1  0
 11 12  1  0
 12 13  2  0
 13 14  1  0
 13 15  1  0
 15  6  1  0
 15 16  2  0
  6  7  2  0
  6  8  2  0
  6  1  1  0
  1  2  1  0
  1  5  1  0
  2  3  1  0
  3  4  1  0
  4  5  1  0
  5 17  1  6
 17 18  1  0
 18 19  1  0
 19 20  2  0
 19 21  1  0
 21 22  2  0
 21 23  1  0
 23 24  1  0
 24 25  1  0
 24 28  1  0
 25 26  1  0
 26 27  1  0
 27 28  1  0
M  END
>  <minimizedAffinity>  (742) 
-9.24318

$$$$
data/200k_reference_output/data/smiles/62352.pdb
     RDKit          3D

 24 27  0  0  0  0  0  0  0  0999 V2000
   70.6598   49.1674   58.2618 C   0  0  0  0  0  0  0  0  0  0  0  0
   70.2921   48.2441   57.3334 C   0  0  0  0  0  0  0  0  0  0  0  0
   69.0854   48.2434   56.6731 C   0  0  0  0  0  0  0  0  0  0  0  0
   68.1972   49.2741   57.0033 C   0  0  0  0  0  0  0  0  0  0  0  0
   68.5375   50.2302   57.9446 C   0  0  0  0  0  0  0  0  0  0  0  0
   69.7611   50.1892   58.5789 C   0  0  0  0  0  0  0  0  0  0  0  0
   70.0658   51.1361   59.4923 F   0  0  0  0  0  0  0  0  0  0  0  0
   68.6882   47.2844   55.6573 C   0  0  0  0  0  0  0  0  0  0  0  0
   68.2141   46.0516   56.0031 N   0  0  0  0  0  0  0  0  0  0  0  0
   67.8393   45.1692   55.1238 N   0  0  0  0  0  0  0  0  0  0  0  0
   67.9021   45.4358   53.7877 C   0  0  0  0  0  0  0  0  0  0  0  0
   67.5378   44.5743   52.9500 O   0  0  0  0  0  0  0  0  0  0  0  0
   68.3630   46.6446   53.3455 C   0  0  0  0  0  0  0  0  0  0  0  0
   68.7566   47.5724   54.3225 C   0  0  0  0  0  0  0  0  0  0  0  0
   69.1969   48.8763   53.7452 C   0  0  0  0  0  0  0  0  0  0  0  0
   70.3107   48.5476   52.7633 C   0  0  0  0  0  0  0  0  0  0  0  0
   69.7901   47.7173   51.6099 C   0  0  0  0  0  0  0  0  0  0  0  0
   68.4803   47.0298   51.9189 C   0  0  0  0  0  0  0  0  0  0  0  0
   71.5826   47.4871   60.6281 O   0  0  0  0  0  0  0  0  0  0  0  0
   72.2882   48.2252   59.9221 C   0  0  0  0  0  0  0  0  0  0  0  0
   73.7763   48.2605   59.9492 C   0  0  0  0  0  0  0  0  0  0  0  0
   74.0133   49.7487   59.8040 C   0  0  0  0  0  0  0  0  0  0  0  0
   72.9835   50.1539   58.7845 C   0  0  0  0  0  0  0  0  0  0  0  0
   71.9055   49.1805   58.9535 N   0  0  0  0  0  0  0  0  0  0  0  0
 19 20  2  0
 20 21  1  0
 20 24  1  0
 21 22  1  0
 22 23  1  0
 23 24  1  0
 24  1  1  0
  1  2  2  0
  1  6  1  0
  2  3  1  0
  3  8  1  0
  3  4  2  0
  8  9  2  0
  8 14  1  0
  9 10  1  0
 10 11  1  0
 11 12  2  0
 11 13  1  0
 13 14  2  0
 13 18  1  0
 14 15  1  0
 15 16  1  0
 16 17  1  0
 17 18  1  0
  4  5  1  0
  5  6  2  0
  6  7  1  0
M  END
>  <minimizedAffinity>  (743) 
-8.52889

$$$$
data/200k_reference_output/data/smiles/62617.pdb
     RDKit          3D

 24 26  0  0  0  0  0  0  0  0999 V2000
   71.1756   50.7768   54.3281 C   0  0  0  0  0  0  0  0  0  0  0  0
   70.3468   49.5691   54.2707 N   0  0  0  0  0  0  0  0  0  0  0  0
   69.9071   49.0064   55.3699 N   0  0  0  0  0  0  0  0  0  0  0  0
   69.1435   47.8986   55.4245 C   0  0  0  0  0  0  0  0  0  0  0  0
   68.8160   47.3347   54.2080 C   0  0  0  0  0  0  0  0  0  0  0  0
   68.0555   46.2130   54.1917 C   0  0  0  0  0  0  0  0  0  0  0  0
   67.6893   45.5824   53.0034 C   0  0  0  0  0  0  0  0  0  0  0  0
   68.1220   46.1299   51.8271 C   0  0  0  0  0  0  0  0  0  0  0  0
   68.8958   47.2711   51.8359 C   0  0  0  0  0  0  0  0  0  0  0  0
   69.2459   47.8769   53.0343 C   0  0  0  0  0  0  0  0  0  0  0  0
   70.0195   49.0080   53.0889 C   0  0  0  0  0  0  0  0  0  0  0  0
   70.4130   49.5043   52.0019 O   0  0  0  0  0  0  0  0  0  0  0  0
   68.7024   47.3796   56.7163 C   0  0  0  0  0  0  0  0  0  0  0  0
   69.6680   46.3582   57.2679 C   0  0  0  0  0  0  0  0  0  0  0  0
   70.7312   46.7293   57.8262 O   0  0  0  0  0  0  0  0  0  0  0  0
   69.4219   44.9704   57.1811 N   0  0  0  0  0  0  0  0  0  0  0  0
   70.2957   43.9616   57.6769 C   0  0  0  0  0  0  0  0  0  0  0  0
   69.6446   42.6408   57.6407 C   0  0  0  0  0  0  0  0  0  0  0  0
   68.4886   42.4404   56.8899 C   0  0  0  0  0  0  0  0  0  0  0  0
   67.8986   41.1904   56.8408 C   0  0  0  0  0  0  0  0  0  0  0  0
   68.4265   40.1395   57.5196 C   0  0  0  0  0  0  0  0  0  0  0  0
   67.8631   38.9083   57.4827 F   0  0  0  0  0  0  0  0  0  0  0  0
   69.5553   40.3228   58.2570 C   0  0  0  0  0  0  0  0  0  0  0  0
   70.1814   41.5673   58.3305 C   0  0  0  0  0  0  0  0  0  0  0  0
  1  2  1  0
  2  3  1  0
  2 11  1  0
  3  4  2  0
  4 13  1  0
  4  5  1  0
 13 14  1  0
 14 15  2  0
 14 16  1  0
 16 17  1  0
 17 18  1  0
 18 19  2  0
 18 24  1  0
 19 20  1  0
 20 21  2  0
 21 22  1  0
 21 23  1  0
 23 24  2  0
  5  6  1  0
  5 10  2  0
  6  7  2  0
  7  8  1  0
  8  9  2  0
  9 10  1  0
 10 11  1  0
 11 12  2  0
M  END
>  <minimizedAffinity>  (744) 
-8.68448

$$$$
data/200k_reference_output/data/smiles/62781.pdb
     RDKit          3D

 25 27  0  0  0  0  0  0  0  0999 V2000
   70.7969   43.5185   58.1767 C   0  0  0  0  0  0  0  0  0  0  0  0
   69.8429   42.4837   58.2258 C   0  0  0  0  0  0  0  0  0  0  0  0
   68.4956   42.8524   58.2051 O   0  0  0  0  0  0  0  0  0  0  0  0
   70.2266   41.1694   58.2906 C   0  0  0  0  0  0  0  0  0  0  0  0
   69.2721   40.1635   58.3374 C   0  0  0  0  0  0  0  0  0  0  0  0
   69.6273   38.8314   58.4030 C   0  0  0  0  0  0  0  0  0  0  0  0
   70.9522   38.4479   58.4250 C   0  0  0  0  0  0  0  0  0  0  0  0
   71.4292   36.7566   58.5081 Cl  0  0  0  0  0  0  0  0  0  0  0  0
   71.9032   39.4459   58.3776 C   0  0  0  0  0  0  0  0  0  0  0  0
   71.5474   40.7942   58.3108 C   0  0  0  0  0  0  0  0  0  0  0  0
   72.4563   41.7683   58.2654 N   0  0  0  0  0  0  0  0  0  0  0  0
   72.0962   43.0895   58.2006 C   0  0  0  0  0  0  0  0  0  0  0  0
   73.0275   43.9574   58.1598 O   0  0  0  0  0  0  0  0  0  0  0  0
   70.5658   45.5877   59.1679 O   0  0  0  0  0  0  0  0  0  0  0  0
   70.3676   44.8965   58.1120 C   0  0  0  0  0  0  0  0  0  0  0  0
   69.7632   45.5830   57.0541 N   0  0  0  0  0  0  0  0  0  0  0  0
   69.3647   46.9386   56.9534 C   0  0  0  0  0  0  0  0  0  0  0  0
   68.4194   47.2698   55.8796 C   0  0  0  0  0  0  0  0  0  0  0  0
   68.9713   47.7076   54.6117 C   0  0  0  0  0  0  0  0  0  0  0  0
   69.7282   48.8827   54.4676 C   0  0  0  0  0  0  0  0  0  0  0  0
   70.2551   49.2515   53.2503 C   0  0  0  0  0  0  0  0  0  0  0  0
   70.0583   48.4757   52.1166 C   0  0  0  0  0  0  0  0  0  0  0  0
   70.5646   48.8020   50.8757 O   0  0  0  0  0  0  0  0  0  0  0  0
   69.3173   47.3249   52.2559 C   0  0  0  0  0  0  0  0  0  0  0  0
   68.7795   46.9356   53.4654 C   0  0  0  0  0  0  0  0  0  0  0  0
 14 15  2  0
 15 16  1  0
 15  1  1  0
 16 17  1  0
 17 18  1  0
 18 19  1  0
 19 20  2  0
 19 25  1  0
 20 21  1  0
 21 22  2  0
 22 23  1  0
 22 24  1  0
 24 25  2  0
  1  2  2  0
  1 12  1  0
  2  3  1  0
  2  4  1  0
  4  5  2  0
  4 10  1  0
  5  6  1  0
  6  7  2  0
  7  8  1  0
  7  9  1  0
  9 10  2  0
 10 11  1  0
 11 12  1  0
 12 13  2  0
M  END
>  <minimizedAffinity>  (745) 
-8.75576

$$$$
data/200k_reference_output/data/smiles/62908.pdb
     RDKit          3D

 26 30  0  0  0  0  0  0  0  0999 V2000
   69.8615   48.0375   57.4160 C   0  0  0  0  0  0  0  0  0  0  0  0
   69.6136   46.6006   57.0845 C   0  0  0  0  0  0  0  0  0  0  0  0
   70.1040   45.5170   57.7038 N   0  0  0  0  0  0  0  0  0  0  0  0
   69.6764   44.3922   57.1602 N   0  0  0  0  0  0  0  0  0  0  0  0
   68.8754   44.7580   56.1453 C   0  0  0  0  0  0  0  0  0  0  0  0
   68.2707   43.9417   55.3775 O   0  0  0  0  0  0  0  0  0  0  0  0
   68.8128   46.1442   56.0670 C   0  0  0  0  0  0  0  0  0  0  0  0
   68.0209   46.9334   55.0465 C   0  0  2  0  0  0  0  0  0  0  0  0
   67.2210   46.0100   54.3871 O   0  0  0  0  0  0  0  0  0  0  0  0
   67.5374   45.9631   53.0567 C   0  0  0  0  0  0  0  0  0  0  0  0
   67.0565   45.2457   52.1343 O   0  0  0  0  0  0  0  0  0  0  0  0
   68.5966   46.9374   52.8267 C   0  0  0  0  0  0  0  0  0  0  0  0
   69.3025   47.3440   51.6979 C   0  0  0  0  0  0  0  0  0  0  0  0
   70.2696   48.3167   51.7404 C   0  0  0  0  0  0  0  0  0  0  0  0
   70.5706   48.9299   52.9308 C   0  0  0  0  0  0  0  0  0  0  0  0
   69.8744   48.5305   54.0516 C   0  0  0  0  0  0  0  0  0  0  0  0
   68.8903   47.5433   54.0212 C   0  0  0  0  0  0  0  0  0  0  0  0
   69.9722   43.0494   57.5329 C   0  0  0  0  0  0  0  0  0  0  0  0
   71.2051   42.5601   57.8509 N   0  0  0  0  0  0  0  0  0  0  0  0
   71.0945   41.2534   58.1496 C   0  0  0  0  0  0  0  0  0  0  0  0
   71.9960   40.2686   58.5349 C   0  0  0  0  0  0  0  0  0  0  0  0
   71.5912   38.9924   58.7778 C   0  0  0  0  0  0  0  0  0  0  0  0
   70.2596   38.6580   58.6429 C   0  0  0  0  0  0  0  0  0  0  0  0
   69.3297   39.6017   58.2643 C   0  0  0  0  0  0  0  0  0  0  0  0
   69.7526   40.8899   58.0208 C   0  0  0  0  0  0  0  0  0  0  0  0
   69.1239   42.0114   57.6470 N   0  0  0  0  0  0  0  0  0  0  0  0
  1  2  1  0
  2  3  1  0
  2  7  2  0
  3  4  1  0
  4 18  1  0
  4  5  1  0
 18 19  2  0
 18 26  1  0
 19 20  1  0
 20 21  2  0
 20 25  1  0
 21 22  1  0
 22 23  2  0
 23 24  1  0
 24 25  2  0
 25 26  1  0
  5  6  2  0
  5  7  1  0
  8  7  1  1
  8  9  1  0
  8 17  1  0
  9 10  1  0
 10 11  2  0
 10 12  1  0
 12 13  1  0
 12 17  2  0
 13 14  2  0
 14 15  1  0
 15 16  2  0
 16 17  1  0
M  CHG  1  19   1
M  END
>  <minimizedAffinity>  (746) 
-8.51365

$$$$
data/200k_reference_output/data/smiles/62914.pdb
     RDKit          3D

 29 32  0  0  0  0  0  0  0  0999 V2000
   72.2344   44.3927   59.4991 C   0  0  2  0  0  0  0  0  0  0  0  0
   73.1131   45.1225   60.3987 C   0  0  0  0  0  0  0  0  0  0  0  0
   72.6328   46.4404   60.9096 C   0  0  0  0  0  0  0  0  0  0  0  0
   72.0932   47.3203   59.8087 C   0  0  0  0  0  0  0  0  0  0  0  0
   71.2617   46.5767   58.8435 C   0  0  0  0  0  0  0  0  0  0  0  0
   70.3998   47.3990   58.0842 C   0  0  0  0  0  0  0  0  0  0  0  0
   69.5778   46.8295   57.1450 C   0  0  0  0  0  0  0  0  0  0  0  0
   69.6278   45.4657   56.9796 C   0  0  0  0  0  0  0  0  0  0  0  0
   70.4852   44.6664   57.7372 C   0  0  0  0  0  0  0  0  0  0  0  0
   71.3155   45.2507   58.6882 C   0  0  0  0  0  0  0  0  0  0  0  0
   68.4760   47.7917   56.1619 S   0  0  0  0  0  0  0  0  0  0  0  0
   67.0778   47.5901   56.6413 O   0  0  0  0  0  0  0  0  0  0  0  0
   68.8105   49.2470   56.3365 O   0  0  0  0  0  0  0  0  0  0  0  0
   68.6221   47.3730   54.4733 C   0  0  0  0  0  0  0  0  0  0  0  0
   67.8877   46.3230   53.9732 C   0  0  0  0  0  0  0  0  0  0  0  0
   68.0168   46.0078   52.6372 C   0  0  0  0  0  0  0  0  0  0  0  0
   68.8460   46.6966   51.7829 C   0  0  0  0  0  0  0  0  0  0  0  0
   69.5613   47.7438   52.3387 C   0  0  0  0  0  0  0  0  0  0  0  0
   70.4012   48.4627   51.5317 F   0  0  0  0  0  0  0  0  0  0  0  0
   69.4677   48.0984   53.6673 C   0  0  0  0  0  0  0  0  0  0  0  0
   71.4567   43.2467   60.0483 C   0  0  0  0  0  0  0  0  0  0  0  0
   68.9642   41.7249   59.8026 O   0  0  0  0  0  0  0  0  0  0  0  0
   69.0366   42.6967   60.5711 C   0  0  0  0  0  0  0  0  0  0  0  0
   70.2161   43.4369   60.6894 N   0  0  0  0  0  0  0  0  0  0  0  0
   67.8088   43.0456   61.3674 C   0  0  1  0  0  0  0  0  0  0  0  0
   66.8511   41.8979   61.3011 C   0  0  0  0  0  0  0  0  0  0  0  0
   66.8526   41.2746   62.6700 C   0  0  0  0  0  0  0  0  0  0  0  0
   67.8565   42.0653   63.4691 C   0  0  0  0  0  0  0  0  0  0  0  0
   68.1058   43.2927   62.7447 N   0  0  0  0  0  0  0  0  0  0  0  0
 22 23  2  0
 23 24  1  0
 25 23  1  6
 24 21  1  0
  1 21  1  1
  1  2  1  0
  1 10  1  0
  2  3  1  0
  3  4  1  0
  4  5  1  0
  5  6  2  0
  5 10  1  0
  6  7  1  0
  7 11  1  0
  7  8  2  0
 11 12  2  0
 11 13  2  0
 11 14  1  0
 14 15  2  0
 14 20  1  0
 15 16  1  0
 16 17  2  0
 17 18  1  0
 18 19  1  0
 18 20  2  0
  8  9  1  0
  9 10  2  0
 25 26  1  0
 25 29  1  0
 26 27  1  0
 27 28  1  0
 28 29  1  0
M  CHG  1  29   1
M  END
>  <minimizedAffinity>  (747) 
-8.54148

$$$$
data/200k_reference_output/data/smiles/62946.pdb
     RDKit          3D

 24 27  0  0  0  0  0  0  0  0999 V2000
   68.4772   46.3980   55.4801 C   0  0  0  0  0  0  0  0  0  0  0  0
   68.6276   46.9888   56.5981 N   0  0  0  0  0  0  0  0  0  0  0  0
   69.1771   48.3064   56.7138 C   0  0  0  0  0  0  0  0  0  0  0  0
   68.1270   49.2431   57.3530 C   0  0  0  0  0  0  0  0  0  0  0  0
   68.9600   50.3206   57.9979 C   0  0  0  0  0  0  0  0  0  0  0  0
   70.3198   49.7312   58.2900 C   0  0  0  0  0  0  0  0  0  0  0  0
   70.3137   48.3232   57.7471 C   0  0  0  0  0  0  0  0  0  0  0  0
   69.6483   48.9701   55.4876 C   0  0  0  0  0  0  0  0  0  0  0  0
   69.4128   48.2787   54.2099 C   0  0  0  0  0  0  0  0  0  0  0  0
   69.7658   48.9076   53.0303 C   0  0  0  0  0  0  0  0  0  0  0  0
   69.5636   48.2544   51.8102 C   0  0  0  0  0  0  0  0  0  0  0  0
   69.0139   46.9919   51.8314 C   0  0  0  0  0  0  0  0  0  0  0  0
   68.6572   46.3568   53.0258 C   0  0  0  0  0  0  0  0  0  0  0  0
   68.8673   47.0254   54.2115 C   0  0  0  0  0  0  0  0  0  0  0  0
   67.9196   45.0917   55.4963 N   0  0  0  0  0  0  0  0  0  0  0  0
   66.8783   42.4393   55.6341 O   0  0  0  0  0  0  0  0  0  0  0  0
   67.9272   42.6995   56.2669 C   0  0  0  0  0  0  0  0  0  0  0  0
   68.4213   44.0034   56.1920 N   0  0  0  0  0  0  0  0  0  0  0  0
   68.5581   41.6209   57.0365 C   0  0  0  0  0  0  0  0  0  0  0  0
   69.7087   41.7758   57.7497 C   0  0  0  0  0  0  0  0  0  0  0  0
   70.2266   40.6792   58.4498 C   0  0  0  0  0  0  0  0  0  0  0  0
   69.6082   39.4471   58.4414 C   0  0  0  0  0  0  0  0  0  0  0  0
   68.4762   39.3269   57.7283 N   0  0  0  0  0  0  0  0  0  0  0  0
   67.9743   40.3746   57.0548 C   0  0  0  0  0  0  0  0  0  0  0  0
 16 17  2  0
 17 18  1  0
 17 19  1  0
 18 15  1  0
 15  1  1  0
  1  2  2  0
  1 14  1  0
  2  3  1  0
  3  4  1  0
  3  7  1  0
  3  8  1  0
  4  5  1  0
  5  6  1  0
  6  7  1  0
  8  9  1  0
  9 10  2  0
  9 14  1  0
 10 11  1  0
 11 12  2  0
 12 13  1  0
 13 14  2  0
 19 20  2  0
 19 24  1  0
 20 21  1  0
 21 22  2  0
 22 23  1  0
 23 24  2  0
M  CHG  1   2   1
M  END
>  <minimizedAffinity>  (748) 
-8.93524

$$$$
data/200k_reference_output/data/smiles/63098.pdb
     RDKit          3D

 27 29  0  0  0  0  0  0  0  0999 V2000
   68.2264   45.7895   53.9250 C   0  0  0  0  0  0  0  0  0  0  0  0
   67.6081   45.2494   52.8406 C   0  0  0  0  0  0  0  0  0  0  0  0
   67.6653   45.8965   51.6127 C   0  0  0  0  0  0  0  0  0  0  0  0
   68.3539   47.1062   51.4673 C   0  0  0  0  0  0  0  0  0  0  0  0
   68.9777   47.6466   52.5681 C   0  0  0  0  0  0  0  0  0  0  0  0
   68.9010   46.9815   53.7658 C   0  0  0  0  0  0  0  0  0  0  0  0
   67.8921   43.8083   55.4868 N   0  0  0  0  0  0  0  0  0  0  0  0
   68.2123   45.1711   55.2503 C   0  0  0  0  0  0  0  0  0  0  0  0
   68.4986   45.8592   56.2787 O   0  0  0  0  0  0  0  0  0  0  0  0
   67.3656   41.1750   55.8320 C   0  0  0  0  0  0  0  0  0  0  0  0
   67.6531   42.0259   57.0150 C   0  0  0  0  0  0  0  0  0  0  0  0
   67.8952   43.2659   56.7966 N   0  0  0  0  0  0  0  0  0  0  0  0
   67.6457   41.4319   58.3397 C   0  0  0  0  0  0  0  0  0  0  0  0
   66.5490   41.5529   59.1579 C   0  0  0  0  0  0  0  0  0  0  0  0
   66.5151   40.9913   60.4337 C   0  0  0  0  0  0  0  0  0  0  0  0
   67.5858   40.2942   60.9169 C   0  0  0  0  0  0  0  0  0  0  0  0
   68.6994   40.1655   60.0995 C   0  0  0  0  0  0  0  0  0  0  0  0
   68.7276   40.7279   58.8259 C   0  0  0  0  0  0  0  0  0  0  0  0
   69.8192   40.5972   58.0342 F   0  0  0  0  0  0  0  0  0  0  0  0
   69.8605   49.1459   52.5001 S   0  0  0  0  0  0  0  0  0  0  0  0
   69.9604   49.6934   51.1280 O   0  0  0  0  0  0  0  0  0  0  0  0
   71.2518   48.8822   52.9972 O   0  0  0  0  0  0  0  0  0  0  0  0
   69.1209   50.2678   53.5840 N   0  0  0  0  0  0  0  0  0  0  0  0
   69.3513   49.8755   54.9762 C   0  0  0  0  0  0  0  0  0  0  0  0
   68.9566   51.1446   55.7185 C   0  0  0  0  0  0  0  0  0  0  0  0
   69.0511   52.2676   54.7069 C   0  0  0  0  0  0  0  0  0  0  0  0
   69.7725   51.5589   53.5522 C   0  0  0  0  0  0  0  0  0  0  0  0
 10 11  1  0
 11 12  2  0
 11 13  1  0
 12  7  1  0
  7  8  1  0
  8  9  2  0
  8  1  1  0
  1  2  2  0
  1  6  1  0
  2  3  1  0
  3  4  2  0
  4  5  1  0
  5 20  1  0
  5  6  2  0
 20 21  2  0
 20 22  2  0
 20 23  1  0
 23 24  1  0
 23 27  1  0
 24 25  1  0
 25 26  1  0
 26 27  1  0
 13 14  2  0
 13 18  1  0
 14 15  1  0
 15 16  2  0
 16 17  1  0
 17 18  2  0
 18 19  1  0
M  END
>  <minimizedAffinity>  (749) 
-9.04653

$$$$
data/200k_reference_output/data/smiles/63305.pdb
     RDKit          3D

 28 31  0  0  0  0  0  0  0  0999 V2000
   69.9176   43.2711   57.4379 C   0  0  0  0  0  0  0  0  0  0  0  0
   71.0306   43.7129   57.7882 O   0  0  0  0  0  0  0  0  0  0  0  0
   69.0167   44.2169   56.8696 N   0  0  0  0  0  0  0  0  0  0  0  0
   67.2864   41.8111   56.4050 C   0  0  0  0  0  0  0  0  0  0  0  0
   68.4425   41.2385   57.1498 C   0  0  0  0  0  0  0  0  0  0  0  0
   68.5268   39.8985   57.4859 N   0  0  0  0  0  0  0  0  0  0  0  0
   69.6761   39.7154   58.1291 N   0  0  0  0  0  0  0  0  0  0  0  0
   70.2705   40.8963   58.1897 N   0  0  0  0  0  0  0  0  0  0  0  0
   69.5649   41.8557   57.6069 C   0  0  0  0  0  0  0  0  0  0  0  0
   70.1878   38.4761   58.6390 C   0  0  0  0  0  0  0  0  0  0  0  0
   71.2881   37.9028   58.0177 C   0  0  0  0  0  0  0  0  0  0  0  0
   71.8312   36.7132   58.4257 C   0  0  0  0  0  0  0  0  0  0  0  0
   71.2684   36.0477   59.4908 C   0  0  0  0  0  0  0  0  0  0  0  0
   70.1902   36.5983   60.1087 C   0  0  0  0  0  0  0  0  0  0  0  0
   69.6200   37.8292   59.6982 C   0  0  0  0  0  0  0  0  0  0  0  0
   69.3005   45.5906   56.7073 N   0  0  0  0  0  0  0  0  0  0  0  0
   68.6074   46.3834   55.7632 C   0  0  0  0  0  0  0  0  0  0  0  0
   67.7330   45.7318   55.1010 O   0  0  0  0  0  0  0  0  0  0  0  0
   68.8163   47.7905   55.5208 C   0  0  0  0  0  0  0  0  0  0  0  0
   68.6520   48.7638   56.4963 C   0  0  0  0  0  0  0  0  0  0  0  0
   68.8048   50.0908   56.1959 C   0  0  0  0  0  0  0  0  0  0  0  0
   69.1340   50.5460   54.9054 C   0  0  0  0  0  0  0  0  0  0  0  0
   69.2956   49.5785   53.9522 C   0  0  0  0  0  0  0  0  0  0  0  0
   69.6227   49.9874   52.6539 C   0  0  0  0  0  0  0  0  0  0  0  0
   69.7797   48.9990   51.7111 C   0  0  0  0  0  0  0  0  0  0  0  0
   69.6297   47.6498   52.0112 C   0  0  0  0  0  0  0  0  0  0  0  0
   69.3107   47.2650   53.2745 C   0  0  0  0  0  0  0  0  0  0  0  0
   69.1414   48.2270   54.2468 C   0  0  0  0  0  0  0  0  0  0  0  0
  4  5  1  0
  5  6  2  0
  5  9  1  0
  6  7  1  0
  7 10  1  0
  7  8  1  0
 10 11  2  0
 10 15  1  0
 11 12  1  0
 12 13  2  0
 13 14  1  0
 14 15  2  0
  8  9  2  0
  9  1  1  0
  1  2  2  0
  1  3  1  0
  3 16  1  0
 16 17  1  0
 17 18  2  0
 17 19  1  0
 19 20  2  0
 19 28  1  0
 20 21  1  0
 21 22  2  0
 22 23  1  0
 23 24  1  0
 23 28  2  0
 24 25  2  0
 25 26  1  0
 26 27  2  0
 27 28  1  0
M  END
>  <minimizedAffinity>  (750) 
-9.51428

$$$$
data/200k_reference_output/data/smiles/63324.pdb
     RDKit          3D

 27 29  0  0  0  0  0  0  0  0999 V2000
   69.7000   44.7278   59.3442 O   0  0  0  0  0  0  0  0  0  0  0  0
   70.4671   44.6102   58.3582 C   0  0  0  0  0  0  0  0  0  0  0  0
   70.6461   45.6879   57.4528 N   0  0  0  0  0  0  0  0  0  0  0  0
   71.1972   43.3100   58.1496 C   0  0  0  0  0  0  0  0  0  0  0  0
   70.2144   42.2826   57.8659 N   0  0  0  0  0  0  0  0  0  0  0  0
   69.1274   42.5483   57.0947 C   0  0  0  0  0  0  0  0  0  0  0  0
   68.1756   41.6030   56.8037 C   0  0  0  0  0  0  0  0  0  0  0  0
   68.2924   40.3248   57.2940 C   0  0  0  0  0  0  0  0  0  0  0  0
   69.3960   40.0483   58.0790 C   0  0  0  0  0  0  0  0  0  0  0  0
   69.5721   38.4200   58.7209 Cl  0  0  0  0  0  0  0  0  0  0  0  0
   70.3246   41.0327   58.3422 C   0  0  0  0  0  0  0  0  0  0  0  0
   71.3292   40.7768   59.0581 O   0  0  0  0  0  0  0  0  0  0  0  0
   67.0014   41.9208   55.9620 C   0  0  0  0  0  0  0  0  0  0  0  0
   67.1162   43.1380   55.3213 F   0  0  0  0  0  0  0  0  0  0  0  0
   65.8306   42.0005   56.7233 F   0  0  0  0  0  0  0  0  0  0  0  0
   66.7657   40.9220   55.0267 F   0  0  0  0  0  0  0  0  0  0  0  0
   70.0079   46.9585   57.5417 C   0  0  0  0  0  0  0  0  0  0  0  0
   69.1390   47.3536   56.3830 C   0  0  1  0  0  0  0  0  0  0  0  0
   69.7242   48.5390   55.6612 C   0  0  0  0  0  0  0  0  0  0  0  0
   69.8750   48.3384   54.2883 O   0  0  0  0  0  0  0  0  0  0  0  0
   69.1246   47.4573   53.5315 C   0  0  0  0  0  0  0  0  0  0  0  0
   68.9651   47.6404   52.1536 C   0  0  0  0  0  0  0  0  0  0  0  0
   68.2003   46.7128   51.4776 C   0  0  0  0  0  0  0  0  0  0  0  0
   67.6259   45.6542   52.1617 C   0  0  0  0  0  0  0  0  0  0  0  0
   67.7828   45.4784   53.5046 C   0  0  0  0  0  0  0  0  0  0  0  0
   68.5451   46.3958   54.1965 C   0  0  0  0  0  0  0  0  0  0  0  0
   68.7667   46.3091   55.5605 O   0  0  0  0  0  0  0  0  0  0  0  0
  1  2  2  0
  2  4  1  0
  2  3  1  0
  4  5  1  0
  5  6  1  0
  5 11  1  0
  6  7  2  0
  7 13  1  0
  7  8  1  0
 13 14  1  0
 13 15  1  0
 13 16  1  0
  8  9  2  0
  9 10  1  0
  9 11  1  0
 11 12  2  0
  3 17  1  0
 18 17  1  1
 18 19  1  0
 18 27  1  0
 19 20  1  0
 20 21  1  0
 21 22  2  0
 21 26  1  0
 22 23  1  0
 23 24  2  0
 24 25  1  0
 25 26  2  0
 26 27  1  0
M  END
>  <minimizedAffinity>  (751) 
-8.89949

$$$$
data/200k_reference_output/data/smiles/63341.pdb
     RDKit          3D

 24 26  0  0  0  0  0  0  0  0999 V2000
   66.7809   42.7302   55.9349 O   0  0  0  0  0  0  0  0  0  0  0  0
   67.6469   42.0499   56.5662 C   0  0  0  0  0  0  0  0  0  0  0  0
   67.6080   40.6550   56.8779 N   0  0  0  0  0  0  0  0  0  0  0  0
   68.7724   40.2762   57.6005 C   0  0  0  0  0  0  0  0  0  0  0  0
   69.2229   39.0766   58.1305 C   0  0  0  0  0  0  0  0  0  0  0  0
   70.4233   38.9713   58.8065 C   0  0  0  0  0  0  0  0  0  0  0  0
   71.2242   40.1006   58.9715 C   0  0  0  0  0  0  0  0  0  0  0  0
   72.4156   40.0277   59.6347 F   0  0  0  0  0  0  0  0  0  0  0  0
   70.7507   41.2781   58.4339 C   0  0  0  0  0  0  0  0  0  0  0  0
   69.5565   41.4011   57.7570 C   0  0  0  0  0  0  0  0  0  0  0  0
   68.8910   42.5488   57.1223 C   0  0  0  0  0  0  0  0  0  0  0  0
   69.2822   43.7563   57.0461 N   0  0  0  0  0  0  0  0  0  0  0  0
   68.5799   44.7892   56.4182 N   0  0  0  0  0  0  0  0  0  0  0  0
   69.1565   46.1078   56.5131 C   0  0  0  0  0  0  0  0  0  0  0  0
   70.2044   46.3463   57.7054 S   0  0  0  0  0  0  0  0  0  0  0  0
   68.7839   47.0775   55.5920 N   0  0  0  0  0  0  0  0  0  0  0  0
   68.7414   47.0543   54.1927 C   0  0  0  0  0  0  0  0  0  0  0  0
   69.5437   47.9233   53.4321 C   0  0  0  0  0  0  0  0  0  0  0  0
   69.5345   47.9359   52.0629 C   0  0  0  0  0  0  0  0  0  0  0  0
   70.3070   48.7735   51.3358 F   0  0  0  0  0  0  0  0  0  0  0  0
   68.7171   47.0743   51.3697 C   0  0  0  0  0  0  0  0  0  0  0  0
   67.9312   46.2224   52.0841 C   0  0  0  0  0  0  0  0  0  0  0  0
   67.1280   45.3740   51.4071 F   0  0  0  0  0  0  0  0  0  0  0  0
   67.9404   46.2096   53.4904 C   0  0  0  0  0  0  0  0  0  0  0  0
  1  2  2  0
  2  3  1  0
  2 11  1  0
  3  4  1  0
  4  5  2  0
  4 10  1  0
  5  6  1  0
  6  7  2  0
  7  8  1  0
  7  9  1  0
  9 10  2  0
 10 11  1  0
 11 12  2  0
 12 13  1  0
 13 14  1  0
 14 15  2  0
 14 16  1  0
 16 17  1  0
 17 18  2  0
 17 24  1  0
 18 19  1  0
 19 20  1  0
 19 21  2  0
 21 22  1  0
 22 23  1  0
 22 24  2  0
M  END
>  <minimizedAffinity>  (752) 
-8.67081

$$$$
data/200k_reference_output/data/smiles/63571.pdb
     RDKit          3D

 27 29  0  0  0  0  0  0  0  0999 V2000
   69.1902   49.2542   56.5782 C   0  0  0  0  0  0  0  0  0  0  0  0
   68.5846   50.4995   56.6476 C   0  0  0  0  0  0  0  0  0  0  0  0
   68.7991   51.2935   57.7500 C   0  0  0  0  0  0  0  0  0  0  0  0
   69.5807   50.9102   58.7775 N   0  0  0  0  0  0  0  0  0  0  0  0
   70.1823   49.7097   58.7430 C   0  0  0  0  0  0  0  0  0  0  0  0
   69.9831   48.8923   57.6449 C   0  0  0  0  0  0  0  0  0  0  0  0
   70.7681   47.6268   57.8729 C   0  0  0  0  0  0  0  0  0  0  0  0
   71.7497   48.0486   58.9473 C   0  0  1  0  0  0  0  0  0  0  0  0
   71.0385   49.0541   59.6525 O   0  0  0  0  0  0  0  0  0  0  0  0
   69.2287   47.7378   53.0986 C   0  0  0  0  0  0  0  0  0  0  0  0
   68.5296   46.5747   53.3280 C   0  0  0  0  0  0  0  0  0  0  0  0
   68.0588   46.3024   54.5914 C   0  0  0  0  0  0  0  0  0  0  0  0
   68.2861   47.1968   55.6406 C   0  0  0  0  0  0  0  0  0  0  0  0
   68.9913   48.3778   55.4281 C   0  0  0  0  0  0  0  0  0  0  0  0
   69.4498   48.6264   54.1590 C   0  0  0  0  0  0  0  0  0  0  0  0
   70.0153   49.4038   51.3956 N   0  0  0  0  0  0  0  0  0  0  0  0
   69.7437   48.0615   51.7723 C   0  0  0  0  0  0  0  0  0  0  0  0
   69.9510   47.1362   50.9483 O   0  0  0  0  0  0  0  0  0  0  0  0
   72.0096   46.8675   59.8273 C   0  0  0  0  0  0  0  0  0  0  0  0
   71.8546   46.9338   61.0743 O   0  0  0  0  0  0  0  0  0  0  0  0
   72.4383   45.6610   59.2258 N   0  0  0  0  0  0  0  0  0  0  0  0
   72.7115   44.4759   59.9932 C   0  0  0  0  0  0  0  0  0  0  0  0
   72.0013   43.2643   59.4869 C   0  0  0  0  0  0  0  0  0  0  0  0
   71.9355   43.2097   57.9774 C   0  0  0  0  0  0  0  0  0  0  0  0
   73.1343   43.5692   57.4000 F   0  0  0  0  0  0  0  0  0  0  0  0
   70.8915   43.9947   57.5277 F   0  0  0  0  0  0  0  0  0  0  0  0
   71.6863   41.9032   57.5933 F   0  0  0  0  0  0  0  0  0  0  0  0
 16 17  1  0
 17 18  2  0
 17 10  1  0
 10 11  2  0
 10 15  1  0
 11 12  1  0
 12 13  2  0
 13 14  1  0
 14  1  1  0
 14 15  2  0
  1  2  2  0
  1  6  1  0
  2  3  1  0
  3  4  2  0
  4  5  1  0
  5  6  2  0
  5  9  1  0
  6  7  1  0
  7  8  1  0
  8 19  1  1
  8  9  1  0
 19 20  2  0
 19 21  1  0
 21 22  1  0
 22 23  1  0
 23 24  1  0
 24 25  1  0
 24 26  1  0
 24 27  1  0
M  END
>  <minimizedAffinity>  (753) 
-8.51561

$$$$
data/200k_reference_output/data/smiles/63729.pdb
     RDKit          3D

 28 30  0  0  0  0  0  0  0  0999 V2000
   69.3873   45.2604   56.4521 N   0  0  0  0  0  0  0  0  0  0  0  0
   69.4890   46.5548   56.9958 C   0  0  0  0  0  0  0  0  0  0  0  0
   69.6475   46.6967   58.2229 O   0  0  0  0  0  0  0  0  0  0  0  0
   68.5476   42.9750   57.0132 C   0  0  0  0  0  0  0  0  0  0  0  0
   67.6553   43.1549   56.1122 O   0  0  0  0  0  0  0  0  0  0  0  0
   69.4431   44.0660   57.1645 N   0  0  0  0  0  0  0  0  0  0  0  0
   68.8387   41.5650   59.0382 C   0  0  0  0  0  0  0  0  0  0  0  0
   68.7756   40.2904   59.6259 C   0  0  0  0  0  0  0  0  0  0  0  0
   68.3935   39.1783   58.8952 C   0  0  0  0  0  0  0  0  0  0  0  0
   68.0727   39.3487   57.5660 C   0  0  0  0  0  0  0  0  0  0  0  0
   68.1395   40.5850   57.0161 C   0  0  0  0  0  0  0  0  0  0  0  0
   68.5261   41.7438   57.7369 C   0  0  0  0  0  0  0  0  0  0  0  0
   70.4410   43.0069   60.0528 O   0  0  0  0  0  0  0  0  0  0  0  0
   69.2393   42.6777   59.8584 C   0  0  0  0  0  0  0  0  0  0  0  0
   68.2948   43.4559   60.4889 O   0  0  0  0  0  0  0  0  0  0  0  0
   69.4083   47.7792   56.1050 C   0  0  0  0  0  0  0  0  0  0  0  0
   68.4740   48.7632   56.6684 C   0  0  0  0  0  0  0  0  0  0  0  0
   67.3791   48.3700   57.3870 C   0  0  0  0  0  0  0  0  0  0  0  0
   66.4920   49.3263   57.9223 C   0  0  0  0  0  0  0  0  0  0  0  0
   66.7317   50.6591   57.7202 C   0  0  0  0  0  0  0  0  0  0  0  0
   67.8230   51.0603   57.0043 C   0  0  0  0  0  0  0  0  0  0  0  0
   68.6975   50.1016   56.4768 C   0  0  0  0  0  0  0  0  0  0  0  0
   68.9582   47.3465   54.7569 C   0  0  0  0  0  0  0  0  0  0  0  0
   69.4644   47.9683   53.6069 C   0  0  0  0  0  0  0  0  0  0  0  0
   69.0357   47.5447   52.3710 C   0  0  0  0  0  0  0  0  0  0  0  0
   68.1228   46.5306   52.1845 C   0  0  0  0  0  0  0  0  0  0  0  0
   67.6259   45.9191   53.3097 C   0  0  0  0  0  0  0  0  0  0  0  0
   68.0416   46.3276   54.5578 C   0  0  0  0  0  0  0  0  0  0  0  0
 13 14  2  0
 14 15  1  0
 14  7  1  0
  7  8  2  0
  7 12  1  0
  8  9  1  0
  9 10  2  0
 10 11  1  0
 11 12  2  0
 12  4  1  0
  4  5  2  0
  4  6  1  0
  6  1  1  0
  1  2  1  0
  2  3  2  0
  2 16  1  0
 16 17  1  0
 16 23  1  0
 17 18  2  0
 17 22  1  0
 18 19  1  0
 19 20  2  0
 20 21  1  0
 21 22  2  0
 23 24  2  0
 23 28  1  0
 24 25  1  0
 25 26  2  0
 26 27  1  0
 27 28  2  0
M  END
>  <minimizedAffinity>  (754) 
-9.37300

$$$$
data/200k_reference_output/data/smiles/63794.pdb
     RDKit          3D

 27 28  0  0  0  0  0  0  0  0999 V2000
   71.4912   51.8218   54.5780 C   0  0  1  0  0  0  0  0  0  0  0  0
   73.5502   50.3203   54.7787 N   0  0  0  0  0  0  0  0  0  0  0  0
   72.9557   51.5749   54.5050 C   0  0  0  0  0  0  0  0  0  0  0  0
   73.7325   52.5167   54.1862 O   0  0  0  0  0  0  0  0  0  0  0  0
   75.7888   50.3020   55.8204 C   0  0  0  0  0  0  0  0  0  0  0  0
   75.1917   50.7061   56.8755 O   0  0  0  0  0  0  0  0  0  0  0  0
   74.9396   50.0932   54.7080 N   0  0  0  0  0  0  0  0  0  0  0  0
   81.4573   49.4543   55.7931 C   0  0  0  0  0  0  0  0  0  0  0  0
   79.9701   49.6643   55.7911 C   0  0  0  0  0  0  0  0  0  0  0  0
   79.4654   50.7379   56.4935 C   0  0  0  0  0  0  0  0  0  0  0  0
   78.0961   50.9161   56.4806 C   0  0  0  0  0  0  0  0  0  0  0  0
   77.2298   50.0853   55.8118 C   0  0  0  0  0  0  0  0  0  0  0  0
   77.7648   49.0140   55.1142 C   0  0  0  0  0  0  0  0  0  0  0  0
   79.1242   48.8177   55.1130 C   0  0  0  0  0  0  0  0  0  0  0  0
   70.8093   50.5462   54.7589 N   0  0  0  0  0  0  0  0  0  0  0  0
   70.1031   49.8890   53.7504 C   0  0  0  0  0  0  0  0  0  0  0  0
   70.0645   50.4491   52.6255 O   0  0  0  0  0  0  0  0  0  0  0  0
   69.4527   48.6190   54.0188 C   0  0  0  0  0  0  0  0  0  0  0  0
   69.3635   48.2238   55.3549 C   0  0  0  0  0  0  0  0  0  0  0  0
   68.7679   47.0383   55.7286 C   0  0  0  0  0  0  0  0  0  0  0  0
   68.2297   46.1918   54.7516 C   0  0  0  0  0  0  0  0  0  0  0  0
   68.3125   46.5702   53.4373 C   0  0  0  0  0  0  0  0  0  0  0  0
   67.7508   45.6896   52.3974 C   0  0  0  0  0  0  0  0  0  0  0  0
   68.9209   47.7747   53.0936 C   0  0  0  0  0  0  0  0  0  0  0  0
   71.2208   52.5990   55.8713 C   0  0  0  0  0  0  0  0  0  0  0  0
   71.3582   51.6415   57.0370 C   0  0  0  0  0  0  0  0  0  0  0  0
   69.8636   53.2164   55.8797 C   0  0  0  0  0  0  0  0  0  0  0  0
  8  9  1  0
  9 10  2  0
  9 14  1  0
 10 11  1  0
 11 12  2  0
 12  5  1  0
 12 13  1  0
  5  6  2  0
  5  7  1  0
  7  2  1  0
  2  3  1  0
  3  4  2  0
  3  1  1  0
  1 15  1  1
  1 25  1  0
 15 16  1  0
 16 17  2  0
 16 18  1  0
 18 19  2  0
 18 24  1  0
 19 20  1  0
 20 21  2  0
 21 22  1  0
 22 23  1  0
 22 24  2  0
 25 26  1  0
 25 27  1  0
 13 14  2  0
M  END
>  <minimizedAffinity>  (755) 
-8.52578

$$$$
data/200k_reference_output/data/smiles/63866.pdb
     RDKit          3D

 27 30  0  0  0  0  0  0  0  0999 V2000
   68.9412   43.1318   57.5832 N   0  0  0  0  0  0  0  0  0  0  0  0
   68.2449   41.9406   57.3308 C   0  0  0  0  0  0  0  0  0  0  0  0
   68.4877   40.7880   58.2287 C   0  0  0  0  0  0  0  0  0  0  0  0
   69.8467   40.6826   58.5708 N   0  0  0  0  0  0  0  0  0  0  0  0
   70.4803   41.8694   59.0410 C   0  0  0  0  0  0  0  0  0  0  0  0
   70.1275   43.1192   58.3222 C   0  0  0  0  0  0  0  0  0  0  0  0
   69.0970   45.4243   56.6104 C   0  0  0  0  0  0  0  0  0  0  0  0
   69.4808   45.8907   57.7115 O   0  0  0  0  0  0  0  0  0  0  0  0
   68.8315   44.0449   56.5537 N   0  0  0  0  0  0  0  0  0  0  0  0
   67.9777   46.3998   51.8095 C   0  0  0  0  0  0  0  0  0  0  0  0
   68.4201   46.8407   53.1618 C   0  0  0  0  0  0  0  0  0  0  0  0
   68.7001   48.1799   53.3386 C   0  0  0  0  0  0  0  0  0  0  0  0
   69.1066   48.5815   54.5915 C   0  0  0  0  0  0  0  0  0  0  0  0
   69.2364   47.7003   55.6437 C   0  0  0  0  0  0  0  0  0  0  0  0
   68.9572   46.3368   55.4813 C   0  0  0  0  0  0  0  0  0  0  0  0
   68.5525   45.9596   54.2218 C   0  0  0  0  0  0  0  0  0  0  0  0
   70.3378   39.4744   59.0507 C   0  0  0  0  0  0  0  0  0  0  0  0
   71.2370   38.6194   58.2645 C   0  0  0  0  0  0  0  0  0  0  0  0
   71.2881   37.1901   58.6425 C   0  0  0  0  0  0  0  0  0  0  0  0
   70.6736   36.6494   59.7712 C   0  0  0  0  0  0  0  0  0  0  0  0
   70.9648   35.3550   59.8082 N   0  0  0  0  0  0  0  0  0  0  0  0
   71.7389   35.0005   58.7658 C   0  0  0  0  0  0  0  0  0  0  0  0
   72.2965   33.7961   58.3546 C   0  0  0  0  0  0  0  0  0  0  0  0
   73.0643   33.6930   57.2169 C   0  0  0  0  0  0  0  0  0  0  0  0
   73.2648   34.8416   56.4863 C   0  0  0  0  0  0  0  0  0  0  0  0
   72.7174   36.0357   56.8853 C   0  0  0  0  0  0  0  0  0  0  0  0
   71.9422   36.1455   58.0357 C   0  0  0  0  0  0  0  0  0  0  0  0
 10 11  1  0
 11 12  2  0
 11 16  1  0
 12 13  1  0
 13 14  2  0
 14 15  1  0
 15  7  1  0
 15 16  2  0
  7  8  2  0
  7  9  1  0
  9  1  1  0
  1  2  1  0
  1  6  1  0
  2  3  1  0
  3  4  1  0
  4 17  1  0
  4  5  1  0
 17 18  1  0
 18 19  1  0
 19 20  2  0
 19 27  1  0
 20 21  1  0
 21 22  1  0
 22 23  1  0
 22 27  2  0
 23 24  2  0
 24 25  1  0
 25 26  2  0
 26 27  1  0
  5  6  1  0
M  CHG  1   4   1
M  END
>  <minimizedAffinity>  (756) 
-8.64952

$$$$
data/200k_reference_output/data/smiles/63890.pdb
     RDKit          3D

 23 23  0  0  0  0  0  0  0  0999 V2000
   70.5301   50.4772   54.0307 S   0  0  0  0  0  0  0  0  0  0  0  0
   70.1598   51.3687   52.8504 O   0  0  0  0  0  0  0  0  0  0  0  0
   69.9284   51.1558   55.2309 O   0  0  0  0  0  0  0  0  0  0  0  0
   69.7592   48.9420   53.7139 C   0  0  0  0  0  0  0  0  0  0  0  0
   69.5572   48.4477   52.4475 C   0  0  0  0  0  0  0  0  0  0  0  0
   70.0044   49.1547   51.3825 F   0  0  0  0  0  0  0  0  0  0  0  0
   68.9143   47.2178   52.2542 C   0  0  0  0  0  0  0  0  0  0  0  0
   68.7288   46.7569   50.9988 F   0  0  0  0  0  0  0  0  0  0  0  0
   68.4592   46.4517   53.3034 C   0  0  0  0  0  0  0  0  0  0  0  0
   67.8419   45.2695   53.1069 F   0  0  0  0  0  0  0  0  0  0  0  0
   68.6585   46.9396   54.5763 C   0  0  0  0  0  0  0  0  0  0  0  0
   68.2152   46.1935   55.6240 F   0  0  0  0  0  0  0  0  0  0  0  0
   69.2905   48.1478   54.7712 C   0  0  0  0  0  0  0  0  0  0  0  0
   69.4790   48.6142   56.0130 F   0  0  0  0  0  0  0  0  0  0  0  0
   72.2062   50.3077   54.1235 N   0  0  0  0  0  0  0  0  0  0  0  0
   72.8870   51.1649   55.0809 C   0  0  1  0  0  0  0  0  0  0  0  0
   74.2419   50.6891   55.3226 C   0  0  0  0  0  0  0  0  0  0  0  0
   74.8071   51.0861   56.4074 O   0  0  0  0  0  0  0  0  0  0  0  0
   75.0367   49.8478   54.5304 N   0  0  0  0  0  0  0  0  0  0  0  0
   76.2958   49.4687   54.8677 O   0  0  0  0  0  0  0  0  0  0  0  0
   72.4242   53.5520   55.7485 C   0  0  0  0  0  0  0  0  0  0  0  0
   72.7360   52.6017   54.6477 C   0  0  0  0  0  0  0  0  0  0  0  0
   73.8605   53.0717   53.7557 C   0  0  0  0  0  0  0  0  0  0  0  0
 21 22  1  0
 22 23  1  0
 22 16  1  0
 16 15  1  6
 16 17  1  0
 15  1  1  0
  1  2  2  0
  1  3  2  0
  1  4  1  0
  4  5  2  0
  4 13  1  0
  5  6  1  0
  5  7  1  0
  7  8  1  0
  7  9  2  0
  9 10  1  0
  9 11  1  0
 11 12  1  0
 11 13  2  0
 13 14  1  0
 17 18  2  0
 17 19  1  0
 19 20  1  0
M  END
>  <minimizedAffinity>  (757) 
-8.53519

$$$$
data/200k_reference_output/data/smiles/63907.pdb
     RDKit          3D

 27 29  0  0  0  0  0  0  0  0999 V2000
   68.8669   42.5421   57.1196 C   0  0  0  0  0  0  0  0  0  0  0  0
   69.3142   41.4371   57.7868 N   0  0  0  0  0  0  0  0  0  0  0  0
   68.9146   40.1875   57.5906 C   0  0  0  0  0  0  0  0  0  0  0  0
   67.9840   39.9232   56.6632 N   0  0  0  0  0  0  0  0  0  0  0  0
   67.4732   40.9602   55.9418 C   0  0  0  0  0  0  0  0  0  0  0  0
   66.5991   40.7326   55.0674 O   0  0  0  0  0  0  0  0  0  0  0  0
   67.9271   42.2566   56.1867 C   0  0  0  0  0  0  0  0  0  0  0  0
   67.3785   43.2369   55.4362 O   0  0  0  0  0  0  0  0  0  0  0  0
   69.4788   39.0737   58.3805 C   0  0  0  0  0  0  0  0  0  0  0  0
   68.6870   38.4735   59.3423 C   0  0  0  0  0  0  0  0  0  0  0  0
   69.1409   37.4283   60.1213 C   0  0  0  0  0  0  0  0  0  0  0  0
   70.4194   36.9390   59.9629 C   0  0  0  0  0  0  0  0  0  0  0  0
   70.8819   35.9000   60.7306 F   0  0  0  0  0  0  0  0  0  0  0  0
   71.2213   37.5247   59.0087 C   0  0  0  0  0  0  0  0  0  0  0  0
   70.7473   38.5882   58.2231 C   0  0  0  0  0  0  0  0  0  0  0  0
   70.1721   43.8698   58.5174 O   0  0  0  0  0  0  0  0  0  0  0  0
   69.4206   43.8099   57.4733 C   0  0  0  0  0  0  0  0  0  0  0  0
   69.2258   45.0226   56.7871 N   0  0  0  0  0  0  0  0  0  0  0  0
   69.8368   46.2704   57.2344 C   0  0  0  0  0  0  0  0  0  0  0  0
   69.2092   47.4925   56.6014 C   0  0  0  0  0  0  0  0  0  0  0  0
   68.9643   47.3028   55.1539 C   0  0  0  0  0  0  0  0  0  0  0  0
   69.5652   48.1563   54.2659 C   0  0  0  0  0  0  0  0  0  0  0  0
   69.3393   47.9867   52.9288 C   0  0  0  0  0  0  0  0  0  0  0  0
   68.5246   46.9826   52.4324 C   0  0  0  0  0  0  0  0  0  0  0  0
   68.3129   46.8298   51.1025 F   0  0  0  0  0  0  0  0  0  0  0  0
   67.9222   46.1254   53.3322 C   0  0  0  0  0  0  0  0  0  0  0  0
   68.1522   46.2988   54.6966 C   0  0  0  0  0  0  0  0  0  0  0  0
 16 17  2  0
 17 18  1  0
 17  1  1  0
 18 19  1  0
 19 20  1  0
 20 21  1  0
 21 22  2  0
 21 27  1  0
 22 23  1  0
 23 24  2  0
 24 25  1  0
 24 26  1  0
 26 27  2  0
  1  2  1  0
  1  7  2  0
  2  3  2  0
  3  9  1  0
  3  4  1  0
  9 10  2  0
  9 15  1  0
 10 11  1  0
 11 12  2  0
 12 13  1  0
 12 14  1  0
 14 15  2  0
  4  5  1  0
  5  6  2  0
  5  7  1  0
  7  8  1  0
M  END
>  <minimizedAffinity>  (758) 
-9.36163

$$$$
data/200k_reference_output/data/smiles/63944.pdb
     RDKit          3D

 25 28  0  0  0  0  0  0  0  0999 V2000
   68.1376   45.2282   56.0628 O   0  0  0  0  0  0  0  0  0  0  0  0
   68.6045   46.1883   55.3568 C   0  0  0  0  0  0  0  0  0  0  0  0
   68.3270   46.2060   53.9927 C   0  0  0  0  0  0  0  0  0  0  0  0
   67.5693   45.1843   53.4338 C   0  0  0  0  0  0  0  0  0  0  0  0
   67.3207   45.2114   52.0979 C   0  0  0  0  0  0  0  0  0  0  0  0
   67.8113   46.2322   51.3169 C   0  0  0  0  0  0  0  0  0  0  0  0
   68.5675   47.2518   51.8711 C   0  0  0  0  0  0  0  0  0  0  0  0
   68.8281   47.2436   53.2197 C   0  0  0  0  0  0  0  0  0  0  0  0
   69.5856   48.2315   53.8095 C   0  0  0  0  0  0  0  0  0  0  0  0
   69.8013   48.1279   55.1376 N   0  0  0  0  0  0  0  0  0  0  0  0
   69.3400   47.1639   55.8784 N   0  0  0  0  0  0  0  0  0  0  0  0
   70.1141   49.4091   53.0508 C   0  0  0  0  0  0  0  0  0  0  0  0
   70.0204   50.6557   53.8525 C   0  0  0  0  0  0  0  0  0  0  0  0
   71.0774   51.2921   54.4529 C   0  0  0  0  0  0  0  0  0  0  0  0
   70.8680   52.4764   55.1735 C   0  0  0  0  0  0  0  0  0  0  0  0
   69.5878   52.9800   55.2655 C   0  0  0  0  0  0  0  0  0  0  0  0
   68.5016   52.3708   54.6787 C   0  0  0  0  0  0  0  0  0  0  0  0
   68.7354   51.2112   53.9768 C   0  0  0  0  0  0  0  0  0  0  0  0
   69.6508   47.1823   57.2892 C   0  0  0  0  0  0  0  0  0  0  0  0
   70.0482   48.5212   57.8083 C   0  0  0  0  0  0  0  0  0  0  0  0
   69.0289   49.5117   57.7880 N   0  0  0  0  0  0  0  0  0  0  0  0
   67.7017   49.3181   57.5625 C   0  0  0  0  0  0  0  0  0  0  0  0
   67.0911   50.5461   57.6352 C   0  0  0  0  0  0  0  0  0  0  0  0
   68.0564   51.4557   57.9004 N   0  0  0  0  0  0  0  0  0  0  0  0
   69.2425   50.8257   57.9951 C   0  0  0  0  0  0  0  0  0  0  0  0
  1  2  2  0
  2  3  1  0
  2 11  1  0
  3  4  2  0
  3  8  1  0
  4  5  1  0
  5  6  2  0
  6  7  1  0
  7  8  2  0
  8  9  1  0
  9 12  1  0
  9 10  2  0
 12 13  1  0
 13 14  2  0
 13 18  1  0
 14 15  1  0
 15 16  2  0
 16 17  1  0
 17 18  2  0
 10 11  1  0
 11 19  1  0
 19 20  1  0
 20 21  1  0
 21 22  1  0
 21 25  1  0
 22 23  2  0
 23 24  1  0
 24 25  2  0
M  END
>  <minimizedAffinity>  (759) 
-8.52286

$$$$
data/200k_reference_output/data/smiles/64282.pdb
     RDKit          3D

 25 28  0  0  0  0  0  0  0  0999 V2000
   71.0869   45.8506   58.2950 C   0  0  0  0  0  0  0  0  0  0  0  0
   71.8919   46.7313   58.9842 C   0  0  0  0  0  0  0  0  0  0  0  0
   71.7476   48.1015   58.8394 C   0  0  0  0  0  0  0  0  0  0  0  0
   70.7845   48.5856   57.9928 C   0  0  0  0  0  0  0  0  0  0  0  0
   69.9338   47.7407   57.2634 C   0  0  0  0  0  0  0  0  0  0  0  0
   70.1345   46.4015   57.4581 C   0  0  0  0  0  0  0  0  0  0  0  0
   73.3162   44.0598   57.3269 O   0  0  0  0  0  0  0  0  0  0  0  0
   72.3239   43.6323   57.9753 C   0  0  0  0  0  0  0  0  0  0  0  0
   72.0940   42.2377   58.3552 C   0  0  0  0  0  0  0  0  0  0  0  0
   70.9485   42.1783   59.0260 C   0  0  0  0  0  0  0  0  0  0  0  0
   70.3753   43.5345   59.1149 C   0  0  0  0  0  0  0  0  0  0  0  0
   69.2876   43.8770   59.6818 O   0  0  0  0  0  0  0  0  0  0  0  0
   71.2459   44.4440   58.4520 N   0  0  0  0  0  0  0  0  0  0  0  0
   68.8949   48.3461   56.3784 C   0  0  0  0  0  0  0  0  0  0  0  0
   69.2862   48.4558   54.9692 C   0  0  0  0  0  0  0  0  0  0  0  0
   70.1699   49.4212   54.5649 N   0  0  0  0  0  0  0  0  0  0  0  0
   70.5952   49.5330   53.3238 N   0  0  0  0  0  0  0  0  0  0  0  0
   70.1953   48.7052   52.3466 C   0  0  0  0  0  0  0  0  0  0  0  0
   70.5710   48.7700   51.1566 O   0  0  0  0  0  0  0  0  0  0  0  0
   69.2916   47.6964   52.6893 C   0  0  0  0  0  0  0  0  0  0  0  0
   68.8284   46.8227   51.7305 C   0  0  0  0  0  0  0  0  0  0  0  0
   67.9206   45.8214   52.0258 C   0  0  0  0  0  0  0  0  0  0  0  0
   67.4768   45.7112   53.3237 C   0  0  0  0  0  0  0  0  0  0  0  0
   67.9438   46.5861   54.2755 C   0  0  0  0  0  0  0  0  0  0  0  0
   68.8532   47.5906   53.9947 C   0  0  0  0  0  0  0  0  0  0  0  0
  7  8  2  0
  8  9  1  0
  8 13  1  0
  9 10  2  0
 10 11  1  0
 11 12  2  0
 11 13  1  0
 13  1  1  0
  1  2  2  0
  1  6  1  0
  2  3  1  0
  3  4  2  0
  4  5  1  0
  5 14  1  0
  5  6  2  0
 14 15  1  0
 15 16  2  0
 15 25  1  0
 16 17  1  0
 17 18  1  0
 18 19  2  0
 18 20  1  0
 20 21  1  0
 20 25  2  0
 21 22  2  0
 22 23  1  0
 23 24  2  0
 24 25  1  0
M  END
>  <minimizedAffinity>  (760) 
-8.99159

$$$$
data/200k_reference_output/data/smiles/64357.pdb
     RDKit          3D

 28 30  0  0  0  0  0  0  0  0999 V2000
   68.3590   44.0677   56.2354 N   0  0  0  0  0  0  0  0  0  0  0  0
   67.6521   42.8466   56.1376 C   0  0  0  0  0  0  0  0  0  0  0  0
   66.9505   42.6884   55.0892 O   0  0  0  0  0  0  0  0  0  0  0  0
   68.8712   47.4842   54.9808 C   0  0  0  0  0  0  0  0  0  0  0  0
   68.8078   46.3688   55.7850 C   0  0  0  0  0  0  0  0  0  0  0  0
   68.3747   45.1194   55.3102 C   0  0  0  0  0  0  0  0  0  0  0  0
   68.0264   45.1110   53.9989 C   0  0  0  0  0  0  0  0  0  0  0  0
   68.0754   46.2109   53.1581 C   0  0  0  0  0  0  0  0  0  0  0  0
   68.5017   47.4021   53.6592 C   0  0  0  0  0  0  0  0  0  0  0  0
   69.1900   49.8394   54.8182 O   0  0  0  0  0  0  0  0  0  0  0  0
   69.3236   48.7825   55.4835 C   0  0  0  0  0  0  0  0  0  0  0  0
   69.9289   48.9043   56.7330 O   0  0  0  0  0  0  0  0  0  0  0  0
   67.6717   46.0729   51.7582 C   0  0  0  0  0  0  0  0  0  0  0  0
   68.1942   46.8099   50.8869 O   0  0  0  0  0  0  0  0  0  0  0  0
   66.7256   45.1518   51.3476 O   0  0  0  0  0  0  0  0  0  0  0  0
   67.6810   41.7853   57.1468 C   0  0  0  0  0  0  0  0  0  0  0  0
   68.0584   40.5029   56.7793 C   0  0  0  0  0  0  0  0  0  0  0  0
   68.0990   39.4779   57.6961 C   0  0  0  0  0  0  0  0  0  0  0  0
   67.7648   39.6837   59.0230 C   0  0  0  0  0  0  0  0  0  0  0  0
   67.3897   40.9510   59.3995 C   0  0  0  0  0  0  0  0  0  0  0  0
   67.3528   41.9838   58.4553 C   0  0  0  0  0  0  0  0  0  0  0  0
   67.0400   41.1971   60.7430 N   0  0  0  0  0  0  0  0  0  0  0  0
   67.3905   42.3023   61.5625 C   0  0  0  0  0  0  0  0  0  0  0  0
   67.6341   43.4769   61.1738 O   0  0  0  0  0  0  0  0  0  0  0  0
   67.4174   41.8223   62.9612 C   0  0  0  0  0  0  0  0  0  0  0  0
   66.6236   40.5626   62.9956 C   0  0  0  0  0  0  0  0  0  0  0  0
   66.2421   40.3661   61.5696 C   0  0  0  0  0  0  0  0  0  0  0  0
   65.3295   39.5533   61.2512 O   0  0  0  0  0  0  0  0  0  0  0  0
 10 11  2  0
 11 12  1  0
 11  4  1  0
  4  5  2  0
  4  9  1  0
  5  6  1  0
  6  1  1  0
  6  7  2  0
  1  2  1  0
  2  3  2  0
  2 16  1  0
 16 17  2  0
 16 21  1  0
 17 18  1  0
 18 19  2  0
 19 20  1  0
 20 22  1  0
 20 21  2  0
 22 23  1  0
 22 27  1  0
 23 24  2  0
 23 25  1  0
 25 26  1  0
 26 27  1  0
 27 28  2  0
  7  8  1  0
  8 13  1  0
  8  9  2  0
 13 14  2  0
 13 15  1  0
M  END
>  <minimizedAffinity>  (761) 
-8.58553

$$$$
data/200k_reference_output/data/smiles/64361.pdb
     RDKit          3D

 27 28  0  0  0  0  0  0  0  0999 V2000
   67.3120   41.4377   57.9459 C   0  0  0  0  0  0  0  0  0  0  0  0
   69.3066   40.0690   58.6673 C   0  0  0  0  0  0  0  0  0  0  0  0
   69.7765   41.1492   59.1395 O   0  0  0  0  0  0  0  0  0  0  0  0
   68.0366   40.1676   58.0415 N   0  0  0  0  0  0  0  0  0  0  0  0
   71.4939   36.4048   59.0398 C   0  0  0  0  0  0  0  0  0  0  0  0
   71.9065   37.3859   58.1678 C   0  0  0  0  0  0  0  0  0  0  0  0
   71.1959   38.5859   58.0410 C   0  0  0  0  0  0  0  0  0  0  0  0
   70.0614   38.8213   58.7851 C   0  0  0  0  0  0  0  0  0  0  0  0
   69.6742   37.8177   59.6508 C   0  0  0  0  0  0  0  0  0  0  0  0
   70.3593   36.6294   59.7907 C   0  0  0  0  0  0  0  0  0  0  0  0
   71.3942   34.0705   59.8911 C   0  0  0  0  0  0  0  0  0  0  0  0
   72.2006   35.1207   59.2165 C   0  0  0  0  0  0  0  0  0  0  0  0
   72.6318   34.6206   57.8631 C   0  0  0  0  0  0  0  0  0  0  0  0
   73.4713   35.3346   60.0450 C   0  0  0  0  0  0  0  0  0  0  0  0
   67.5161   42.0484   56.6186 C   0  0  0  0  0  0  0  0  0  0  0  0
   67.4556   41.3313   55.6045 O   0  0  0  0  0  0  0  0  0  0  0  0
   67.7777   43.4252   56.4878 N   0  0  0  0  0  0  0  0  0  0  0  0
   67.9794   44.0482   55.2275 N   0  0  0  0  0  0  0  0  0  0  0  0
   68.2059   45.4284   55.1840 C   0  0  0  0  0  0  0  0  0  0  0  0
   68.2240   46.0747   56.2618 O   0  0  0  0  0  0  0  0  0  0  0  0
   68.4261   46.1826   53.9485 C   0  0  0  0  0  0  0  0  0  0  0  0
   69.2384   47.2999   53.9101 C   0  0  0  0  0  0  0  0  0  0  0  0
   69.4390   48.0056   52.7385 C   0  0  0  0  0  0  0  0  0  0  0  0
   68.8365   47.6244   51.5563 C   0  0  0  0  0  0  0  0  0  0  0  0
   68.0301   46.5143   51.5957 C   0  0  0  0  0  0  0  0  0  0  0  0
   67.8261   45.8077   52.7585 C   0  0  0  0  0  0  0  0  0  0  0  0
   66.9973   44.7041   52.7001 O   0  0  0  0  0  0  0  0  0  0  0  0
 11 12  1  0
 12 13  1  0
 12 14  1  0
 12  5  1  0
  5  6  2  0
  5 10  1  0
  6  7  1  0
  7  8  2  0
  8  2  1  0
  8  9  1  0
  2  3  2  0
  2  4  1  0
  4  1  1  0
  1 15  1  0
 15 16  2  0
 15 17  1  0
 17 18  1  0
 18 19  1  0
 19 20  2  0
 19 21  1  0
 21 22  2  0
 21 26  1  0
 22 23  1  0
 23 24  2  0
 24 25  1  0
 25 26  2  0
 26 27  1  0
  9 10  2  0
M  END
>  <minimizedAffinity>  (762) 
-9.28348

$$$$
data/200k_reference_output/data/smiles/64370.pdb
     RDKit          3D

 29 31  0  0  0  0  0  0  0  0999 V2000
   68.3401   46.0378   53.9838 C   0  0  0  0  0  0  0  0  0  0  0  0
   69.0399   47.2315   54.0310 C   0  0  0  0  0  0  0  0  0  0  0  0
   69.2226   48.0352   52.9280 C   0  0  0  0  0  0  0  0  0  0  0  0
   68.6908   47.6394   51.7246 C   0  0  0  0  0  0  0  0  0  0  0  0
   67.9931   46.4710   51.6287 C   0  0  0  0  0  0  0  0  0  0  0  0
   67.8301   45.6833   52.7721 C   0  0  0  0  0  0  0  0  0  0  0  0
   67.1186   44.5352   52.5752 F   0  0  0  0  0  0  0  0  0  0  0  0
   67.7773   43.8905   55.2587 N   0  0  0  0  0  0  0  0  0  0  0  0
   68.1731   45.2294   55.1602 C   0  0  0  0  0  0  0  0  0  0  0  0
   68.4132   45.7854   56.3018 O   0  0  0  0  0  0  0  0  0  0  0  0
   67.4481   41.1700   55.5224 O   0  0  0  0  0  0  0  0  0  0  0  0
   67.4858   41.8169   56.6034 C   0  0  0  0  0  0  0  0  0  0  0  0
   67.6529   43.2118   56.4928 N   0  0  0  0  0  0  0  0  0  0  0  0
   67.3567   41.1078   57.8683 C   0  0  0  0  0  0  0  0  0  0  0  0
   67.9768   39.9084   58.1208 C   0  0  0  0  0  0  0  0  0  0  0  0
   67.8203   39.2760   59.3398 C   0  0  0  0  0  0  0  0  0  0  0  0
   67.0494   39.8176   60.3267 C   0  0  0  0  0  0  0  0  0  0  0  0
   66.4116   41.0275   60.0987 C   0  0  0  0  0  0  0  0  0  0  0  0
   65.4163   41.7387   61.3564 Cl  0  0  0  0  0  0  0  0  0  0  0  0
   66.5805   41.6428   58.8760 C   0  0  0  0  0  0  0  0  0  0  0  0
   70.1188   49.5303   53.0648 S   0  0  0  0  0  0  0  0  0  0  0  0
   71.5808   49.1801   53.0410 O   0  0  0  0  0  0  0  0  0  0  0  0
   69.8625   50.4461   51.8971 O   0  0  0  0  0  0  0  0  0  0  0  0
   69.7936   50.3743   54.5052 N   0  0  0  0  0  0  0  0  0  0  0  0
   70.9478   50.7124   55.2748 C   0  0  0  0  0  0  0  0  0  0  0  0
   71.2642   52.1763   55.0161 C   0  0  0  0  0  0  0  0  0  0  0  0
   70.2869   53.0185   55.4891 O   0  0  0  0  0  0  0  0  0  0  0  0
   69.0268   52.4723   55.4475 C   0  0  0  0  0  0  0  0  0  0  0  0
   68.8505   51.4452   54.3552 C   0  0  0  0  0  0  0  0  0  0  0  0
 11 12  2  0
 12 13  1  0
 12 14  1  0
 13  8  1  0
  8  9  1  0
  9 10  2  0
  9  1  1  0
  1  2  2  0
  1  6  1  0
  2  3  1  0
  3 21  1  0
  3  4  2  0
 21 22  2  0
 21 23  2  0
 21 24  1  0
 24 25  1  0
 24 29  1  0
 25 26  1  0
 26 27  1  0
 27 28  1  0
 28 29  1  0
  4  5  1  0
  5  6  2  0
  6  7  1  0
 14 15  2  0
 14 20  1  0
 15 16  1  0
 16 17  2  0
 17 18  1  0
 18 19  1  0
 18 20  2  0
M  END
>  <minimizedAffinity>  (763) 
-9.81105

$$$$
data/200k_reference_output/data/smiles/64514.pdb
     RDKit          3D

 26 28  0  0  0  0  0  0  0  0999 V2000
   67.7944   45.4478   52.8309 C   0  0  0  0  0  0  0  0  0  0  0  0
   68.5648   46.7176   52.8655 C   0  0  0  0  0  0  0  0  0  0  0  0
   69.4043   47.0786   51.8407 C   0  0  0  0  0  0  0  0  0  0  0  0
   70.1170   48.2590   51.8794 C   0  0  0  0  0  0  0  0  0  0  0  0
   69.9754   49.0866   52.9759 C   0  0  0  0  0  0  0  0  0  0  0  0
   69.1265   48.7398   54.0333 C   0  0  0  0  0  0  0  0  0  0  0  0
   68.4302   47.5645   53.9712 C   0  0  0  0  0  0  0  0  0  0  0  0
   69.0375   49.6319   55.1286 N   0  0  0  0  0  0  0  0  0  0  0  0
   68.9756   49.1287   56.4237 C   0  0  0  0  0  0  0  0  0  0  0  0
   68.8385   50.0179   57.3456 O   0  0  0  0  0  0  0  0  0  0  0  0
   69.0393   51.0501   54.8014 C   0  0  0  0  0  0  0  0  0  0  0  0
   70.0182   51.3848   53.7178 C   0  0  0  0  0  0  0  0  0  0  0  0
   70.6394   50.2788   53.1082 O   0  0  0  0  0  0  0  0  0  0  0  0
   69.0421   47.7454   56.9059 C   0  0  0  0  0  0  0  0  0  0  0  0
   70.3128   47.5122   57.7293 C   0  0  0  0  0  0  0  0  0  0  0  0
   70.4113   46.1155   58.2109 C   0  0  0  0  0  0  0  0  0  0  0  0
   70.8058   45.9605   59.3878 O   0  0  0  0  0  0  0  0  0  0  0  0
   70.0909   44.9947   57.4285 N   0  0  0  0  0  0  0  0  0  0  0  0
   70.2049   43.6845   57.9313 C   0  0  0  0  0  0  0  0  0  0  0  0
   69.2682   42.6755   57.4272 C   0  0  0  0  0  0  0  0  0  0  0  0
   69.2993   41.3522   57.8307 C   0  0  0  0  0  0  0  0  0  0  0  0
   68.3987   40.4685   57.2962 C   0  0  0  0  0  0  0  0  0  0  0  0
   67.4559   40.8491   56.3665 C   0  0  0  0  0  0  0  0  0  0  0  0
   67.4026   42.1594   55.9459 C   0  0  0  0  0  0  0  0  0  0  0  0
   66.4923   42.5875   55.0299 F   0  0  0  0  0  0  0  0  0  0  0  0
   68.3250   43.0487   56.4982 C   0  0  0  0  0  0  0  0  0  0  0  0
  1  2  1  0
  2  3  2  0
  2  7  1  0
  3  4  1  0
  4  5  2  0
  5  6  1  0
  5 13  1  0
  6  7  2  0
  6  8  1  0
  8  9  1  0
  8 11  1  0
  9 10  2  0
  9 14  1  0
 14 15  1  0
 15 16  1  0
 16 17  2  0
 16 18  1  0
 18 19  1  0
 19 20  1  0
 20 21  2  0
 20 26  1  0
 21 22  1  0
 22 23  2  0
 23 24  1  0
 24 25  1  0
 24 26  2  0
 11 12  1  0
 12 13  1  0
M  END
>  <minimizedAffinity>  (764) 
-8.83824

$$$$
data/200k_reference_output/data/smiles/64559.pdb
     RDKit          3D

 27 29  0  0  0  0  0  0  0  0999 V2000
   74.4056   42.4507   58.4587 C   0  0  0  0  0  0  0  0  0  0  0  0
   73.0486   41.8704   58.3593 C   0  0  0  0  0  0  0  0  0  0  0  0
   72.8269   40.5378   58.6096 C   0  0  0  0  0  0  0  0  0  0  0  0
   71.5524   40.0253   58.5088 C   0  0  0  0  0  0  0  0  0  0  0  0
   70.5521   40.8842   58.1577 C   0  0  0  0  0  0  0  0  0  0  0  0
   70.7163   42.2462   57.8906 C   0  0  0  0  0  0  0  0  0  0  0  0
   71.9939   42.7285   57.9985 C   0  0  0  0  0  0  0  0  0  0  0  0
   72.2548   44.0236   57.7482 F   0  0  0  0  0  0  0  0  0  0  0  0
   71.3478   38.6486   58.7735 N   0  0  0  0  0  0  0  0  0  0  0  0
   71.8549   37.6104   58.0942 C   0  0  0  0  0  0  0  0  0  0  0  0
   71.4088   36.4201   58.6800 C   0  0  0  0  0  0  0  0  0  0  0  0
   71.7148   35.1545   58.2679 F   0  0  0  0  0  0  0  0  0  0  0  0
   70.6193   36.8239   59.7326 C   0  0  0  0  0  0  0  0  0  0  0  0
   70.6110   38.1760   59.7506 N   0  0  0  0  0  0  0  0  0  0  0  0
   69.5712   43.0659   57.5449 C   0  0  0  0  0  0  0  0  0  0  0  0
   68.4768   42.7192   58.1102 O   0  0  0  0  0  0  0  0  0  0  0  0
   69.4937   44.1634   56.6968 N   0  0  0  0  0  0  0  0  0  0  0  0
   68.4573   44.9657   56.3482 N   0  0  0  0  0  0  0  0  0  0  0  0
   68.6000   46.5247   55.8214 S   0  0  0  0  0  0  0  0  0  0  0  0
   69.8469   47.2076   56.3935 O   0  0  0  0  0  0  0  0  0  0  0  0
   67.3781   47.3155   56.3150 O   0  0  0  0  0  0  0  0  0  0  0  0
   68.6198   46.7692   54.0876 C   0  0  0  0  0  0  0  0  0  0  0  0
   69.2856   47.8396   53.5595 C   0  0  0  0  0  0  0  0  0  0  0  0
   69.2886   47.9933   52.1885 C   0  0  0  0  0  0  0  0  0  0  0  0
   68.6547   47.1245   51.3315 C   0  0  0  0  0  0  0  0  0  0  0  0
   67.9934   46.0576   51.9083 C   0  0  0  0  0  0  0  0  0  0  0  0
   67.9575   45.8545   53.2626 C   0  0  0  0  0  0  0  0  0  0  0  0
  1  2  1  0
  2  3  2  0
  2  7  1  0
  3  4  1  0
  4  9  1  0
  4  5  2  0
  9 10  1  0
  9 14  1  0
 10 11  2  0
 11 12  1  0
 11 13  1  0
 13 14  2  0
  5  6  1  0
  6 15  1  0
  6  7  2  0
 15 16  2  0
 15 17  1  0
 17 18  1  0
 18 19  1  0
 19 20  2  0
 19 21  2  0
 19 22  1  0
 22 23  2  0
 22 27  1  0
 23 24  1  0
 24 25  2  0
 25 26  1  0
 26 27  2  0
  7  8  1  0
M  END
>  <minimizedAffinity>  (765) 
-9.18637

$$$$
data/200k_reference_output/data/smiles/64763.pdb
     RDKit          3D

 30 33  0  0  0  0  0  0  0  0999 V2000
   65.8369   42.4436   60.3381 O   0  0  0  0  0  0  0  0  0  0  0  0
   66.5578   41.6573   59.6799 C   0  0  0  0  0  0  0  0  0  0  0  0
   67.4597   42.1496   58.8108 N   0  0  0  0  0  0  0  0  0  0  0  0
   68.2244   41.2974   58.1132 C   0  0  0  0  0  0  0  0  0  0  0  0
   69.0993   41.8057   57.2696 C   0  0  0  0  0  0  0  0  0  0  0  0
   68.0591   39.9348   58.3111 C   0  0  0  0  0  0  0  0  0  0  0  0
   68.8010   39.1499   57.6327 O   0  0  0  0  0  0  0  0  0  0  0  0
   67.1573   39.4424   59.1792 N   0  0  0  0  0  0  0  0  0  0  0  0
   66.3860   40.2898   59.8827 C   0  0  0  0  0  0  0  0  0  0  0  0
   65.4780   39.8617   60.7557 C   0  0  0  0  0  0  0  0  0  0  0  0
   69.2579   43.2461   57.0764 C   0  0  0  0  0  0  0  0  0  0  0  0
   70.1879   43.9840   57.7981 C   0  0  0  0  0  0  0  0  0  0  0  0
   70.3641   45.3443   57.6412 C   0  0  0  0  0  0  0  0  0  0  0  0
   69.5668   45.9817   56.7169 C   0  0  0  0  0  0  0  0  0  0  0  0
   68.6257   45.3034   55.9690 C   0  0  0  0  0  0  0  0  0  0  0  0
   68.4939   43.9454   56.1685 C   0  0  0  0  0  0  0  0  0  0  0  0
   67.8147   45.9546   55.0276 O   0  0  0  0  0  0  0  0  0  0  0  0
   68.4625   46.6531   54.0242 C   0  0  0  0  0  0  0  0  0  0  0  0
   68.5865   46.1923   52.7228 C   0  0  0  0  0  0  0  0  0  0  0  0
   69.2367   46.9136   51.7509 C   0  0  0  0  0  0  0  0  0  0  0  0
   69.7831   48.1314   52.0784 C   0  0  0  0  0  0  0  0  0  0  0  0
   70.4389   48.8938   51.1679 F   0  0  0  0  0  0  0  0  0  0  0  0
   69.6836   48.6281   53.3637 C   0  0  0  0  0  0  0  0  0  0  0  0
   69.0157   47.8732   54.3322 C   0  0  0  0  0  0  0  0  0  0  0  0
   65.2833   38.4420   60.9830 C   0  0  0  0  0  0  0  0  0  0  0  0
   64.5568   37.6399   60.1307 C   0  0  0  0  0  0  0  0  0  0  0  0
   64.4114   36.2766   60.4162 C   0  0  0  0  0  0  0  0  0  0  0  0
   64.9752   35.7207   61.5223 C   0  0  0  0  0  0  0  0  0  0  0  0
   65.7031   36.5148   62.3794 C   0  0  0  0  0  0  0  0  0  0  0  0
   65.8529   37.8792   62.1021 C   0  0  0  0  0  0  0  0  0  0  0  0
  1  2  2  0
  2  3  1  0
  2  9  1  0
  3  4  1  0
  4  5  2  0
  4  6  1  0
  5 11  1  0
 11 12  2  0
 11 16  1  0
 12 13  1  0
 13 14  2  0
 14 15  1  0
 15 17  1  0
 15 16  2  0
 17 18  1  0
 18 19  2  0
 18 24  1  0
 19 20  1  0
 20 21  2  0
 21 22  1  0
 21 23  1  0
 23 24  2  0
  6  7  2  0
  6  8  1  0
  8  9  1  0
  9 10  2  0
 10 25  1  0
 25 26  2  0
 25 30  1  0
 26 27  1  0
 27 28  2  0
 28 29  1  0
 29 30  2  0
M  END
>  <minimizedAffinity>  (766) 
-9.62400

$$$$
data/200k_reference_output/data/smiles/64867.pdb
     RDKit          3D

 25 28  0  0  0  0  0  0  0  0999 V2000
   70.6162   38.8089   58.4215 C   0  0  0  0  0  0  0  0  0  0  0  0
   71.3112   40.0002   58.3927 C   0  0  0  0  0  0  0  0  0  0  0  0
   70.4538   41.0341   58.3932 N   0  0  0  0  0  0  0  0  0  0  0  0
   69.2127   40.5200   58.4211 C   0  0  0  0  0  0  0  0  0  0  0  0
   69.3225   39.1580   58.4377 N   0  0  0  0  0  0  0  0  0  0  0  0
   68.0302   41.4129   58.4313 C   0  0  0  0  0  0  0  0  0  0  0  0
   68.2639   42.7045   58.0542 O   0  0  0  0  0  0  0  0  0  0  0  0
   69.4529   42.8792   57.3710 C   0  0  2  0  0  0  0  0  0  0  0  0
   70.5405   42.4844   58.3674 C   0  0  0  0  0  0  0  0  0  0  0  0
   72.9371   33.5343   58.4557 C   0  0  0  0  0  0  0  0  0  0  0  0
   72.3254   34.8917   58.4628 C   0  0  0  0  0  0  0  0  0  0  0  0
   71.3611   35.2553   59.3806 C   0  0  0  0  0  0  0  0  0  0  0  0
   70.8116   36.5335   59.3578 C   0  0  0  0  0  0  0  0  0  0  0  0
   71.2045   37.4748   58.4284 C   0  0  0  0  0  0  0  0  0  0  0  0
   72.1646   37.1103   57.5150 C   0  0  0  0  0  0  0  0  0  0  0  0
   72.7102   35.8500   57.5337 C   0  0  0  0  0  0  0  0  0  0  0  0
   69.5991   44.3051   56.9182 C   0  0  0  0  0  0  0  0  0  0  0  0
   68.5197   44.7643   56.1125 N   0  0  0  0  0  0  0  0  0  0  0  0
   68.6239   46.1596   55.7418 C   0  0  0  0  0  0  0  0  0  0  0  0
   68.4677   46.2999   54.2707 C   0  0  0  0  0  0  0  0  0  0  0  0
   67.7037   45.4300   53.5179 C   0  0  0  0  0  0  0  0  0  0  0  0
   67.5780   45.5907   52.1368 C   0  0  0  0  0  0  0  0  0  0  0  0
   68.2241   46.6341   51.5064 C   0  0  0  0  0  0  0  0  0  0  0  0
   68.9618   47.4693   52.2588 N   0  0  0  0  0  0  0  0  0  0  0  0
   69.0926   47.3252   53.5920 C   0  0  0  0  0  0  0  0  0  0  0  0
 10 11  1  0
 11 12  2  0
 11 16  1  0
 12 13  1  0
 13 14  2  0
 14  1  1  0
 14 15  1  0
  1  2  2  0
  1  5  1  0
  2  3  1  0
  3  4  1  0
  3  9  1  0
  4  5  2  0
  4  6  1  0
  6  7  1  0
  7  8  1  0
  8 17  1  1
  8  9  1  0
 17 18  1  0
 18 19  1  0
 19 20  1  0
 20 21  2  0
 20 25  1  0
 21 22  1  0
 22 23  2  0
 23 24  1  0
 24 25  2  0
 15 16  2  0
M  CHG  1  18   1
M  END
>  <minimizedAffinity>  (767) 
-8.67183

$$$$
data/200k_reference_output/data/smiles/64871.pdb
     RDKit          3D

 23 25  0  0  0  0  0  0  0  0999 V2000
   68.9817   47.4974   56.4669 O   0  0  0  0  0  0  0  0  0  0  0  0
   69.2938   47.9566   55.2057 C   0  0  0  0  0  0  0  0  0  0  0  0
   70.0629   49.0818   54.9818 C   0  0  0  0  0  0  0  0  0  0  0  0
   70.3277   49.4708   53.6884 C   0  0  0  0  0  0  0  0  0  0  0  0
   71.0264   50.4936   53.4223 O   0  0  0  0  0  0  0  0  0  0  0  0
   69.8590   48.7870   52.6586 O   0  0  0  0  0  0  0  0  0  0  0  0
   69.1203   47.7055   52.7984 C   0  0  0  0  0  0  0  0  0  0  0  0
   68.6460   47.0146   51.6840 C   0  0  0  0  0  0  0  0  0  0  0  0
   67.8730   45.8823   51.8464 C   0  0  0  0  0  0  0  0  0  0  0  0
   67.5822   45.4546   53.1247 C   0  0  0  0  0  0  0  0  0  0  0  0
   68.0586   46.1499   54.2161 C   0  0  0  0  0  0  0  0  0  0  0  0
   68.8404   47.2940   54.0831 C   0  0  0  0  0  0  0  0  0  0  0  0
   69.9490   47.0146   57.3768 C   0  0  0  0  0  0  0  0  0  0  0  0
   69.8823   45.2594   58.9180 O   0  0  0  0  0  0  0  0  0  0  0  0
   69.7125   45.5899   57.7295 C   0  0  0  0  0  0  0  0  0  0  0  0
   69.3154   44.6633   56.7659 N   0  0  0  0  0  0  0  0  0  0  0  0
   69.0603   43.3025   56.9593 C   0  0  0  0  0  0  0  0  0  0  0  0
   67.9528   42.7366   56.2961 C   0  0  0  0  0  0  0  0  0  0  0  0
   67.6278   41.4106   56.4279 C   0  0  0  0  0  0  0  0  0  0  0  0
   68.3784   40.5708   57.2228 C   0  0  0  0  0  0  0  0  0  0  0  0
   68.0235   39.2759   57.3229 F   0  0  0  0  0  0  0  0  0  0  0  0
   69.4578   41.1209   57.8693 C   0  0  0  0  0  0  0  0  0  0  0  0
   69.7928   42.4636   57.7405 C   0  0  0  0  0  0  0  0  0  0  0  0
 14 15  2  0
 15 13  1  0
 15 16  1  0
 13  1  1  0
  1  2  1  0
  2  3  2  0
  2 12  1  0
  3  4  1  0
  4  5  2  0
  4  6  1  0
  6  7  1  0
  7  8  1  0
  7 12  2  0
  8  9  2  0
  9 10  1  0
 10 11  2  0
 11 12  1  0
 16 17  1  0
 17 18  2  0
 17 23  1  0
 18 19  1  0
 19 20  2  0
 20 21  1  0
 20 22  1  0
 22 23  2  0
M  END
>  <minimizedAffinity>  (768) 
-8.67807

$$$$
data/200k_reference_output/data/smiles/65041.pdb
     RDKit          3D

 23 24  0  0  0  0  0  0  0  0999 V2000
   69.5712   45.7517   57.3118 C   0  0  0  0  0  0  0  0  0  0  0  0
   70.6312   46.8597   57.9626 S   0  0  0  0  0  0  0  0  0  0  0  0
   69.8559   44.3883   57.6019 N   0  0  0  0  0  0  0  0  0  0  0  0
   69.1080   43.2520   57.2361 C   0  0  0  0  0  0  0  0  0  0  0  0
   68.0496   43.4066   56.5790 O   0  0  0  0  0  0  0  0  0  0  0  0
   69.5475   41.8903   57.6142 C   0  0  0  0  0  0  0  0  0  0  0  0
   70.8238   41.5632   57.9791 C   0  0  0  0  0  0  0  0  0  0  0  0
   71.2048   40.2872   58.3558 C   0  0  0  0  0  0  0  0  0  0  0  0
   70.2567   39.2944   58.3654 C   0  0  0  0  0  0  0  0  0  0  0  0
   70.7384   37.6864   58.8419 Cl  0  0  0  0  0  0  0  0  0  0  0  0
   68.9409   39.5851   57.9997 C   0  0  0  0  0  0  0  0  0  0  0  0
   68.6208   40.8768   57.6334 C   0  0  0  0  0  0  0  0  0  0  0  0
   68.5588   46.1901   56.4957 N   0  0  0  0  0  0  0  0  0  0  0  0
   69.2190   47.7989   53.2169 C   0  0  0  0  0  0  0  0  0  0  0  0
   68.6332   46.9186   52.3350 C   0  0  0  0  0  0  0  0  0  0  0  0
   68.0317   45.7892   52.8043 C   0  0  0  0  0  0  0  0  0  0  0  0
   68.0162   45.5313   54.1788 C   0  0  0  0  0  0  0  0  0  0  0  0
   68.5792   46.3671   55.0979 C   0  0  0  0  0  0  0  0  0  0  0  0
   69.1902   47.5225   54.5627 C   0  0  0  0  0  0  0  0  0  0  0  0
   71.5303   49.4294   53.3213 N   0  0  0  0  0  0  0  0  0  0  0  0
   69.9827   49.2369   52.5788 S   0  0  0  0  0  0  0  0  0  0  0  0
   69.1859   50.4785   52.8432 O   0  0  0  0  0  0  0  0  0  0  0  0
   70.2159   49.0223   51.1114 O   0  0  0  0  0  0  0  0  0  0  0  0
 20 21  1  0
 21 22  2  0
 21 23  2  0
 21 14  1  0
 14 15  2  0
 14 19  1  0
 15 16  1  0
 16 17  2  0
 17 18  1  0
 18 13  1  0
 18 19  2  0
 13  1  1  0
  1  2  2  0
  1  3  1  0
  3  4  1  0
  4  5  2  0
  4  6  1  0
  6  7  2  0
  6 12  1  0
  7  8  1  0
  8  9  2  0
  9 10  1  0
  9 11  1  0
 11 12  2  0
M  END
>  <minimizedAffinity>  (769) 
-8.75183

$$$$
data/200k_reference_output/data/smiles/65307.pdb
     RDKit          3D

 21 23  0  0  0  0  0  0  0  0999 V2000
   68.8607   40.5534   57.6004 C   0  0  0  0  0  0  0  0  0  0  0  0
   67.8219   40.6781   56.7415 C   0  0  0  0  0  0  0  0  0  0  0  0
   67.4703   41.8930   56.1426 C   0  0  0  0  0  0  0  0  0  0  0  0
   66.5093   41.9740   55.3561 O   0  0  0  0  0  0  0  0  0  0  0  0
   68.2444   42.9581   56.4778 N   0  0  0  0  0  0  0  0  0  0  0  0
   68.1850   44.2135   56.0995 N   0  0  0  0  0  0  0  0  0  0  0  0
   69.1272   44.9717   56.6497 C   0  0  0  0  0  0  0  0  0  0  0  0
   69.8256   44.1020   57.4344 N   0  0  0  0  0  0  0  0  0  0  0  0
   69.2824   42.8733   57.3260 C   0  0  0  0  0  0  0  0  0  0  0  0
   69.5755   41.6725   57.8739 N   0  0  0  0  0  0  0  0  0  0  0  0
   69.2126   39.2902   58.2373 C   0  0  0  0  0  0  0  0  0  0  0  0
   71.2300   37.7963   58.4996 C   0  0  0  0  0  0  0  0  0  0  0  0
   70.6098   39.1412   58.7051 C   0  0  0  0  0  0  0  0  0  0  0  0
   69.3894   46.4103   56.4802 C   0  0  0  0  0  0  0  0  0  0  0  0
   68.3615   47.1548   55.6957 C   0  0  0  0  0  0  0  0  0  0  0  0
   68.5255   47.1400   54.2344 C   0  0  0  0  0  0  0  0  0  0  0  0
   67.8023   46.2117   53.4708 C   0  0  0  0  0  0  0  0  0  0  0  0
   67.9436   46.1390   52.1097 C   0  0  0  0  0  0  0  0  0  0  0  0
   68.7988   46.9706   51.4340 C   0  0  0  0  0  0  0  0  0  0  0  0
   69.5136   47.8836   52.1676 C   0  0  0  0  0  0  0  0  0  0  0  0
   69.3734   47.9599   53.5440 C   0  0  0  0  0  0  0  0  0  0  0  0
 12 13  1  0
 13 11  1  0
 11  1  1  0
  1  2  2  0
  1 10  1  0
  2  3  1  0
  3  4  2  0
  3  5  1  0
  5  6  1  0
  5  9  1  0
  6  7  2  0
  7 14  1  0
  7  8  1  0
 14 15  1  0
 15 16  1  0
 16 17  2  0
 16 21  1  0
 17 18  1  0
 18 19  2  0
 19 20  1  0
 20 21  2  0
  8  9  2  0
  9 10  1  0
M  END
>  <minimizedAffinity>  (770) 
-8.50276

$$$$
data/200k_reference_output/data/smiles/65456.pdb
     RDKit          3D

 26 28  0  0  0  0  0  0  0  0999 V2000
   69.8147   49.6811   56.6506 C   0  0  0  0  0  0  0  0  0  0  0  0
   69.1204   50.3664   57.6180 C   0  0  0  0  0  0  0  0  0  0  0  0
   68.2087   51.3773   57.2991 C   0  0  0  0  0  0  0  0  0  0  0  0
   67.9612   51.7352   55.9945 C   0  0  0  0  0  0  0  0  0  0  0  0
   68.6462   51.0606   55.0137 C   0  0  0  0  0  0  0  0  0  0  0  0
   69.5530   50.0561   55.3246 C   0  0  0  0  0  0  0  0  0  0  0  0
   70.7248   48.6790   56.8516 O   0  0  0  0  0  0  0  0  0  0  0  0
   72.0501   47.3865   59.9634 C   0  0  1  0  0  0  0  0  0  0  0  0
   72.1784   48.0562   58.5889 C   0  0  0  0  0  0  0  0  0  0  0  0
   70.7942   47.8928   57.9739 C   0  0  2  0  0  0  0  0  0  0  0  0
   70.5123   46.4336   57.6949 C   0  0  2  0  0  0  0  0  0  0  0  0
   69.1401   46.3414   57.4341 O   0  0  0  0  0  0  0  0  0  0  0  0
   70.9561   45.4879   58.7220 C   0  0  1  0  0  0  0  0  0  0  0  0
   71.4709   44.3407   58.0680 O   0  0  0  0  0  0  0  0  0  0  0  0
   71.9337   45.9180   59.7231 C   0  0  2  0  0  0  0  0  0  0  0  0
   71.6807   45.3263   60.9811 O   0  0  0  0  0  0  0  0  0  0  0  0
   72.8642   47.9930   62.0657 O   0  0  0  0  0  0  0  0  0  0  0  0
   73.2791   47.7433   60.7370 C   0  0  0  0  0  0  0  0  0  0  0  0
   70.2565   49.3800   54.2314 C   0  0  0  0  0  0  0  0  0  0  0  0
   69.5054   48.2886   53.6223 C   0  0  0  0  0  0  0  0  0  0  0  0
   69.5244   48.0127   52.2775 C   0  0  0  0  0  0  0  0  0  0  0  0
   68.7836   46.9668   51.7416 C   0  0  0  0  0  0  0  0  0  0  0  0
   67.9962   46.1632   52.5504 C   0  0  0  0  0  0  0  0  0  0  0  0
   67.2708   45.1384   52.0189 F   0  0  0  0  0  0  0  0  0  0  0  0
   67.9651   46.4265   53.9015 C   0  0  0  0  0  0  0  0  0  0  0  0
   68.7038   47.4642   54.4175 C   0  0  0  0  0  0  0  0  0  0  0  0
 17 18  1  0
  8 18  1  1
  8  9  1  0
  8 15  1  0
  9 10  1  0
 10  7  1  6
 10 11  1  0
  7  1  1  0
  1  2  2  0
  1  6  1  0
  2  3  1  0
  3  4  2  0
  4  5  1  0
  5  6  2  0
  6 19  1  0
 19 20  1  0
 20 21  2  0
 20 26  1  0
 21 22  1  0
 22 23  2  0
 23 24  1  0
 23 25  1  0
 25 26  2  0
 11 12  1  1
 11 13  1  0
 13 14  1  6
 13 15  1  0
 15 16  1  1
M  END
>  <minimizedAffinity>  (771) 
-8.68374

$$$$
data/200k_reference_output/data/smiles/65716.pdb
     RDKit          3D

 24 26  0  0  0  0  0  0  0  0999 V2000
   73.6668   51.9594   53.4721 O   0  0  0  0  0  0  0  0  0  0  0  0
   72.9807   51.6533   54.5002 C   0  0  0  0  0  0  0  0  0  0  0  0
   73.6906   51.3122   55.6917 N   0  0  0  0  0  0  0  0  0  0  0  0
   75.1151   51.3184   55.7117 N   0  0  0  0  0  0  0  0  0  0  0  0
   75.8501   50.1192   55.8067 C   0  0  0  0  0  0  0  0  0  0  0  0
   75.2252   49.0320   55.8734 O   0  0  0  0  0  0  0  0  0  0  0  0
   77.2989   50.0850   55.8305 C   0  0  0  0  0  0  0  0  0  0  0  0
   78.0650   51.0534   56.4339 C   0  0  0  0  0  0  0  0  0  0  0  0
   79.4666   51.0004   56.4457 C   0  0  0  0  0  0  0  0  0  0  0  0
   80.1399   49.9626   55.8429 C   0  0  0  0  0  0  0  0  0  0  0  0
   79.3742   48.9904   55.2364 C   0  0  0  0  0  0  0  0  0  0  0  0
   77.9990   49.0321   55.2204 C   0  0  0  0  0  0  0  0  0  0  0  0
   71.5025   51.6444   54.4879 C   0  0  0  0  0  0  0  0  0  0  0  0
   70.9367   50.8690   53.4763 O   0  0  0  0  0  0  0  0  0  0  0  0
   70.2162   49.7259   53.7668 C   0  0  0  0  0  0  0  0  0  0  0  0
   69.8844   49.3228   55.0391 C   0  0  0  0  0  0  0  0  0  0  0  0
   69.1583   48.1538   55.2355 C   0  0  0  0  0  0  0  0  0  0  0  0
   68.7749   47.4084   54.1481 C   0  0  0  0  0  0  0  0  0  0  0  0
   68.0494   46.2393   54.3138 C   0  0  0  0  0  0  0  0  0  0  0  0
   67.6608   45.4838   53.2214 C   0  0  0  0  0  0  0  0  0  0  0  0
   67.9985   45.8997   51.9410 C   0  0  0  0  0  0  0  0  0  0  0  0
   68.7158   47.0539   51.7584 C   0  0  0  0  0  0  0  0  0  0  0  0
   69.1029   47.8077   52.8709 C   0  0  0  0  0  0  0  0  0  0  0  0
   69.8216   48.9631   52.6690 C   0  0  0  0  0  0  0  0  0  0  0  0
  1  2  2  0
  2 13  1  0
  2  3  1  0
 13 14  1  0
 14 15  1  0
 15 16  2  0
 15 24  1  0
 16 17  1  0
 17 18  2  0
 18 19  1  0
 18 23  1  0
 19 20  2  0
 20 21  1  0
 21 22  2  0
 22 23  1  0
 23 24  2  0
  3  4  1  0
  4  5  1  0
  5  6  2  0
  5  7  1  0
  7  8  2  0
  7 12  1  0
  8  9  1  0
  9 10  2  0
 10 11  1  0
 11 12  2  0
M  END
>  <minimizedAffinity>  (772) 
-8.79210

$$$$
data/200k_reference_output/data/smiles/65816.pdb
     RDKit          3D

 28 31  0  0  0  0  0  0  0  0999 V2000
   72.1750   43.7923   59.4451 C   0  0  2  0  0  0  0  0  0  0  0  0
   72.8583   43.0584   58.2768 C   0  0  0  0  0  0  0  0  0  0  0  0
   71.8005   42.3775   57.4335 C   0  0  0  0  0  0  0  0  0  0  0  0
   70.4062   42.8864   57.7480 C   0  0  0  0  0  0  0  0  0  0  0  0
   70.4361   44.3809   57.8783 C   0  0  0  0  0  0  0  0  0  0  0  0
   69.6315   45.2247   57.1828 C   0  0  0  0  0  0  0  0  0  0  0  0
   69.7239   46.5967   57.3366 C   0  0  0  0  0  0  0  0  0  0  0  0
   70.6712   47.0452   58.2303 C   0  0  0  0  0  0  0  0  0  0  0  0
   71.5061   46.1945   58.9547 C   0  0  0  0  0  0  0  0  0  0  0  0
   71.3939   44.8606   58.7838 C   0  0  0  0  0  0  0  0  0  0  0  0
   68.6874   47.6921   56.4410 S   0  0  0  0  0  0  0  0  0  0  0  0
   69.3063   49.0730   56.5175 O   0  0  0  0  0  0  0  0  0  0  0  0
   67.3122   47.7399   57.0467 O   0  0  0  0  0  0  0  0  0  0  0  0
   68.6622   47.2193   54.7715 C   0  0  0  0  0  0  0  0  0  0  0  0
   67.9323   46.1450   54.3225 C   0  0  0  0  0  0  0  0  0  0  0  0
   67.9289   45.7861   52.9859 C   0  0  0  0  0  0  0  0  0  0  0  0
   68.6646   46.5097   52.0816 C   0  0  0  0  0  0  0  0  0  0  0  0
   69.3963   47.5815   52.5096 C   0  0  0  0  0  0  0  0  0  0  0  0
   70.1139   48.2777   51.5944 F   0  0  0  0  0  0  0  0  0  0  0  0
   69.3930   47.9349   53.8600 C   0  0  0  0  0  0  0  0  0  0  0  0
   73.1802   44.2177   60.4347 C   0  0  0  0  0  0  0  0  0  0  0  0
   72.6140   44.5498   61.7088 N   0  0  0  0  0  0  0  0  0  0  0  0
   70.4334   41.3658   64.6742 O   0  0  0  0  0  0  0  0  0  0  0  0
   70.6615   42.1714   63.7420 C   0  0  0  0  0  0  0  0  0  0  0  0
   69.6837   42.5492   62.6976 C   0  0  0  0  0  0  0  0  0  0  0  0
   70.4245   43.4828   61.8869 N   0  0  0  0  0  0  0  0  0  0  0  0
   71.6115   43.6886   62.2799 C   0  0  0  0  0  0  0  0  0  0  0  0
   71.8384   42.9026   63.4402 N   0  0  0  0  0  0  0  0  0  0  0  0
 23 24  2  0
 24 25  1  0
 24 28  1  0
 25 26  1  0
 26 27  2  0
 27 22  1  0
 27 28  1  0
 22 21  1  0
  1 21  1  1
  1  2  1  0
  1 10  1  0
  2  3  1  0
  3  4  1  0
  4  5  1  0
  5  6  2  0
  5 10  1  0
  6  7  1  0
  7 11  1  0
  7  8  2  0
 11 12  2  0
 11 13  2  0
 11 14  1  0
 14 15  2  0
 14 20  1  0
 15 16  1  0
 16 17  2  0
 17 18  1  0
 18 19  1  0
 18 20  2  0
  8  9  1  0
  9 10  2  0
M  CHG  1  26   1
M  END
>  <minimizedAffinity>  (773) 
-8.60852

$$$$
data/200k_reference_output/data/smiles/65871.pdb
     RDKit          3D

 28 31  0  0  0  0  0  0  0  0999 V2000
   73.4675   35.2440   54.4204 C   0  0  0  0  0  0  0  0  0  0  0  0
   72.3964   35.7882   54.0866 O   0  0  0  0  0  0  0  0  0  0  0  0
   73.7438   35.0546   55.7874 N   0  0  0  0  0  0  0  0  0  0  0  0
   72.9372   35.4140   56.8880 C   0  0  0  0  0  0  0  0  0  0  0  0
   72.4351   36.6507   57.1688 C   0  0  0  0  0  0  0  0  0  0  0  0
   71.6469   36.9398   58.2691 C   0  0  0  0  0  0  0  0  0  0  0  0
   71.3715   35.8998   59.1060 C   0  0  0  0  0  0  0  0  0  0  0  0
   71.8364   34.6306   58.8921 C   0  0  0  0  0  0  0  0  0  0  0  0
   72.6223   34.3799   57.7810 C   0  0  0  0  0  0  0  0  0  0  0  0
   71.3183   33.7979   60.0201 C   0  0  0  0  0  0  0  0  0  0  0  0
   70.5156   34.7416   60.8832 C   0  0  0  0  0  0  0  0  0  0  0  0
   69.9379   34.3823   61.9150 O   0  0  0  0  0  0  0  0  0  0  0  0
   70.5874   36.0163   60.2671 N   0  0  0  0  0  0  0  0  0  0  0  0
   70.0232   37.3045   60.6252 C   0  0  0  0  0  0  0  0  0  0  0  0
   69.9093   38.2248   59.4529 C   0  0  0  0  0  0  0  0  0  0  0  0
   71.1060   38.3041   58.5617 C   0  0  0  0  0  0  0  0  0  0  0  0
   73.9827   34.5625   52.2255 O   0  0  0  0  0  0  0  0  0  0  0  0
   74.4112   34.8155   53.3658 C   0  0  0  0  0  0  0  0  0  0  0  0
   75.7958   34.6785   53.5966 N   0  0  0  0  0  0  0  0  0  0  0  0
   76.7447   34.2612   52.5846 C   0  0  0  0  0  0  0  0  0  0  0  0
   77.1593   35.4561   51.7805 C   0  0  0  0  0  0  0  0  0  0  0  0
   77.1644   35.2450   50.3368 C   0  0  0  0  0  0  0  0  0  0  0  0
   76.2912   34.3412   49.7730 C   0  0  0  0  0  0  0  0  0  0  0  0
   76.2675   34.1137   48.3954 C   0  0  0  0  0  0  0  0  0  0  0  0
   77.1200   34.7872   47.5524 C   0  0  0  0  0  0  0  0  0  0  0  0
   77.0996   34.5665   46.1957 F   0  0  0  0  0  0  0  0  0  0  0  0
   77.9951   35.6925   48.1113 C   0  0  0  0  0  0  0  0  0  0  0  0
   78.0117   35.9144   49.4877 C   0  0  0  0  0  0  0  0  0  0  0  0
 17 18  2  0
 18 19  1  0
 18  1  1  0
 19 20  1  0
 20 21  1  0
 21 22  1  0
 22 23  2  0
 22 28  1  0
 23 24  1  0
 24 25  2  0
 25 26  1  0
 25 27  1  0
 27 28  2  0
  1  2  2  0
  1  3  1  0
  3  4  1  0
  4  5  2  0
  4  9  1  0
  5  6  1  0
  6  7  2  0
  6 16  1  0
  7  8  1  0
  7 13  1  0
  8  9  2  0
  8 10  1  0
 10 11  1  0
 11 12  2  0
 11 13  1  0
 13 14  1  0
 14 15  1  0
 15 16  1  0
M  END
>  <minimizedAffinity>  (774) 
-8.92978

$$$$
data/200k_reference_output/data/smiles/65922.pdb
     RDKit          3D

 28 31  0  0  0  0  0  0  0  0999 V2000
   71.2071   46.3150   58.1084 C   0  0  0  0  0  0  0  0  0  0  0  0
   71.9144   46.9897   59.0973 C   0  0  0  0  0  0  0  0  0  0  0  0
   71.8180   48.3521   59.1511 C   0  0  0  0  0  0  0  0  0  0  0  0
   71.0353   49.0320   58.2428 C   0  0  0  0  0  0  0  0  0  0  0  0
   70.3227   48.3805   57.2510 C   0  0  0  0  0  0  0  0  0  0  0  0
   70.4294   47.0231   57.2103 C   0  0  0  0  0  0  0  0  0  0  0  0
   69.6023   44.4259   59.4750 O   0  0  0  0  0  0  0  0  0  0  0  0
   70.4523   43.9846   58.6675 C   0  0  0  0  0  0  0  0  0  0  0  0
   71.2625   44.9073   57.9757 N   0  0  0  0  0  0  0  0  0  0  0  0
   70.6020   42.4966   58.4391 C   0  0  0  0  0  0  0  0  0  0  0  0
   69.4653   42.0281   57.6358 C   0  0  0  0  0  0  0  0  0  0  0  0
   68.7615   42.8820   56.8381 C   0  0  0  0  0  0  0  0  0  0  0  0
   67.6888   42.3964   56.0872 C   0  0  0  0  0  0  0  0  0  0  0  0
   67.3541   41.0709   56.1603 C   0  0  0  0  0  0  0  0  0  0  0  0
   68.0909   40.2355   56.9797 C   0  0  0  0  0  0  0  0  0  0  0  0
   69.1187   40.7383   57.6883 N   0  0  0  0  0  0  0  0  0  0  0  0
   69.5220   49.1835   56.3090 C   0  0  0  0  0  0  0  0  0  0  0  0
   69.7571   48.8385   54.8830 C   0  0  0  0  0  0  0  0  0  0  0  0
   70.8025   49.4229   54.2161 N   0  0  0  0  0  0  0  0  0  0  0  0
   71.0473   49.1635   52.9458 N   0  0  0  0  0  0  0  0  0  0  0  0
   70.2918   48.3102   52.2127 C   0  0  0  0  0  0  0  0  0  0  0  0
   70.5140   48.0569   51.0048 O   0  0  0  0  0  0  0  0  0  0  0  0
   69.2305   47.6921   52.8155 C   0  0  0  0  0  0  0  0  0  0  0  0
   68.9896   47.9793   54.1603 C   0  0  0  0  0  0  0  0  0  0  0  0
   67.8485   47.2784   54.7651 C   0  0  0  0  0  0  0  0  0  0  0  0
   67.9509   45.8071   54.4483 C   0  0  0  0  0  0  0  0  0  0  0  0
   68.2842   45.5117   53.0288 C   0  0  0  0  0  0  0  0  0  0  0  0
   68.2902   46.7535   52.1527 C   0  0  0  0  0  0  0  0  0  0  0  0
  7  8  2  0
  8 10  1  0
  8  9  1  0
 10 11  1  0
 11 12  2  0
 11 16  1  0
 12 13  1  0
 13 14  2  0
 14 15  1  0
 15 16  2  0
  9  1  1  0
  1  2  2  0
  1  6  1  0
  2  3  1  0
  3  4  2  0
  4  5  1  0
  5 17  1  0
  5  6  2  0
 17 18  1  0
 18 19  2  0
 18 24  1  0
 19 20  1  0
 20 21  1  0
 21 22  2  0
 21 23  1  0
 23 24  2  0
 23 28  1  0
 24 25  1  0
 25 26  1  0
 26 27  1  0
 27 28  1  0
M  END
>  <minimizedAffinity>  (775) 
-9.43587

$$$$
data/200k_reference_output/data/smiles/65925.pdb
     RDKit          3D

 25 26  0  0  0  0  0  0  0  0999 V2000
   67.9681   41.7534   57.9944 C   0  0  0  0  0  0  0  0  0  0  0  0
   68.4821   42.6921   56.9107 C   0  0  0  0  0  0  0  0  0  0  0  0
   69.7124   42.7948   56.7885 O   0  0  0  0  0  0  0  0  0  0  0  0
   67.5435   43.3797   56.1187 N   0  0  0  0  0  0  0  0  0  0  0  0
   67.8413   44.2552   55.1095 N   0  0  0  0  0  0  0  0  0  0  0  0
   68.1929   45.6014   55.0930 C   0  0  0  0  0  0  0  0  0  0  0  0
   68.2781   46.2127   56.1731 O   0  0  0  0  0  0  0  0  0  0  0  0
   68.4764   46.3614   53.8698 C   0  0  0  0  0  0  0  0  0  0  0  0
   69.1339   47.5649   53.9656 C   0  0  0  0  0  0  0  0  0  0  0  0
   69.4422   48.3486   52.8667 C   0  0  0  0  0  0  0  0  0  0  0  0
   69.0864   47.9199   51.6437 N   0  0  0  0  0  0  0  0  0  0  0  0
   68.4428   46.7486   51.5149 C   0  0  0  0  0  0  0  0  0  0  0  0
   68.1237   45.9446   52.6139 C   0  0  0  0  0  0  0  0  0  0  0  0
   68.8506   41.8250   59.1891 C   0  0  0  0  0  0  0  0  0  0  0  0
   70.1191   41.3219   59.0923 O   0  0  0  0  0  0  0  0  0  0  0  0
   71.8683   37.5684   58.5307 C   0  0  0  0  0  0  0  0  0  0  0  0
   70.4981   37.6927   58.6111 C   0  0  0  0  0  0  0  0  0  0  0  0
   69.8913   38.9164   58.7955 C   0  0  0  0  0  0  0  0  0  0  0  0
   70.6187   40.0758   58.9097 C   0  0  0  0  0  0  0  0  0  0  0  0
   72.0174   39.9472   58.8266 C   0  0  0  0  0  0  0  0  0  0  0  0
   72.6083   38.7232   58.6425 C   0  0  0  0  0  0  0  0  0  0  0  0
   72.7972   36.0284   56.8831 C   0  0  0  0  0  0  0  0  0  0  0  0
   72.5246   36.2464   58.3321 C   0  0  0  0  0  0  0  0  0  0  0  0
   71.7002   35.1546   58.9566 C   0  0  0  0  0  0  0  0  0  0  0  0
   73.8591   36.2969   59.0592 C   0  0  0  0  0  0  0  0  0  0  0  0
 22 23  1  0
 23 24  1  0
 23 25  1  0
 23 16  1  0
 16 17  2  0
 16 21  1  0
 17 18  1  0
 18 19  2  0
 19 15  1  0
 19 20  1  0
 15 14  1  0
 14  1  1  0
  1  2  1  0
  2  3  2  0
  2  4  1  0
  4  5  1  0
  5  6  1  0
  6  7  2  0
  6  8  1  0
  8  9  2  0
  8 13  1  0
  9 10  1  0
 10 11  2  0
 11 12  1  0
 12 13  2  0
 20 21  2  0
M  END
>  <minimizedAffinity>  (776) 
-8.85100

$$$$
data/200k_reference_output/data/smiles/65931.pdb
     RDKit          3D

 26 28  0  0  0  0  0  0  0  0999 V2000
   68.4581   51.0014   56.3191 C   0  0  0  0  0  0  0  0  0  0  0  0
   67.4723   51.0634   57.2861 C   0  0  0  0  0  0  0  0  0  0  0  0
   67.0140   49.8985   57.8378 C   0  0  0  0  0  0  0  0  0  0  0  0
   67.5224   48.6870   57.4406 C   0  0  0  0  0  0  0  0  0  0  0  0
   68.5124   48.6272   56.4702 C   0  0  0  0  0  0  0  0  0  0  0  0
   68.9245   49.7998   55.9622 N   0  0  0  0  0  0  0  0  0  0  0  0
   71.4050   51.8208   55.3479 N   0  0  0  0  0  0  0  0  0  0  0  0
   71.8074   53.1082   55.7959 C   0  0  0  0  0  0  0  0  0  0  0  0
   70.6394   53.9967   56.1710 C   0  0  0  0  0  0  0  0  0  0  0  0
   69.4625   53.2388   56.6855 C   0  0  0  0  0  0  0  0  0  0  0  0
   69.0072   52.2204   55.6735 C   0  0  1  0  0  0  0  0  0  0  0  0
   70.1144   51.7612   54.7539 C   0  0  0  0  0  0  0  0  0  0  0  0
   72.6106   50.8990   54.6031 S   0  0  0  0  0  0  0  0  0  0  0  0
   71.9715   49.9113   53.6371 O   0  0  0  0  0  0  0  0  0  0  0  0
   73.5655   51.7110   53.7850 O   0  0  0  0  0  0  0  0  0  0  0  0
   74.9188   50.4121   55.8051 C   0  0  0  0  0  0  0  0  0  0  0  0
   73.5549   49.9527   55.6937 N   0  0  0  0  0  0  0  0  0  0  0  0
   72.9743   49.9349   57.0214 C   0  0  0  0  0  0  0  0  0  0  0  0
   69.0580   47.3156   56.0473 C   0  0  0  0  0  0  0  0  0  0  0  0
   68.8438   47.0747   54.5968 C   0  0  0  0  0  0  0  0  0  0  0  0
   69.2849   47.9965   53.6708 C   0  0  0  0  0  0  0  0  0  0  0  0
   69.1139   47.8274   52.3113 C   0  0  0  0  0  0  0  0  0  0  0  0
   68.4718   46.6802   51.8915 C   0  0  0  0  0  0  0  0  0  0  0  0
   68.0291   45.7558   52.8173 C   0  0  0  0  0  0  0  0  0  0  0  0
   68.2023   45.9293   54.1743 C   0  0  0  0  0  0  0  0  0  0  0  0
   67.7511   44.9925   55.0610 F   0  0  0  0  0  0  0  0  0  0  0  0
 16 17  1  0
 17 18  1  0
 17 13  1  0
 13 14  2  0
 13 15  2  0
 13  7  1  0
  7  8  1  0
  7 12  1  0
  8  9  1  0
  9 10  1  0
 10 11  1  0
 11  1  1  1
 11 12  1  0
  1  2  2  0
  1  6  1  0
  2  3  1  0
  3  4  2  0
  4  5  1  0
  5 19  1  0
  5  6  2  0
 19 20  1  0
 20 21  2  0
 20 25  1  0
 21 22  1  0
 22 23  2  0
 23 24  1  0
 24 25  2  0
 25 26  1  0
M  END
>  <minimizedAffinity>  (777) 
-9.33762

$$$$
data/200k_reference_output/data/smiles/65978.pdb
     RDKit          3D

 26 30  0  0  0  0  0  0  0  0999 V2000
   69.7244   52.5234   56.5048 C   0  0  0  0  0  0  0  0  0  0  0  0
   69.0432   51.9627   57.5939 C   0  0  0  0  0  0  0  0  0  0  0  0
   68.5574   50.6755   57.5349 C   0  0  0  0  0  0  0  0  0  0  0  0
   68.7163   49.8865   56.4173 C   0  0  0  0  0  0  0  0  0  0  0  0
   69.3837   50.4141   55.3319 C   0  0  0  0  0  0  0  0  0  0  0  0
   69.8688   51.7099   55.4004 C   0  0  0  0  0  0  0  0  0  0  0  0
   69.5461   49.5756   54.1608 C   0  0  0  0  0  0  0  0  0  0  0  0
   70.1945   50.0717   53.0906 N   0  0  0  0  0  0  0  0  0  0  0  0
   70.3504   49.3187   52.0153 N   0  0  0  0  0  0  0  0  0  0  0  0
   69.8881   48.0561   51.9236 C   0  0  0  0  0  0  0  0  0  0  0  0
   70.0598   47.3715   50.8729 O   0  0  0  0  0  0  0  0  0  0  0  0
   69.2159   47.4925   52.9854 C   0  0  0  0  0  0  0  0  0  0  0  0
   68.7380   46.2048   52.9090 C   0  0  0  0  0  0  0  0  0  0  0  0
   68.0769   45.7115   54.0114 C   0  0  0  0  0  0  0  0  0  0  0  0
   67.9059   46.4994   55.1561 C   0  0  0  0  0  0  0  0  0  0  0  0
   68.3886   47.7932   55.2294 C   0  0  0  0  0  0  0  0  0  0  0  0
   69.0521   48.2780   54.1114 C   0  0  0  0  0  0  0  0  0  0  0  0
   68.2214   48.5781   56.3616 O   0  0  0  0  0  0  0  0  0  0  0  0
   70.2425   53.8913   56.5539 C   0  0  0  0  0  0  0  0  0  0  0  0
   74.5658   53.4210   54.7067 O   0  0  0  0  0  0  0  0  0  0  0  0
   73.8003   53.7812   55.6451 C   0  0  0  0  0  0  0  0  0  0  0  0
   72.3454   53.5452   55.4522 C   0  0  0  0  0  0  0  0  0  0  0  0
   71.6586   53.9940   56.6201 N   0  0  2  0  0  0  0  0  0  0  0  0
   72.2894   53.4884   57.7900 C   0  0  0  0  0  0  0  0  0  0  0  0
   73.5140   54.3724   58.0694 C   0  0  0  0  0  0  0  0  0  0  0  0
   74.2866   54.3883   56.8419 N   0  0  0  0  0  0  0  0  0  0  0  0
 20 21  2  0
 21 22  1  0
 21 26  1  0
 22 23  1  0
 23 19  1  6
 23 24  1  0
 19  1  1  0
  1  2  2  0
  1  6  1  0
  2  3  1  0
  3  4  2  0
  4  5  1  0
  4 18  1  0
  5  6  2  0
  5  7  1  0
  7  8  2  0
  7 17  1  0
  8  9  1  0
  9 10  1  0
 10 11  2  0
 10 12  1  0
 12 13  1  0
 12 17  2  0
 13 14  2  0
 14 15  1  0
 15 16  2  0
 16 17  1  0
 16 18  1  0
 24 25  1  0
 25 26  1  0
M  CHG  1  23   1
M  END
>  <minimizedAffinity>  (778) 
-8.76315

$$$$
data/200k_reference_output/data/smiles/65998.pdb
     RDKit          3D

 28 30  0  0  0  0  0  0  0  0999 V2000
   69.8603   43.2081   57.4069 C   0  0  0  0  0  0  0  0  0  0  0  0
   70.9725   43.6497   57.7554 O   0  0  0  0  0  0  0  0  0  0  0  0
   68.9252   44.1007   56.8318 N   0  0  0  0  0  0  0  0  0  0  0  0
   67.2806   41.8046   56.5160 C   0  0  0  0  0  0  0  0  0  0  0  0
   68.4045   41.1312   57.2102 C   0  0  0  0  0  0  0  0  0  0  0  0
   68.5450   39.8541   57.5807 N   0  0  0  0  0  0  0  0  0  0  0  0
   69.7118   39.6652   58.1803 N   0  0  0  0  0  0  0  0  0  0  0  0
   70.3127   40.8421   58.1851 N   0  0  0  0  0  0  0  0  0  0  0  0
   69.5539   41.7835   57.6009 C   0  0  0  0  0  0  0  0  0  0  0  0
   70.1728   38.4193   58.6957 C   0  0  0  0  0  0  0  0  0  0  0  0
   71.2524   37.7283   58.1868 C   0  0  0  0  0  0  0  0  0  0  0  0
   71.6804   36.5215   58.7035 C   0  0  0  0  0  0  0  0  0  0  0  0
   71.0007   35.9839   59.7725 C   0  0  0  0  0  0  0  0  0  0  0  0
   69.9133   36.6387   60.3160 C   0  0  0  0  0  0  0  0  0  0  0  0
   69.5105   37.8580   59.7654 C   0  0  0  0  0  0  0  0  0  0  0  0
   69.1851   45.4676   56.6308 N   0  0  0  0  0  0  0  0  0  0  0  0
   68.5916   46.1260   55.5220 C   0  0  0  0  0  0  0  0  0  0  0  0
   67.8529   45.4432   54.7658 O   0  0  0  0  0  0  0  0  0  0  0  0
   68.8083   47.5558   55.2330 C   0  0  0  0  0  0  0  0  0  0  0  0
   68.7600   48.4944   56.2441 C   0  0  0  0  0  0  0  0  0  0  0  0
   68.9608   49.8329   55.9847 C   0  0  0  0  0  0  0  0  0  0  0  0
   69.2197   50.3082   54.7162 C   0  0  0  0  0  0  0  0  0  0  0  0
   69.2694   49.3738   53.7041 C   0  0  0  0  0  0  0  0  0  0  0  0
   69.0651   48.0144   53.9611 C   0  0  0  0  0  0  0  0  0  0  0  0
   69.4324   51.7586   54.4723 C   0  0  0  0  0  0  0  0  0  0  0  0
   68.1791   52.3750   54.3780 F   0  0  0  0  0  0  0  0  0  0  0  0
   70.0405   51.9082   53.2441 F   0  0  0  0  0  0  0  0  0  0  0  0
   70.1205   52.3272   55.4988 F   0  0  0  0  0  0  0  0  0  0  0  0
  4  5  1  0
  5  6  2  0
  5  9  1  0
  6  7  1  0
  7 10  1  0
  7  8  1  0
 10 11  2  0
 10 15  1  0
 11 12  1  0
 12 13  2  0
 13 14  1  0
 14 15  2  0
  8  9  2  0
  9  1  1  0
  1  2  2  0
  1  3  1  0
  3 16  1  0
 16 17  1  0
 17 18  2  0
 17 19  1  0
 19 20  2  0
 19 24  1  0
 20 21  1  0
 21 22  2  0
 22 25  1  0
 22 23  1  0
 25 26  1  0
 25 27  1  0
 25 28  1  0
 23 24  2  0
M  END
>  <minimizedAffinity>  (779) 
-8.63184

$$$$
data/200k_reference_output/data/smiles/66066.pdb
     RDKit          3D

 24 27  0  0  0  0  0  0  0  0999 V2000
   70.0266   45.2731   58.9532 O   0  0  0  0  0  0  0  0  0  0  0  0
   70.1400   46.3829   58.3584 C   0  0  0  0  0  0  0  0  0  0  0  0
   69.2883   46.6801   57.2760 N   0  0  0  0  0  0  0  0  0  0  0  0
   69.4209   47.7833   56.7026 C   0  0  0  0  0  0  0  0  0  0  0  0
   70.7559   48.7181   57.4902 S   0  0  0  0  0  0  0  0  0  0  0  0
   71.0890   47.4001   58.6947 C   0  0  0  0  0  0  0  0  0  0  0  0
   72.0080   47.4574   59.6297 C   0  0  0  0  0  0  0  0  0  0  0  0
   72.2594   46.3962   60.5907 C   0  0  0  0  0  0  0  0  0  0  0  0
   71.7201   45.3083   60.7330 O   0  0  0  0  0  0  0  0  0  0  0  0
   73.3419   46.8761   61.4184 N   0  0  0  0  0  0  0  0  0  0  0  0
   73.7310   48.1727   60.9801 C   0  0  0  0  0  0  0  0  0  0  0  0
   74.7128   49.0069   61.4717 C   0  0  0  0  0  0  0  0  0  0  0  0
   74.9369   50.2459   60.8966 C   0  0  0  0  0  0  0  0  0  0  0  0
   74.1539   50.6161   59.8283 C   0  0  0  0  0  0  0  0  0  0  0  0
   73.1636   49.7725   59.3343 C   0  0  0  0  0  0  0  0  0  0  0  0
   72.9468   48.5451   59.9079 C   0  0  0  0  0  0  0  0  0  0  0  0
   68.6224   48.1958   55.6014 N   0  0  0  0  0  0  0  0  0  0  0  0
   68.6614   47.5955   54.3274 C   0  0  0  0  0  0  0  0  0  0  0  0
   67.8276   46.5106   54.0678 C   0  0  0  0  0  0  0  0  0  0  0  0
   67.7952   45.8543   52.8544 C   0  0  0  0  0  0  0  0  0  0  0  0
   68.6155   46.2629   51.8238 C   0  0  0  0  0  0  0  0  0  0  0  0
   69.4559   47.3327   52.0408 C   0  0  0  0  0  0  0  0  0  0  0  0
   70.2983   47.7673   51.0125 O   0  0  0  0  0  0  0  0  0  0  0  0
   69.4650   47.9776   53.2842 C   0  0  0  0  0  0  0  0  0  0  0  0
  1  2  2  0
  2  3  1  0
  2  6  1  0
  3  4  2  0
  4 17  1  0
  4  5  1  0
 17 18  1  0
 18 19  2  0
 18 24  1  0
 19 20  1  0
 20 21  2  0
 21 22  1  0
 22 23  1  0
 22 24  2  0
  5  6  1  0
  6  7  2  0
  7  8  1  0
  7 16  1  0
  8  9  2  0
  8 10  1  0
 10 11  1  0
 11 12  1  0
 11 16  2  0
 12 13  2  0
 13 14  1  0
 14 15  2  0
 15 16  1  0
M  CHG  1   3   1
M  END
>  <minimizedAffinity>  (780) 
-8.62758

$$$$
data/200k_reference_output/data/smiles/66095.pdb
     RDKit          3D

 25 27  0  0  0  0  0  0  0  0999 V2000
   67.7672   41.5642   58.2159 C   0  0  1  0  0  0  0  0  0  0  0  0
   68.5774   41.8194   59.4767 C   0  0  0  0  0  0  0  0  0  0  0  0
   67.5030   43.2416   56.3257 N   0  0  0  0  0  0  0  0  0  0  0  0
   68.3352   42.4060   57.0825 C   0  0  0  0  0  0  0  0  0  0  0  0
   69.5521   42.3514   56.8252 O   0  0  0  0  0  0  0  0  0  0  0  0
   68.2058   45.4036   55.2423 C   0  0  0  0  0  0  0  0  0  0  0  0
   68.3758   46.0284   56.3024 O   0  0  0  0  0  0  0  0  0  0  0  0
   67.7882   44.0710   55.2806 N   0  0  0  0  0  0  0  0  0  0  0  0
   70.0066   48.6767   51.8997 C   0  0  0  0  0  0  0  0  0  0  0  0
   69.2400   47.5305   52.5127 C   0  0  0  0  0  0  0  0  0  0  0  0
   68.4000   46.6909   51.8131 C   0  0  0  0  0  0  0  0  0  0  0  0
   67.9068   45.7903   52.7422 C   0  0  0  0  0  0  0  0  0  0  0  0
   68.4572   46.1088   53.9612 C   0  0  0  0  0  0  0  0  0  0  0  0
   69.2274   47.1400   53.7415 O   0  0  0  0  0  0  0  0  0  0  0  0
   67.7715   40.2374   57.8318 O   0  0  0  0  0  0  0  0  0  0  0  0
   68.5827   39.2778   58.3809 C   0  0  0  0  0  0  0  0  0  0  0  0
   68.0587   38.5074   59.4367 C   0  0  0  0  0  0  0  0  0  0  0  0
   68.8101   37.5383   60.0269 C   0  0  0  0  0  0  0  0  0  0  0  0
   70.1103   37.2603   59.6276 C   0  0  0  0  0  0  0  0  0  0  0  0
   70.8298   36.2714   60.2541 C   0  0  0  0  0  0  0  0  0  0  0  0
   72.1217   36.0020   59.8507 C   0  0  0  0  0  0  0  0  0  0  0  0
   72.6382   36.7541   58.8157 C   0  0  0  0  0  0  0  0  0  0  0  0
   71.9333   37.7453   58.1797 C   0  0  0  0  0  0  0  0  0  0  0  0
   70.6307   38.0055   58.5993 C   0  0  0  0  0  0  0  0  0  0  0  0
   69.8745   38.9873   57.9985 C   0  0  0  0  0  0  0  0  0  0  0  0
  9 10  1  0
 10 11  2  0
 10 14  1  0
 11 12  1  0
 12 13  2  0
 13  6  1  0
 13 14  1  0
  6  7  2  0
  6  8  1  0
  8  3  1  0
  3  4  1  0
  4  5  2  0
  4  1  1  0
  1  2  1  1
  1 15  1  0
 15 16  1  0
 16 17  2  0
 16 25  1  0
 17 18  1  0
 18 19  2  0
 19 20  1  0
 19 24  1  0
 20 21  2  0
 21 22  1  0
 22 23  2  0
 23 24  1  0
 24 25  2  0
M  END
>  <minimizedAffinity>  (781) 
-8.74961

$$$$
data/200k_reference_output/data/smiles/66182.pdb
     RDKit          3D

 25 26  0  0  0  0  0  0  0  0999 V2000
   67.7330   41.8884   56.8632 C   0  0  0  0  0  0  0  0  0  0  0  0
   67.7218   41.1932   55.7889 O   0  0  0  0  0  0  0  0  0  0  0  0
   67.8285   43.2914   56.6897 N   0  0  0  0  0  0  0  0  0  0  0  0
   67.8959   43.8499   55.3823 N   0  0  0  0  0  0  0  0  0  0  0  0
   68.1891   45.2150   55.2249 C   0  0  0  0  0  0  0  0  0  0  0  0
   68.3778   45.8641   56.3058 O   0  0  0  0  0  0  0  0  0  0  0  0
   68.2875   45.9065   53.9556 C   0  0  0  0  0  0  0  0  0  0  0  0
   67.6280   45.3483   52.8605 C   0  0  0  0  0  0  0  0  0  0  0  0
   67.6584   45.9163   51.6304 C   0  0  0  0  0  0  0  0  0  0  0  0
   68.3498   47.0746   51.4324 C   0  0  0  0  0  0  0  0  0  0  0  0
   69.0113   47.6605   52.4716 C   0  0  0  0  0  0  0  0  0  0  0  0
   68.9670   47.0581   53.7293 C   0  0  0  0  0  0  0  0  0  0  0  0
   69.6329   47.6748   54.7070 F   0  0  0  0  0  0  0  0  0  0  0  0
   67.6545   41.2103   58.1623 C   0  0  0  0  0  0  0  0  0  0  0  0
   68.3709   40.0252   58.2503 O   0  0  0  0  0  0  0  0  0  0  0  0
   69.3714   39.7473   59.1547 C   0  0  0  0  0  0  0  0  0  0  0  0
   69.5729   40.5434   60.1091 O   0  0  0  0  0  0  0  0  0  0  0  0
   70.4187   35.1226   60.4226 N   0  0  0  0  0  0  0  0  0  0  0  0
   70.6813   36.2726   59.6350 C   0  0  0  0  0  0  0  0  0  0  0  0
   69.9230   37.4210   59.7693 C   0  0  0  0  0  0  0  0  0  0  0  0
   70.1899   38.5326   58.9974 C   0  0  0  0  0  0  0  0  0  0  0  0
   71.2090   38.5169   58.0835 C   0  0  0  0  0  0  0  0  0  0  0  0
   71.9583   37.3663   57.9568 C   0  0  0  0  0  0  0  0  0  0  0  0
   71.7145   36.2486   58.7129 C   0  0  0  0  0  0  0  0  0  0  0  0
   72.6649   34.7855   58.5550 Cl  0  0  0  0  0  0  0  0  0  0  0  0
 18 19  1  0
 19 20  2  0
 19 24  1  0
 20 21  1  0
 21 16  1  0
 21 22  2  0
 16 17  2  0
 16 15  1  0
 15 14  1  0
 14  1  1  0
  1  2  2  0
  1  3  1  0
  3  4  1  0
  4  5  1  0
  5  6  2  0
  5  7  1  0
  7  8  2  0
  7 12  1  0
  8  9  1  0
  9 10  2  0
 10 11  1  0
 11 12  2  0
 12 13  1  0
 22 23  1  0
 23 24  2  0
 24 25  1  0
M  END
>  <minimizedAffinity>  (782) 
-8.52840

$$$$
data/200k_reference_output/data/smiles/66252.pdb
     RDKit          3D

 25 27  0  0  0  0  0  0  0  0999 V2000
   68.6370   43.0651   56.6409 C   0  0  0  0  0  0  0  0  0  0  0  0
   69.8110   43.4050   56.9139 O   0  0  0  0  0  0  0  0  0  0  0  0
   67.8382   43.9288   55.8490 N   0  0  0  0  0  0  0  0  0  0  0  0
   66.9146   41.5289   57.2111 O   0  0  0  0  0  0  0  0  0  0  0  0
   68.1456   41.7860   57.1550 C   0  0  0  0  0  0  0  0  0  0  0  0
   69.0365   40.7833   57.6095 N   0  0  0  0  0  0  0  0  0  0  0  0
   68.5423   39.5400   58.1090 C   0  0  0  0  0  0  0  0  0  0  0  0
   69.2843   39.0459   59.3063 C   0  0  0  0  0  0  0  0  0  0  0  0
   70.2767   37.9914   59.0473 C   0  0  0  0  0  0  0  0  0  0  0  0
   70.2746   36.8098   59.7304 C   0  0  0  0  0  0  0  0  0  0  0  0
   71.1948   35.8052   59.4913 C   0  0  0  0  0  0  0  0  0  0  0  0
   72.1616   35.9822   58.5279 C   0  0  0  0  0  0  0  0  0  0  0  0
   72.1712   37.1722   57.8327 C   0  0  0  0  0  0  0  0  0  0  0  0
   71.2565   38.1676   58.0729 C   0  0  0  0  0  0  0  0  0  0  0  0
   68.3355   45.1625   55.3634 N   0  0  0  0  0  0  0  0  0  0  0  0
   68.1481   45.5584   54.1676 C   0  0  0  0  0  0  0  0  0  0  0  0
   68.6544   46.8313   53.6442 C   0  0  0  0  0  0  0  0  0  0  0  0
   69.1319   46.9304   52.3498 C   0  0  0  0  0  0  0  0  0  0  0  0
   69.6111   48.1434   51.8618 C   0  0  0  0  0  0  0  0  0  0  0  0
   69.6142   49.2596   52.6710 C   0  0  0  0  0  0  0  0  0  0  0  0
   69.1433   49.1938   53.9725 C   0  0  0  0  0  0  0  0  0  0  0  0
   68.6766   47.9726   54.4168 C   0  0  0  0  0  0  0  0  0  0  0  0
   69.2555   50.4600   54.5766 O   0  0  0  0  0  0  0  0  0  0  0  0
   70.1241   51.2178   53.7553 C   0  0  0  0  0  0  0  0  0  0  0  0
   70.0155   50.5698   52.4807 O   0  0  0  0  0  0  0  0  0  0  0  0
  4  5  2  0
  5  6  1  0
  5  1  1  0
  6  7  1  0
  7  8  1  0
  8  9  1  0
  9 10  2  0
  9 14  1  0
 10 11  1  0
 11 12  2  0
 12 13  1  0
 13 14  2  0
  1  2  2  0
  1  3  1  0
  3 15  1  0
 15 16  2  0
 16 17  1  0
 17 18  2  0
 17 22  1  0
 18 19  1  0
 19 20  2  0
 20 21  1  0
 20 25  1  0
 21 22  2  0
 21 23  1  0
 23 24  1  0
 24 25  1  0
M  END
>  <minimizedAffinity>  (783) 
-8.63123

$$$$
data/200k_reference_output/data/smiles/66300.pdb
     RDKit          3D

 22 24  0  0  0  0  0  0  0  0999 V2000
   70.1170   46.6147   57.3596 O   0  0  0  0  0  0  0  0  0  0  0  0
   69.1865   46.3534   56.5639 C   0  0  0  0  0  0  0  0  0  0  0  0
   68.7481   45.0138   56.4148 N   0  0  0  0  0  0  0  0  0  0  0  0
   69.3333   43.9486   57.1460 N   0  0  0  0  0  0  0  0  0  0  0  0
   68.7749   42.7736   56.9998 C   0  0  0  0  0  0  0  0  0  0  0  0
   67.6286   42.4555   56.1727 C   0  0  0  0  0  0  0  0  0  0  0  0
   66.9792   43.2543   55.4571 O   0  0  0  0  0  0  0  0  0  0  0  0
   67.3656   41.0608   56.3151 N   0  0  0  0  0  0  0  0  0  0  0  0
   68.3287   40.4974   57.2185 C   0  0  0  0  0  0  0  0  0  0  0  0
   68.4979   39.2027   57.6778 C   0  0  0  0  0  0  0  0  0  0  0  0
   69.4988   38.8813   58.5513 C   0  0  0  0  0  0  0  0  0  0  0  0
   70.3486   39.8962   58.9684 C   0  0  0  0  0  0  0  0  0  0  0  0
   70.1801   41.1862   58.5115 C   0  0  0  0  0  0  0  0  0  0  0  0
   69.1723   41.5133   57.6317 C   0  0  0  0  0  0  0  0  0  0  0  0
   68.5752   47.4718   55.8006 C   0  0  0  0  0  0  0  0  0  0  0  0
   68.5537   47.1607   54.3461 C   0  0  0  0  0  0  0  0  0  0  0  0
   69.3463   47.8669   53.4474 C   0  0  0  0  0  0  0  0  0  0  0  0
   69.3410   47.5938   52.0972 C   0  0  0  0  0  0  0  0  0  0  0  0
   68.5388   46.5968   51.5847 C   0  0  0  0  0  0  0  0  0  0  0  0
   67.7479   45.8910   52.4771 C   0  0  0  0  0  0  0  0  0  0  0  0
   66.9303   44.8816   51.9873 O   0  0  0  0  0  0  0  0  0  0  0  0
   67.7585   46.1671   53.8124 C   0  0  0  0  0  0  0  0  0  0  0  0
  1  2  2  0
  2 15  1  0
  2  3  1  0
 15 16  1  0
 16 17  2  0
 16 22  1  0
 17 18  1  0
 18 19  2  0
 19 20  1  0
 20 21  1  0
 20 22  2  0
  3  4  1  0
  4  5  2  0
  5  6  1  0
  5 14  1  0
  6  7  2  0
  6  8  1  0
  8  9  1  0
  9 10  1  0
  9 14  2  0
 10 11  2  0
 11 12  1  0
 12 13  2  0
 13 14  1  0
M  END
>  <minimizedAffinity>  (784) 
-9.03212

$$$$
data/200k_reference_output/data/smiles/66323.pdb
     RDKit          3D

 24 26  0  0  0  0  0  0  0  0999 V2000
   70.3958   46.6045   57.8713 C   0  0  0  0  0  0  0  0  0  0  0  0
   70.7955   47.6422   58.4565 O   0  0  0  0  0  0  0  0  0  0  0  0
   69.5975   46.7565   56.7155 N   0  0  0  0  0  0  0  0  0  0  0  0
   70.7279   45.2494   58.3445 C   0  0  0  0  0  0  0  0  0  0  0  0
   70.6185   44.2512   57.3842 O   0  0  0  0  0  0  0  0  0  0  0  0
   68.1345   39.1578   58.0615 C   0  0  0  0  0  0  0  0  0  0  0  0
   68.8039   40.4747   57.9000 C   0  0  0  0  0  0  0  0  0  0  0  0
   70.0345   40.7521   58.4516 C   0  0  0  0  0  0  0  0  0  0  0  0
   70.6581   41.9863   58.2987 C   0  0  0  0  0  0  0  0  0  0  0  0
   70.0544   42.9877   57.5783 C   0  0  0  0  0  0  0  0  0  0  0  0
   68.8096   42.7127   57.0166 C   0  0  0  0  0  0  0  0  0  0  0  0
   68.2086   41.4907   57.1772 C   0  0  0  0  0  0  0  0  0  0  0  0
   69.2751   48.0978   56.2558 C   0  0  0  0  0  0  0  0  0  0  0  0
   69.6238   48.2543   54.8315 C   0  0  0  0  0  0  0  0  0  0  0  0
   70.5497   49.1394   54.4485 N   0  0  0  0  0  0  0  0  0  0  0  0
   70.8951   49.3120   53.1765 N   0  0  0  0  0  0  0  0  0  0  0  0
   70.2833   48.5629   52.2486 C   0  0  0  0  0  0  0  0  0  0  0  0
   70.5904   48.7039   51.0245 O   0  0  0  0  0  0  0  0  0  0  0  0
   69.3178   47.6265   52.5405 C   0  0  0  0  0  0  0  0  0  0  0  0
   68.7042   46.8700   51.5646 C   0  0  0  0  0  0  0  0  0  0  0  0
   67.7356   45.9350   51.8917 C   0  0  0  0  0  0  0  0  0  0  0  0
   67.3993   45.7779   53.2132 C   0  0  0  0  0  0  0  0  0  0  0  0
   68.0178   46.5405   54.1995 C   0  0  0  0  0  0  0  0  0  0  0  0
   68.9869   47.4790   53.8916 C   0  0  0  0  0  0  0  0  0  0  0  0
  6  7  1  0
  7  8  2  0
  7 12  1  0
  8  9  1  0
  9 10  2  0
 10  5  1  0
 10 11  1  0
  5  4  1  0
  4  1  1  0
  1  2  2  0
  1  3  1  0
  3 13  1  0
 13 14  1  0
 14 15  2  0
 14 24  1  0
 15 16  1  0
 16 17  1  0
 17 18  2  0
 17 19  1  0
 19 20  1  0
 19 24  2  0
 20 21  2  0
 21 22  1  0
 22 23  2  0
 23 24  1  0
 11 12  2  0
M  END
>  <minimizedAffinity>  (785) 
-8.81584

$$$$
data/200k_reference_output/data/smiles/66482.pdb
     RDKit          3D

 27 28  0  0  0  0  0  0  0  0999 V2000
   69.9391   49.2270   52.5999 S   0  0  0  0  0  0  0  0  0  0  0  0
   71.4266   49.2255   52.9409 O   0  0  0  0  0  0  0  0  0  0  0  0
   69.8490   49.2406   51.0846 O   0  0  0  0  0  0  0  0  0  0  0  0
   69.1817   47.7756   53.1951 C   0  0  0  0  0  0  0  0  0  0  0  0
   68.5360   46.8639   52.3873 C   0  0  0  0  0  0  0  0  0  0  0  0
   68.4916   47.1241   51.0481 F   0  0  0  0  0  0  0  0  0  0  0  0
   67.9448   45.7218   52.8842 C   0  0  0  0  0  0  0  0  0  0  0  0
   67.3055   44.8231   52.0839 F   0  0  0  0  0  0  0  0  0  0  0  0
   67.9742   45.4358   54.2336 C   0  0  0  0  0  0  0  0  0  0  0  0
   67.3907   44.3082   54.7257 F   0  0  0  0  0  0  0  0  0  0  0  0
   68.6171   46.3373   55.0559 C   0  0  0  0  0  0  0  0  0  0  0  0
   68.6498   46.0607   56.3844 F   0  0  0  0  0  0  0  0  0  0  0  0
   69.2086   47.4796   54.5612 C   0  0  0  0  0  0  0  0  0  0  0  0
   69.8402   48.3668   55.3574 F   0  0  0  0  0  0  0  0  0  0  0  0
   69.2669   50.6761   53.1942 N   0  0  0  0  0  0  0  0  0  0  0  0
   71.1699   53.2896   55.9588 C   0  0  0  0  0  0  0  0  0  0  0  0
   69.7957   53.2227   55.9050 C   0  0  0  0  0  0  0  0  0  0  0  0
   69.1668   52.3661   54.9901 C   0  0  0  0  0  0  0  0  0  0  0  0
   69.8652   51.5644   54.1172 C   0  0  0  0  0  0  0  0  0  0  0  0
   71.2665   51.6564   54.1974 C   0  0  0  0  0  0  0  0  0  0  0  0
   71.8852   52.4956   55.0935 C   0  0  0  0  0  0  0  0  0  0  0  0
   73.3223   52.5707   55.1571 N   0  0  0  0  0  0  0  0  0  0  0  0
   74.1223   51.4087   55.3099 C   0  0  0  0  0  0  0  0  0  0  0  0
   75.5423   51.4370   55.3782 N   0  0  0  0  0  0  0  0  0  0  0  0
   73.5509   50.2979   55.3903 O   0  0  0  0  0  0  0  0  0  0  0  0
   72.3723   53.5914   58.0708 C   0  0  0  0  0  0  0  0  0  0  0  0
   71.8557   54.1135   56.8380 O   0  0  0  0  0  0  0  0  0  0  0  0
 26 27  1  0
 27 16  1  0
 16 17  2  0
 16 21  1  0
 17 18  1  0
 18 19  2  0
 19 15  1  0
 19 20  1  0
 15  1  1  0
  1  2  2  0
  1  3  2  0
  1  4  1  0
  4  5  2  0
  4 13  1  0
  5  6  1  0
  5  7  1  0
  7  8  1  0
  7  9  2  0
  9 10  1  0
  9 11  1  0
 11 12  1  0
 11 13  2  0
 13 14  1  0
 20 21  2  0
 21 22  1  0
 22 23  1  0
 23 24  1  0
 23 25  2  0
M  END
>  <minimizedAffinity>  (786) 
-9.38784

$$$$
data/200k_reference_output/data/smiles/66648.pdb
     RDKit          3D

 27 30  0  0  0  0  0  0  0  0999 V2000
   68.4574   44.8909   55.8326 C   0  0  0  0  0  0  0  0  0  0  0  0
   69.5103   44.8644   56.7180 C   0  0  0  0  0  0  0  0  0  0  0  0
   69.9146   43.6958   57.3515 C   0  0  0  0  0  0  0  0  0  0  0  0
   69.2819   42.4962   57.1264 C   0  0  0  0  0  0  0  0  0  0  0  0
   68.2206   42.5378   56.2308 C   0  0  0  0  0  0  0  0  0  0  0  0
   67.8184   43.6930   55.6023 C   0  0  0  0  0  0  0  0  0  0  0  0
   68.0582   46.0733   55.1995 O   0  0  0  0  0  0  0  0  0  0  0  0
   71.0533   49.8681   53.1893 O   0  0  0  0  0  0  0  0  0  0  0  0
   70.2544   48.9142   52.9442 C   0  0  0  0  0  0  0  0  0  0  0  0
   69.8368   48.4943   51.7394 N   0  0  0  0  0  0  0  0  0  0  0  0
   69.0035   47.4618   51.9777 C   0  0  0  0  0  0  0  0  0  0  0  0
   68.3220   46.6954   51.0980 N   0  0  0  0  0  0  0  0  0  0  0  0
   67.5476   45.7191   51.5634 C   0  0  0  0  0  0  0  0  0  0  0  0
   67.4272   45.4715   52.9257 C   0  0  0  0  0  0  0  0  0  0  0  0
   68.1151   46.2426   53.8318 C   0  0  0  0  0  0  0  0  0  0  0  0
   68.9087   47.2457   53.3401 C   0  0  0  0  0  0  0  0  0  0  0  0
   69.7049   48.1747   53.9049 N   0  0  0  0  0  0  0  0  0  0  0  0
   69.6375   41.2618   57.7497 N   0  0  0  0  0  0  0  0  0  0  0  0
   68.5912   39.9755   58.1083 S   0  0  0  0  0  0  0  0  0  0  0  0
   69.4677   38.7984   58.5320 O   0  0  0  0  0  0  0  0  0  0  0  0
   67.8980   39.5033   56.8579 O   0  0  0  0  0  0  0  0  0  0  0  0
   67.3728   40.2987   59.2930 C   0  0  0  0  0  0  0  0  0  0  0  0
   67.1694   41.5762   59.7435 C   0  0  0  0  0  0  0  0  0  0  0  0
   66.1978   41.8215   60.6848 C   0  0  0  0  0  0  0  0  0  0  0  0
   65.4126   40.8114   61.1969 C   0  0  0  0  0  0  0  0  0  0  0  0
   65.6172   39.5196   60.7427 C   0  0  0  0  0  0  0  0  0  0  0  0
   66.5853   39.2882   59.8071 C   0  0  0  0  0  0  0  0  0  0  0  0
  8  9  2  0
  9 10  1  0
  9 17  1  0
 10 11  1  0
 11 12  2  0
 11 16  1  0
 12 13  1  0
 13 14  2  0
 14 15  1  0
 15  7  1  0
 15 16  2  0
  7  1  1  0
  1  2  2  0
  1  6  1  0
  2  3  1  0
  3  4  2  0
  4 18  1  0
  4  5  1  0
 18 19  1  0
 19 20  2  0
 19 21  2  0
 19 22  1  0
 22 23  2  0
 22 27  1  0
 23 24  1  0
 24 25  2  0
 25 26  1  0
 26 27  2  0
  5  6  2  0
 16 17  1  0
M  CHG  1  10   1
M  END
>  <minimizedAffinity>  (787) 
-8.75791

$$$$
data/200k_reference_output/data/smiles/66688.pdb
     RDKit          3D

 26 28  0  0  0  0  0  0  0  0999 V2000
   69.9850   39.6987   59.3389 C   0  0  0  0  0  0  0  0  0  0  0  0
   69.0801   38.7534   58.9083 C   0  0  0  0  0  0  0  0  0  0  0  0
   68.1700   39.1378   57.9475 C   0  0  0  0  0  0  0  0  0  0  0  0
   68.1448   40.4214   57.4177 C   0  0  0  0  0  0  0  0  0  0  0  0
   69.0511   41.3656   57.8500 C   0  0  0  0  0  0  0  0  0  0  0  0
   69.9638   40.9883   58.8104 C   0  0  0  0  0  0  0  0  0  0  0  0
   71.1134   42.1891   59.3569 Cl  0  0  0  0  0  0  0  0  0  0  0  0
   68.8340   42.6410   57.1534 C   0  0  0  0  0  0  0  0  0  0  0  0
   69.4581   43.7427   57.2737 N   0  0  0  0  0  0  0  0  0  0  0  0
   67.7131   42.4070   56.2509 C   0  0  0  0  0  0  0  0  0  0  0  0
   67.1922   43.2596   55.4518 O   0  0  0  0  0  0  0  0  0  0  0  0
   67.3284   41.0574   56.4414 N   0  0  0  0  0  0  0  0  0  0  0  0
   69.1496   44.9138   56.5377 N   0  0  0  0  0  0  0  0  0  0  0  0
   69.3532   46.2051   57.0896 C   0  0  0  0  0  0  0  0  0  0  0  0
   69.8239   46.2141   58.2688 O   0  0  0  0  0  0  0  0  0  0  0  0
   69.0809   47.4878   56.4471 C   0  0  2  0  0  0  0  0  0  0  0  0
   67.9354   48.2486   57.0312 C   0  0  0  0  0  0  0  0  0  0  0  0
   68.9122   47.3606   54.9815 C   0  0  0  0  0  0  0  0  0  0  0  0
   68.0964   46.3755   54.4606 C   0  0  0  0  0  0  0  0  0  0  0  0
   67.9185   46.2155   53.0952 C   0  0  0  0  0  0  0  0  0  0  0  0
   68.5875   47.0790   52.2602 C   0  0  0  0  0  0  0  0  0  0  0  0
   68.3968   46.9024   50.8869 O   0  0  0  0  0  0  0  0  0  0  0  0
   69.4185   48.0838   52.7477 C   0  0  0  0  0  0  0  0  0  0  0  0
   69.5666   48.2069   54.1110 C   0  0  0  0  0  0  0  0  0  0  0  0
   70.6068   39.0650   61.6284 C   0  0  0  0  0  0  0  0  0  0  0  0
   70.9179   39.3610   60.3009 O   0  0  0  0  0  0  0  0  0  0  0  0
 25 26  1  0
 26  1  1  0
  1  2  2  0
  1  6  1  0
  2  3  1  0
  3  4  2  0
  4  5  1  0
  4 12  1  0
  5  6  2  0
  5  8  1  0
  6  7  1  0
  8  9  2  0
  8 10  1  0
  9 13  1  0
 13 14  1  0
 14 15  2  0
 14 16  1  0
 16 17  1  1
 16 18  1  0
 18 19  2  0
 18 24  1  0
 19 20  1  0
 20 21  2  0
 21 22  1  0
 21 23  1  0
 23 24  2  0
 10 11  2  0
 10 12  1  0
M  END
>  <minimizedAffinity>  (788) 
-8.70459

$$$$
data/200k_reference_output/data/smiles/66724.pdb
     RDKit          3D

 21 22  0  0  0  0  0  0  0  0999 V2000
   69.9658   49.2043   52.6448 P   0  0  0  0  0  0  0  0  0  0  0  0
   71.4473   48.9394   52.8223 O   0  0  0  0  0  0  0  0  0  0  0  0
   69.7520   49.9820   51.1676 O   0  0  0  0  0  0  0  0  0  0  0  0
   68.6802   50.5712   56.2032 C   0  0  0  0  0  0  0  0  0  0  0  0
   68.5269   51.9050   55.9854 C   0  0  0  0  0  0  0  0  0  0  0  0
   68.8091   52.4558   54.7409 C   0  0  0  0  0  0  0  0  0  0  0  0
   69.2490   51.6729   53.6967 C   0  0  0  0  0  0  0  0  0  0  0  0
   69.4001   50.3255   53.9269 C   0  0  0  0  0  0  0  0  0  0  0  0
   69.1186   49.7865   55.1611 C   0  0  0  0  0  0  0  0  0  0  0  0
   67.5067   49.1288   57.5898 O   0  0  0  0  0  0  0  0  0  0  0  0
   68.4047   49.9646   57.4559 N   0  0  0  0  0  0  0  0  0  0  0  0
   69.1665   50.3305   58.5325 O   0  0  0  0  0  0  0  0  0  0  0  0
   69.0514   47.6823   52.7295 C   0  0  0  0  0  0  0  0  0  0  0  0
   68.4351   47.0952   51.6464 C   0  0  0  0  0  0  0  0  0  0  0  0
   67.7319   45.9064   51.7598 C   0  0  0  0  0  0  0  0  0  0  0  0
   67.6401   45.2816   52.9855 C   0  0  0  0  0  0  0  0  0  0  0  0
   68.2464   45.8385   54.1073 C   0  0  0  0  0  0  0  0  0  0  0  0
   68.9383   47.0307   53.9378 C   0  0  0  0  0  0  0  0  0  0  0  0
   68.1670   45.2230   55.3633 N   0  0  0  0  0  0  0  0  0  0  0  0
   67.7666   44.0484   55.4383 O   0  0  0  0  0  0  0  0  0  0  0  0
   68.5154   45.8711   56.5095 O   0  0  0  0  0  0  0  0  0  0  0  0
 10 11  2  0
 11 12  1  0
 11  4  1  0
  4  5  2  0
  4  9  1  0
  5  6  1  0
  6  7  2  0
  7  8  1  0
  8  1  1  0
  8  9  2  0
  1  2  2  0
  1  3  1  0
  1 13  1  0
 13 14  2  0
 13 18  1  0
 14 15  1  0
 15 16  2  0
 16 17  1  0
 17 19  1  0
 17 18  2  0
 19 20  2  0
 19 21  1  0
M  CHG  4  11   1  12  -1  19   1  21  -1
M  END
>  <minimizedAffinity>  (789) 
-8.66903

$$$$
data/200k_reference_output/data/smiles/66765.pdb
     RDKit          3D

 23 25  0  0  0  0  0  0  0  0999 V2000
   68.6130   47.2289   56.4303 C   0  0  0  0  0  0  0  0  0  0  0  0
   67.7005   47.6060   57.1595 O   0  0  0  0  0  0  0  0  0  0  0  0
   69.0277   47.7306   55.1356 C   0  0  0  0  0  0  0  0  0  0  0  0
   69.8448   48.8668   55.0575 C   0  0  0  0  0  0  0  0  0  0  0  0
   70.2742   49.3960   53.8675 C   0  0  0  0  0  0  0  0  0  0  0  0
   69.9027   48.8083   52.6867 C   0  0  0  0  0  0  0  0  0  0  0  0
   69.1007   47.6898   52.7201 C   0  0  0  0  0  0  0  0  0  0  0  0
   68.7525   47.1305   51.4990 C   0  0  0  0  0  0  0  0  0  0  0  0
   67.9534   46.0141   51.5240 C   0  0  0  0  0  0  0  0  0  0  0  0
   67.5154   45.4730   52.7008 C   0  0  0  0  0  0  0  0  0  0  0  0
   67.8754   46.0474   53.9026 C   0  0  0  0  0  0  0  0  0  0  0  0
   68.6661   47.1550   53.9406 C   0  0  0  0  0  0  0  0  0  0  0  0
   69.3525   46.1358   56.9628 O   0  0  0  0  0  0  0  0  0  0  0  0
   70.3270   46.3609   57.9569 C   0  0  0  0  0  0  0  0  0  0  0  0
   71.8371   44.4847   58.2222 O   0  0  0  0  0  0  0  0  0  0  0  0
   70.7482   45.0581   58.5088 C   0  0  0  0  0  0  0  0  0  0  0  0
   69.8846   44.3853   59.4271 N   0  0  0  0  0  0  0  0  0  0  0  0
   70.2661   43.0902   59.9964 C   0  0  0  0  0  0  0  0  0  0  0  0
   69.1117   42.6320   60.8465 C   0  0  1  0  0  0  0  0  0  0  0  0
   69.4624   42.6150   62.3195 C   0  0  0  0  0  0  0  0  0  0  0  0
   68.0554   42.4492   62.9046 C   0  0  0  0  0  0  0  0  0  0  0  0
   67.1980   42.9917   61.8007 C   0  0  0  0  0  0  0  0  0  0  0  0
   68.0430   43.5131   60.8288 O   0  0  0  0  0  0  0  0  0  0  0  0
 15 16  2  0
 16 14  1  0
 16 17  1  0
 14 13  1  0
 13  1  1  0
  1  2  2  0
  1  3  1  0
  3  4  2  0
  3 12  1  0
  4  5  1  0
  5  6  2  0
  6  7  1  0
  7  8  1  0
  7 12  2  0
  8  9  2  0
  9 10  1  0
 10 11  2  0
 11 12  1  0
 17 18  1  0
 19 18  1  6
 19 20  1  0
 19 23  1  0
 20 21  1  0
 21 22  1  0
 22 23  1  0
M  END
>  <minimizedAffinity>  (790) 
-8.54226

$$$$
data/200k_reference_output/data/smiles/66908.pdb
     RDKit          3D

 24 26  0  0  0  0  0  0  0  0999 V2000
   72.4223   39.9226   59.5347 C   0  0  0  0  0  0  0  0  0  0  0  0
   71.1094   40.0485   58.8523 C   0  0  0  0  0  0  0  0  0  0  0  0
   70.2373   38.9626   58.7460 C   0  0  0  0  0  0  0  0  0  0  0  0
   69.0221   39.0858   58.1127 C   0  0  0  0  0  0  0  0  0  0  0  0
   68.6719   40.3061   57.5789 C   0  0  0  0  0  0  0  0  0  0  0  0
   69.5152   41.4070   57.6660 C   0  0  0  0  0  0  0  0  0  0  0  0
   70.7259   41.2534   58.3067 C   0  0  0  0  0  0  0  0  0  0  0  0
   71.9297   42.7216   58.4624 Br  0  0  0  0  0  0  0  0  0  0  0  0
   68.8861   42.5415   57.0205 C   0  0  0  0  0  0  0  0  0  0  0  0
   69.3396   43.7568   56.8833 N   0  0  0  0  0  0  0  0  0  0  0  0
   67.6019   42.0810   56.5266 C   0  0  0  0  0  0  0  0  0  0  0  0
   66.7540   42.7620   55.9082 O   0  0  0  0  0  0  0  0  0  0  0  0
   67.4930   40.6871   56.8868 N   0  0  0  0  0  0  0  0  0  0  0  0
   68.5588   44.7192   56.2148 N   0  0  0  0  0  0  0  0  0  0  0  0
   68.9820   46.0725   56.3122 C   0  0  0  0  0  0  0  0  0  0  0  0
   70.0142   46.3623   56.9744 O   0  0  0  0  0  0  0  0  0  0  0  0
   68.2145   47.1782   55.6333 C   0  0  0  0  0  0  0  0  0  0  0  0
   68.8246   47.5063   54.3283 C   0  0  0  0  0  0  0  0  0  0  0  0
   68.6481   46.7549   53.1930 C   0  0  0  0  0  0  0  0  0  0  0  0
   69.2444   47.1114   52.0013 C   0  0  0  0  0  0  0  0  0  0  0  0
   70.0405   48.2303   51.8921 C   0  0  0  0  0  0  0  0  0  0  0  0
   70.6559   48.6143   50.7036 O   0  0  0  0  0  0  0  0  0  0  0  0
   70.2222   48.9880   53.0307 C   0  0  0  0  0  0  0  0  0  0  0  0
   69.6207   48.6302   54.2339 C   0  0  0  0  0  0  0  0  0  0  0  0
  1  2  1  0
  2  3  2  0
  2  7  1  0
  3  4  1  0
  4  5  2  0
  5  6  1  0
  5 13  1  0
  6  7  2  0
  6  9  1  0
  7  8  1  0
  9 10  2  0
  9 11  1  0
 10 14  1  0
 14 15  1  0
 15 16  2  0
 15 17  1  0
 17 18  1  0
 18 19  2  0
 18 24  1  0
 19 20  1  0
 20 21  2  0
 21 22  1  0
 21 23  1  0
 23 24  2  0
 11 12  2  0
 11 13  1  0
M  END
>  <minimizedAffinity>  (791) 
-8.92635

$$$$
data/200k_reference_output/data/smiles/67096.pdb
     RDKit          3D

 22 24  0  0  0  0  0  0  0  0999 V2000
   69.0482   48.0775   54.3761 C   0  0  0  0  0  0  0  0  0  0  0  0
   68.8173   49.2409   55.0811 C   0  0  0  0  0  0  0  0  0  0  0  0
   69.0272   50.4917   54.5561 C   0  0  0  0  0  0  0  0  0  0  0  0
   69.4911   50.5818   53.2613 C   0  0  0  0  0  0  0  0  0  0  0  0
   69.7302   49.4189   52.5331 C   0  0  0  0  0  0  0  0  0  0  0  0
   70.1689   49.2155   51.2937 N   0  0  0  0  0  0  0  0  0  0  0  0
   70.2405   47.9253   51.0266 N   0  0  0  0  0  0  0  0  0  0  0  0
   69.8424   47.2376   52.1088 C   0  0  0  0  0  0  0  0  0  0  0  0
   69.5124   48.1625   53.0806 C   0  0  0  0  0  0  0  0  0  0  0  0
   69.3694   46.4589   56.1856 C   0  0  0  0  0  0  0  0  0  0  0  0
   69.1533   45.2409   56.7107 N   0  0  0  0  0  0  0  0  0  0  0  0
   68.4272   44.2954   56.1039 C   0  0  0  0  0  0  0  0  0  0  0  0
   68.2093   43.0002   56.6854 N   0  0  0  0  0  0  0  0  0  0  0  0
   67.8929   44.5986   54.8991 N   0  0  0  0  0  0  0  0  0  0  0  0
   68.0608   45.7928   54.3038 C   0  0  0  0  0  0  0  0  0  0  0  0
   68.8171   46.7524   54.9561 C   0  0  0  0  0  0  0  0  0  0  0  0
   70.7019   47.2144   58.1078 C   0  0  0  0  0  0  0  0  0  0  0  0
   70.1387   47.4290   56.8524 O   0  0  0  0  0  0  0  0  0  0  0  0
   68.7624   51.7373   55.3602 C   0  0  0  0  0  0  0  0  0  0  0  0
   69.8181   52.0740   56.1524 F   0  0  0  0  0  0  0  0  0  0  0  0
   68.4723   52.7291   54.4147 F   0  0  0  0  0  0  0  0  0  0  0  0
   67.5955   51.5135   56.0562 F   0  0  0  0  0  0  0  0  0  0  0  0
 17 18  1  0
 18 10  1  0
 10 11  2  0
 10 16  1  0
 11 12  1  0
 12 13  1  0
 12 14  2  0
 14 15  1  0
 15 16  2  0
 16  1  1  0
  1  2  2  0
  1  9  1  0
  2  3  1  0
  3 19  1  0
  3  4  2  0
 19 20  1  0
 19 21  1  0
 19 22  1  0
  4  5  1  0
  5  6  1  0
  5  9  2  0
  6  7  1  0
  7  8  2  0
  8  9  1  0
M  END
>  <minimizedAffinity>  (792) 
-8.50928

$$$$
data/200k_reference_output/data/smiles/67283.pdb
     RDKit          3D

 31 34  0  0  0  0  0  0  0  0999 V2000
   71.8880   48.9005   58.3330 C   0  0  0  0  0  0  0  0  0  0  0  0
   73.1487   49.1949   58.2204 O   0  0  0  0  0  0  0  0  0  0  0  0
   70.9662   49.7929   57.7651 N   0  0  0  0  0  0  0  0  0  0  0  0
   71.5040   50.9844   57.0929 C   0  0  0  0  0  0  0  0  0  0  0  0
   70.9389   50.9483   55.6947 C   0  0  0  0  0  0  0  0  0  0  0  0
   70.1358   49.8068   55.3913 N   0  0  0  0  0  0  0  0  0  0  0  0
   70.2078   49.2535   54.0788 C   0  0  0  0  0  0  0  0  0  0  0  0
   70.9561   49.7458   53.1885 O   0  0  0  0  0  0  0  0  0  0  0  0
   69.2388   49.1563   56.3262 C   0  0  0  0  0  0  0  0  0  0  0  0
   69.5682   49.6760   57.7502 C   0  0  0  0  0  0  0  0  0  0  0  0
   69.4252   48.0895   53.6799 C   0  0  0  0  0  0  0  0  0  0  0  0
   69.0643   47.1506   54.6233 C   0  0  0  0  0  0  0  0  0  0  0  0
   68.3131   46.0277   54.2572 C   0  0  0  0  0  0  0  0  0  0  0  0
   67.9552   45.0951   55.1874 F   0  0  0  0  0  0  0  0  0  0  0  0
   67.9267   45.8460   52.9567 C   0  0  0  0  0  0  0  0  0  0  0  0
   67.2036   44.7629   52.6109 F   0  0  0  0  0  0  0  0  0  0  0  0
   68.2773   46.7727   52.0003 C   0  0  0  0  0  0  0  0  0  0  0  0
   67.8816   46.5680   50.7290 F   0  0  0  0  0  0  0  0  0  0  0  0
   69.0199   47.8770   52.3815 C   0  0  0  0  0  0  0  0  0  0  0  0
   69.3767   48.8023   51.4590 F   0  0  0  0  0  0  0  0  0  0  0  0
   71.6637   47.8123   60.3208 O   0  0  0  0  0  0  0  0  0  0  0  0
   71.6114   47.6816   59.0333 C   0  0  0  0  0  0  0  0  0  0  0  0
   71.2976   46.3573   58.5593 C   0  0  0  0  0  0  0  0  0  0  0  0
   69.9613   45.9040   58.3730 C   0  0  0  0  0  0  0  0  0  0  0  0
   69.9759   44.6084   58.0748 N   0  0  0  0  0  0  0  0  0  0  0  0
   71.2313   44.1349   58.0402 C   0  0  0  0  0  0  0  0  0  0  0  0
   71.7376   42.8719   57.7474 C   0  0  0  0  0  0  0  0  0  0  0  0
   73.0885   42.6429   57.7359 C   0  0  0  0  0  0  0  0  0  0  0  0
   73.8977   43.7112   58.0234 C   0  0  0  0  0  0  0  0  0  0  0  0
   73.3954   44.9778   58.3169 C   0  0  0  0  0  0  0  0  0  0  0  0
   72.0318   45.2233   58.3381 C   0  0  0  0  0  0  0  0  0  0  0  0
 21 22  2  0
 22  1  1  0
 22 23  1  0
  1  2  2  0
  1  3  1  0
  3  4  1  0
  3 10  1  0
  4  5  1  0
  5  6  1  0
  6  7  1  0
  6  9  1  0
  7  8  2  0
  7 11  1  0
 11 12  2  0
 11 19  1  0
 12 13  1  0
 13 14  1  0
 13 15  2  0
 15 16  1  0
 15 17  1  0
 17 18  1  0
 17 19  2  0
 19 20  1  0
  9 10  1  0
 23 24  2  0
 23 31  1  0
 24 25  1  0
 25 26  1  0
 26 27  1  0
 26 31  2  0
 27 28  2  0
 28 29  1  0
 29 30  2  0
 30 31  1  0
M  END
>  <minimizedAffinity>  (793) 
-9.24223

$$$$
data/200k_reference_output/data/smiles/67415.pdb
     RDKit          3D

 26 29  0  0  0  0  0  0  0  0999 V2000
   70.6535   49.6100   54.1251 C   0  0  0  0  0  0  0  0  0  0  0  0
   71.1277   49.1516   52.9732 O   0  0  0  0  0  0  0  0  0  0  0  0
   69.5045   49.0031   54.5632 N   0  0  0  0  0  0  0  0  0  0  0  0
   69.0147   47.8711   53.7673 C   0  0  0  0  0  0  0  0  0  0  0  0
   69.1531   48.0843   52.4199 C   0  0  0  0  0  0  0  0  0  0  0  0
   68.7649   47.0956   51.5310 C   0  0  0  0  0  0  0  0  0  0  0  0
   68.2367   45.8938   51.9699 C   0  0  0  0  0  0  0  0  0  0  0  0
   68.0963   45.6877   53.3250 C   0  0  0  0  0  0  0  0  0  0  0  0
   68.4857   46.6773   54.2069 C   0  0  0  0  0  0  0  0  0  0  0  0
   68.2348   46.3360   55.6246 C   0  0  0  0  0  0  0  0  0  0  0  0
   68.1220   45.1180   55.8496 O   0  0  0  0  0  0  0  0  0  0  0  0
   68.1124   47.2471   56.7287 N   0  0  0  0  0  0  0  0  0  0  0  0
   68.1903   48.6806   56.6624 C   0  0  0  0  0  0  0  0  0  0  0  0
   67.5278   49.3271   57.6834 C   0  0  0  0  0  0  0  0  0  0  0  0
   67.4669   50.6963   57.7670 C   0  0  0  0  0  0  0  0  0  0  0  0
   68.1104   51.4264   56.7618 C   0  0  0  0  0  0  0  0  0  0  0  0
   68.7619   50.8228   55.7565 N   0  0  0  0  0  0  0  0  0  0  0  0
   68.8034   49.4834   55.7053 C   0  0  0  0  0  0  0  0  0  0  0  0
   71.5112   50.6713   54.6348 C   0  0  0  0  0  0  0  0  0  0  0  0
   76.4184   49.9105   55.7522 C   0  0  0  0  0  0  0  0  0  0  0  0
   75.3469   50.7136   56.2798 N   0  0  0  0  0  0  0  0  0  0  0  0
   74.2863   49.9218   56.8706 C   0  0  0  0  0  0  0  0  0  0  0  0
   72.9826   50.5448   56.4642 C   0  0  0  0  0  0  0  0  0  0  0  0
   72.8148   50.2793   55.0241 N   0  0  0  0  0  0  0  0  0  0  0  0
   73.8363   51.0942   54.3716 C   0  0  0  0  0  0  0  0  0  0  0  0
   74.8181   51.6480   55.3187 C   0  0  0  0  0  0  0  0  0  0  0  0
 20 21  1  0
 21 22  1  0
 21 26  1  0
 22 23  1  0
 23 24  1  0
 24 19  1  0
 24 25  1  0
 19  1  1  0
  1  2  2  0
  1  3  1  0
  3  4  1  0
  3 18  1  0
  4  5  2  0
  4  9  1  0
  5  6  1  0
  6  7  2  0
  7  8  1  0
  8  9  2  0
  9 10  1  0
 10 11  2  0
 10 12  1  0
 12 13  1  0
 13 14  1  0
 13 18  2  0
 14 15  2  0
 15 16  1  0
 16 17  2  0
 17 18  1  0
 25 26  1  0
M  CHG  2  21   1  24   1
M  END
>  <minimizedAffinity>  (794) 
-8.71096

$$$$
data/200k_reference_output/data/smiles/67453.pdb
     RDKit          3D

 24 25  0  0  0  0  0  0  0  0999 V2000
   70.9049   51.3094   54.9347 C   0  0  0  0  0  0  0  0  0  0  0  0
   70.3280   52.2886   55.7329 C   0  0  0  0  0  0  0  0  0  0  0  0
   69.0084   52.6691   55.5910 C   0  0  0  0  0  0  0  0  0  0  0  0
   68.2662   52.0383   54.6192 C   0  0  0  0  0  0  0  0  0  0  0  0
   68.8361   51.0658   53.8262 C   0  0  0  0  0  0  0  0  0  0  0  0
   70.1485   50.6736   53.9508 C   0  0  0  0  0  0  0  0  0  0  0  0
   73.3214   51.6647   54.7825 C   0  0  0  0  0  0  0  0  0  0  0  0
   72.2979   50.9005   55.0770 C   0  0  0  0  0  0  0  0  0  0  0  0
   75.1506   49.9168   54.7923 N   0  0  0  0  0  0  0  0  0  0  0  0
   74.7006   51.2396   54.9310 C   0  0  0  0  0  0  0  0  0  0  0  0
   75.5974   52.1078   55.2081 O   0  0  0  0  0  0  0  0  0  0  0  0
   76.4901   49.5899   54.9494 O   0  0  0  0  0  0  0  0  0  0  0  0
   78.2456   50.2349   56.6208 C   0  0  0  0  0  0  0  0  0  0  0  0
   76.9947   49.5143   56.2553 C   0  0  0  0  0  0  0  0  0  0  0  0
   76.3688   48.8302   57.0972 O   0  0  0  0  0  0  0  0  0  0  0  0
   70.7078   49.6918   53.1438 O   0  0  0  0  0  0  0  0  0  0  0  0
   69.9895   48.9165   52.2601 C   0  0  0  0  0  0  0  0  0  0  0  0
   70.0210   49.2376   51.0426 O   0  0  0  0  0  0  0  0  0  0  0  0
   69.2059   47.7542   52.6772 C   0  0  0  0  0  0  0  0  0  0  0  0
   69.0557   47.4700   54.0185 C   0  0  0  0  0  0  0  0  0  0  0  0
   68.3099   46.3628   54.4278 C   0  0  0  0  0  0  0  0  0  0  0  0
   67.7093   45.5315   53.5037 C   0  0  0  0  0  0  0  0  0  0  0  0
   67.8555   45.8089   52.1470 C   0  0  0  0  0  0  0  0  0  0  0  0
   68.5981   46.9109   51.7777 C   0  0  0  0  0  0  0  0  0  0  0  0
 13 14  1  0
 14 15  2  0
 14 12  1  0
 12  9  1  0
  9 10  1  0
 10 11  2  0
 10  7  1  0
  7  8  2  0
  8  1  1  0
  1  2  2  0
  1  6  1  0
  2  3  1  0
  3  4  2  0
  4  5  1  0
  5  6  2  0
  6 16  1  0
 16 17  1  0
 17 18  2  0
 17 19  1  0
 19 20  2  0
 19 24  1  0
 20 21  1  0
 21 22  2  0
 22 23  1  0
 23 24  2  0
M  END
>  <minimizedAffinity>  (795) 
-8.93934

$$$$
data/200k_reference_output/data/smiles/67490.pdb
     RDKit          3D

 29 32  0  0  0  0  0  0  0  0999 V2000
   68.4267   45.9368   54.2274 C   0  0  0  0  0  0  0  0  0  0  0  0
   67.7347   45.3068   53.2148 C   0  0  0  0  0  0  0  0  0  0  0  0
   67.7149   45.8791   51.9455 C   0  0  0  0  0  0  0  0  0  0  0  0
   68.3762   47.0691   51.6855 C   0  0  0  0  0  0  0  0  0  0  0  0
   69.0714   47.7038   52.6977 C   0  0  0  0  0  0  0  0  0  0  0  0
   69.0704   47.1156   53.9290 C   0  0  0  0  0  0  0  0  0  0  0  0
   68.4111   46.2153   56.5466 O   0  0  0  0  0  0  0  0  0  0  0  0
   68.5060   45.4206   55.5800 C   0  0  0  0  0  0  0  0  0  0  0  0
   68.6878   44.0582   55.9039 N   0  0  0  0  0  0  0  0  0  0  0  0
   68.7652   43.5569   57.2051 N   0  0  0  0  0  0  0  0  0  0  0  0
   68.3372   42.3749   57.4431 C   0  0  0  0  0  0  0  0  0  0  0  0
   67.7527   41.4862   56.4047 C   0  0  0  0  0  0  0  0  0  0  0  0
   68.0844   40.1294   56.9849 C   0  0  0  0  0  0  0  0  0  0  0  0
   68.1554   40.2937   58.4374 C   0  0  0  0  0  0  0  0  0  0  0  0
   68.1045   39.4256   59.5331 C   0  0  0  0  0  0  0  0  0  0  0  0
   68.2034   39.8796   60.8285 C   0  0  0  0  0  0  0  0  0  0  0  0
   68.3596   41.2357   61.0800 C   0  0  0  0  0  0  0  0  0  0  0  0
   68.4107   42.0924   60.0167 C   0  0  0  0  0  0  0  0  0  0  0  0
   68.5660   43.4537   60.2405 O   0  0  0  0  0  0  0  0  0  0  0  0
   68.3104   41.6308   58.7212 C   0  0  0  0  0  0  0  0  0  0  0  0
   69.9373   49.2051   52.4584 S   0  0  0  0  0  0  0  0  0  0  0  0
   71.3936   49.0595   52.7906 O   0  0  0  0  0  0  0  0  0  0  0  0
   69.8310   49.5312   50.9779 O   0  0  0  0  0  0  0  0  0  0  0  0
   69.2000   50.4935   53.3083 N   0  0  0  0  0  0  0  0  0  0  0  0
   70.1429   51.0662   54.2192 C   0  0  0  0  0  0  0  0  0  0  0  0
   70.1340   50.2542   55.5106 C   0  0  0  0  0  0  0  0  0  0  0  0
   68.7151   50.4993   55.9980 C   0  0  0  0  0  0  0  0  0  0  0  0
   68.4318   51.9283   55.6612 C   0  0  0  0  0  0  0  0  0  0  0  0
   69.5343   52.3811   54.7223 C   0  0  0  0  0  0  0  0  0  0  0  0
  7  8  2  0
  8  9  1  0
  8  1  1  0
  9 10  1  0
 10 11  2  0
 11 12  1  0
 11 20  1  0
 12 13  1  0
 13 14  1  0
 14 15  1  0
 14 20  2  0
 15 16  2  0
 16 17  1  0
 17 18  2  0
 18 19  1  0
 18 20  1  0
  1  2  2  0
  1  6  1  0
  2  3  1  0
  3  4  2  0
  4  5  1  0
  5 21  1  0
  5  6  2  0
 21 22  2  0
 21 23  2  0
 21 24  1  0
 24 25  1  0
 25 26  1  0
 25 29  1  0
 26 27  1  0
 27 28  1  0
 28 29  1  0
M  END
>  <minimizedAffinity>  (796) 
-9.71686

$$$$
data/200k_reference_output/data/smiles/67525.pdb
     RDKit          3D

 27 29  0  0  0  0  0  0  0  0999 V2000
   69.2033   42.8759   57.0057 C   0  0  0  0  0  0  0  0  0  0  0  0
   68.0938   42.3209   56.8777 O   0  0  0  0  0  0  0  0  0  0  0  0
   69.3014   44.2252   56.5777 N   0  0  0  0  0  0  0  0  0  0  0  0
   73.9428   42.6865   58.5068 C   0  0  0  0  0  0  0  0  0  0  0  0
   72.6252   42.0662   58.2972 C   0  0  0  0  0  0  0  0  0  0  0  0
   71.5453   42.7261   57.7648 C   0  0  0  0  0  0  0  0  0  0  0  0
   70.3142   42.1224   57.5768 C   0  0  0  0  0  0  0  0  0  0  0  0
   70.2257   40.8010   57.9581 C   0  0  0  0  0  0  0  0  0  0  0  0
   71.2745   40.0832   58.4987 C   0  0  0  0  0  0  0  0  0  0  0  0
   72.4721   40.7435   58.6601 C   0  0  0  0  0  0  0  0  0  0  0  0
   71.1498   38.7144   58.8840 N   0  0  0  0  0  0  0  0  0  0  0  0
   71.5600   37.6589   58.1918 C   0  0  0  0  0  0  0  0  0  0  0  0
   71.2560   36.5263   58.9063 C   0  0  0  0  0  0  0  0  0  0  0  0
   71.4825   35.2256   58.5978 F   0  0  0  0  0  0  0  0  0  0  0  0
   70.6422   36.9465   60.0652 C   0  0  0  0  0  0  0  0  0  0  0  0
   70.6084   38.2875   59.9901 N   0  0  0  0  0  0  0  0  0  0  0  0
   68.1812   44.9066   56.0282 N   0  0  0  0  0  0  0  0  0  0  0  0
   68.5857   46.6047   55.9839 S   0  0  0  0  0  0  0  0  0  0  0  0
   67.5559   47.4372   56.6542 O   0  0  0  0  0  0  0  0  0  0  0  0
   69.8669   46.7478   56.7912 O   0  0  0  0  0  0  0  0  0  0  0  0
   68.9048   47.1250   54.3589 C   0  0  0  0  0  0  0  0  0  0  0  0
   69.6148   48.2873   54.1441 C   0  0  0  0  0  0  0  0  0  0  0  0
   69.8903   48.7383   52.8760 C   0  0  0  0  0  0  0  0  0  0  0  0
   69.4523   48.0191   51.7853 C   0  0  0  0  0  0  0  0  0  0  0  0
   68.7363   46.8469   52.0038 C   0  0  0  0  0  0  0  0  0  0  0  0
   68.4604   46.3965   53.2775 C   0  0  0  0  0  0  0  0  0  0  0  0
   67.7512   45.2361   53.4344 F   0  0  0  0  0  0  0  0  0  0  0  0
  4  5  1  0
  5  6  2  0
  5 10  1  0
  6  7  1  0
  7  1  1  0
  7  8  2  0
  1  2  2  0
  1  3  1  0
  3 17  1  0
 17 18  1  0
 18 19  2  0
 18 20  2  0
 18 21  1  0
 21 22  2  0
 21 26  1  0
 22 23  1  0
 23 24  2  0
 24 25  1  0
 25 26  2  0
 26 27  1  0
  8  9  1  0
  9 11  1  0
  9 10  2  0
 11 12  1  0
 11 16  1  0
 12 13  2  0
 13 14  1  0
 13 15  1  0
 15 16  2  0
M  END
>  <minimizedAffinity>  (797) 
-9.19043

$$$$
data/200k_reference_output/data/smiles/67570.pdb
     RDKit          3D

 24 26  0  0  0  0  0  0  0  0999 V2000
   68.6189   47.5654   53.6554 C   0  0  0  0  0  0  0  0  0  0  0  0
   67.9574   47.0117   52.5745 C   0  0  0  0  0  0  0  0  0  0  0  0
   67.5441   45.6966   52.5811 C   0  0  0  0  0  0  0  0  0  0  0  0
   66.9344   45.2175   51.5626 O   0  0  0  0  0  0  0  0  0  0  0  0
   67.7760   44.9429   53.6270 O   0  0  0  0  0  0  0  0  0  0  0  0
   68.4039   45.4335   54.6779 C   0  0  0  0  0  0  0  0  0  0  0  0
   68.6548   44.6363   55.7987 C   0  0  0  0  0  0  0  0  0  0  0  0
   69.2949   45.0839   56.9077 C   0  0  0  0  0  0  0  0  0  0  0  0
   69.7122   46.4268   56.8910 C   0  0  0  0  0  0  0  0  0  0  0  0
   69.4954   47.2539   55.8237 C   0  0  0  0  0  0  0  0  0  0  0  0
   68.8401   46.7339   54.7315 C   0  0  0  0  0  0  0  0  0  0  0  0
   69.0351   48.9641   53.5951 C   0  0  0  0  0  0  0  0  0  0  0  0
   69.8408   49.4873   51.2870 N   0  0  0  0  0  0  0  0  0  0  0  0
   70.1578   49.1611   52.6286 C   0  0  0  0  0  0  0  0  0  0  0  0
   71.3699   49.0538   52.9337 O   0  0  0  0  0  0  0  0  0  0  0  0
   69.5486   44.3543   57.9924 O   0  0  0  0  0  0  0  0  0  0  0  0
   70.1755   43.2181   58.3604 C   0  0  0  0  0  0  0  0  0  0  0  0
   69.4041   41.9440   58.2402 C   0  0  0  0  0  0  0  0  0  0  0  0
   69.2016   41.0704   59.2732 C   0  0  0  0  0  0  0  0  0  0  0  0
   68.4868   39.9207   59.0631 C   0  0  0  0  0  0  0  0  0  0  0  0
   67.9457   39.5814   57.8386 C   0  0  0  0  0  0  0  0  0  0  0  0
   68.1505   40.4633   56.8006 C   0  0  0  0  0  0  0  0  0  0  0  0
   67.6255   40.1779   55.5292 O   0  0  0  0  0  0  0  0  0  0  0  0
   68.8647   41.6204   56.9960 C   0  0  0  0  0  0  0  0  0  0  0  0
 13 14  1  0
 14 15  2  0
 14 12  1  0
 12  1  1  0
  1  2  2  0
  1 11  1  0
  2  3  1  0
  3  4  2  0
  3  5  1  0
  5  6  1  0
  6  7  1  0
  6 11  2  0
  7  8  2  0
  8 16  1  0
  8  9  1  0
 16 17  1  0
 17 18  1  0
 18 19  2  0
 18 24  1  0
 19 20  1  0
 20 21  2  0
 21 22  1  0
 22 23  1  0
 22 24  2  0
  9 10  2  0
 10 11  1  0
M  END
>  <minimizedAffinity>  (798) 
-8.57363

$$$$
data/200k_reference_output/data/smiles/67571.pdb
     RDKit          3D

 30 34  0  0  0  0  0  0  0  0999 V2000
   71.2296   46.5919   59.7836 O   0  0  0  0  0  0  0  0  0  0  0  0
   71.6548   47.7405   59.4156 C   0  0  0  0  0  0  0  0  0  0  0  0
   71.0432   48.3385   58.3102 N   0  0  0  0  0  0  0  0  0  0  0  0
   69.9443   47.6668   57.6105 C   0  0  0  0  0  0  0  0  0  0  0  0
   69.1170   48.7824   56.9541 C   0  0  0  0  0  0  0  0  0  0  0  0
   69.7437   49.4519   55.8583 C   0  0  0  0  0  0  0  0  0  0  0  0
   71.2172   49.6857   56.2528 C   0  0  0  0  0  0  0  0  0  0  0  0
   71.4052   49.6226   57.7504 C   0  0  0  0  0  0  0  0  0  0  0  0
   69.7618   48.9721   54.5413 N   0  0  0  0  0  0  0  0  0  0  0  0
   70.5139   49.6134   53.5980 C   0  0  0  0  0  0  0  0  0  0  0  0
   71.2467   50.6510   53.7542 O   0  0  0  0  0  0  0  0  0  0  0  0
   70.4002   49.0139   52.4334 N   0  0  0  0  0  0  0  0  0  0  0  0
   69.5735   47.9680   52.5805 C   0  0  0  0  0  0  0  0  0  0  0  0
   69.1307   47.0251   51.6609 C   0  0  0  0  0  0  0  0  0  0  0  0
   68.2724   46.0634   52.1393 C   0  0  0  0  0  0  0  0  0  0  0  0
   67.8765   46.0417   53.4589 C   0  0  0  0  0  0  0  0  0  0  0  0
   68.3404   46.9978   54.3360 C   0  0  0  0  0  0  0  0  0  0  0  0
   69.1854   47.9577   53.9000 C   0  0  0  0  0  0  0  0  0  0  0  0
   72.7499   48.3051   60.2078 C   0  0  0  0  0  0  0  0  0  0  0  0
   73.9298   48.7247   59.3533 C   0  0  0  0  0  0  0  0  0  0  0  0
   74.7543   47.5591   58.9036 C   0  0  0  0  0  0  0  0  0  0  0  0
   74.1508   46.2702   59.2378 N   0  0  0  0  0  0  0  0  0  0  0  0
   73.9211   46.1385   60.6482 C   0  0  0  0  0  0  0  0  0  0  0  0
   73.2996   47.3636   61.2572 C   0  0  0  0  0  0  0  0  0  0  0  0
   75.0892   45.2579   58.8004 C   0  0  0  0  0  0  0  0  0  0  0  0
   74.4528   44.0361   58.3051 C   0  0  0  0  0  0  0  0  0  0  0  0
   73.2041   43.9223   57.7601 C   0  0  0  0  0  0  0  0  0  0  0  0
   73.0482   42.5913   57.4455 C   0  0  0  0  0  0  0  0  0  0  0  0
   74.1480   41.9501   57.7866 O   0  0  0  0  0  0  0  0  0  0  0  0
   75.0220   42.7802   58.3087 C   0  0  0  0  0  0  0  0  0  0  0  0
  1  2  2  0
  2 19  1  0
  2  3  1  0
 19 20  1  0
 19 24  1  0
 20 21  1  0
 21 22  1  0
 22 25  1  0
 22 23  1  0
 25 26  1  0
 26 27  1  0
 26 30  2  0
 27 28  2  0
 28 29  1  0
 29 30  1  0
 23 24  1  0
  3  4  1  0
  3  8  1  0
  4  5  1  0
  5  6  1  0
  6  9  1  0
  6  7  1  0
  9 10  1  0
  9 18  1  0
 10 11  2  0
 10 12  1  0
 12 13  1  0
 13 14  1  0
 13 18  2  0
 14 15  2  0
 15 16  1  0
 16 17  2  0
 17 18  1  0
  7  8  1  0
M  CHG  1  22   1
M  END
>  <minimizedAffinity>  (799) 
-8.52930

$$$$
data/200k_reference_output/data/smiles/67692.pdb
     RDKit          3D

 23 26  0  0  0  0  0  0  0  0999 V2000
   68.7464   47.2468   56.1108 C   0  0  0  0  0  0  0  0  0  0  0  0
   70.2048   49.2222   51.0314 O   0  0  0  0  0  0  0  0  0  0  0  0
   69.8313   48.7338   52.2733 C   0  0  0  0  0  0  0  0  0  0  0  0
   70.2762   49.3436   53.4118 C   0  0  0  0  0  0  0  0  0  0  0  0
   69.9336   48.8974   54.6551 C   0  0  0  0  0  0  0  0  0  0  0  0
   69.1074   47.7893   54.7926 C   0  0  0  0  0  0  0  0  0  0  0  0
   68.6583   47.1743   53.6456 C   0  0  0  0  0  0  0  0  0  0  0  0
   67.8307   46.0637   53.7049 C   0  0  0  0  0  0  0  0  0  0  0  0
   67.3855   45.4549   52.5586 C   0  0  0  0  0  0  0  0  0  0  0  0
   67.7869   45.9810   51.3420 C   0  0  0  0  0  0  0  0  0  0  0  0
   68.5790   47.0421   51.2701 N   0  0  0  0  0  0  0  0  0  0  0  0
   69.0073   47.6283   52.4026 C   0  0  0  0  0  0  0  0  0  0  0  0
   67.5896   47.6504   56.7391 N   0  0  0  0  0  0  0  0  0  0  0  0
   67.4514   48.6786   57.6535 C   0  0  0  0  0  0  0  0  0  0  0  0
   68.2327   49.9103   57.4329 C   0  0  0  0  0  0  0  0  0  0  0  0
   67.7812   50.9210   56.5752 C   0  0  0  0  0  0  0  0  0  0  0  0
   68.4867   52.0892   56.3864 C   0  0  0  0  0  0  0  0  0  0  0  0
   69.6883   52.2859   57.0646 C   0  0  0  0  0  0  0  0  0  0  0  0
   70.1273   51.2914   57.9052 C   0  0  0  0  0  0  0  0  0  0  0  0
   69.4181   50.1298   58.0874 C   0  0  0  0  0  0  0  0  0  0  0  0
   71.3410   51.7843   58.4242 O   0  0  0  0  0  0  0  0  0  0  0  0
   71.8480   52.7305   57.4695 C   0  0  0  0  0  0  0  0  0  0  0  0
   70.6099   53.3376   57.0818 O   0  0  0  0  0  0  0  0  0  0  0  0
  2  3  1  0
  3  4  2  0
  3 12  1  0
  4  5  1  0
  5  6  2  0
  6  1  1  0
  6  7  1  0
  1 13  1  0
 13 14  1  0
 14 15  1  0
 15 16  2  0
 15 20  1  0
 16 17  1  0
 17 18  2  0
 18 19  1  0
 18 23  1  0
 19 20  2  0
 19 21  1  0
 21 22  1  0
 22 23  1  0
  7  8  1  0
  7 12  2  0
  8  9  2  0
  9 10  1  0
 10 11  2  0
 11 12  1  0
M  CHG  1  13   1
M  END
>  <minimizedAffinity>  (800) 
-8.74859

$$$$
data/200k_reference_output/data/smiles/67712.pdb
     RDKit          3D

 28 31  0  0  0  0  0  0  0  0999 V2000
   69.3132   40.2822   58.3960 C   0  0  0  0  0  0  0  0  0  0  0  0
   70.2113   41.2998   58.1610 C   0  0  0  0  0  0  0  0  0  0  0  0
   69.9188   42.3531   57.3008 C   0  0  0  0  0  0  0  0  0  0  0  0
   68.7181   42.4411   56.6344 C   0  0  0  0  0  0  0  0  0  0  0  0
   67.8175   41.4216   56.8691 C   0  0  0  0  0  0  0  0  0  0  0  0
   68.1074   40.3774   57.7219 C   0  0  0  0  0  0  0  0  0  0  0  0
   68.3948   43.5056   55.7461 N   0  0  0  0  0  0  0  0  0  0  0  0
   68.6605   44.8685   55.9907 C   0  0  0  0  0  0  0  0  0  0  0  0
   69.2249   45.1516   57.0786 O   0  0  0  0  0  0  0  0  0  0  0  0
   68.3426   45.9268   55.1106 N   0  0  0  0  0  0  0  0  0  0  0  0
   68.5910   47.3420   55.3152 C   0  0  0  0  0  0  0  0  0  0  0  0
   69.1187   47.7508   53.9879 C   0  0  0  0  0  0  0  0  0  0  0  0
   69.9676   48.7681   53.6000 C   0  0  0  0  0  0  0  0  0  0  0  0
   70.2705   48.8858   52.2627 C   0  0  0  0  0  0  0  0  0  0  0  0
   69.7459   48.0243   51.3491 N   0  0  0  0  0  0  0  0  0  0  0  0
   68.9184   47.0373   51.7518 C   0  0  0  0  0  0  0  0  0  0  0  0
   68.5801   46.8697   53.0736 C   0  0  0  0  0  0  0  0  0  0  0  0
   67.7039   45.8828   53.8041 C   0  0  0  0  0  0  0  0  0  0  0  0
   69.1658   39.2422   60.4709 O   0  0  0  0  0  0  0  0  0  0  0  0
   69.5681   39.1547   59.2874 C   0  0  0  0  0  0  0  0  0  0  0  0
   70.2356   37.9624   58.9288 N   0  0  0  0  0  0  0  0  0  0  0  0
   70.5034   36.8331   59.7641 C   0  0  0  0  0  0  0  0  0  0  0  0
   71.3374   35.8129   59.0431 C   0  0  0  0  0  0  0  0  0  0  0  0
   72.1318   36.1564   57.9711 C   0  0  0  0  0  0  0  0  0  0  0  0
   72.9167   35.2240   57.2987 C   0  0  0  0  0  0  0  0  0  0  0  0
   72.8851   33.9539   57.7243 N   0  0  0  0  0  0  0  0  0  0  0  0
   72.1065   33.6413   58.7661 C   0  0  0  0  0  0  0  0  0  0  0  0
   71.3422   34.5232   59.4300 N   0  0  0  0  0  0  0  0  0  0  0  0
 19 20  2  0
 20 21  1  0
 20  1  1  0
 21 22  1  0
 22 23  1  0
 23 24  2  0
 23 28  1  0
 24 25  1  0
 25 26  2  0
 26 27  1  0
 27 28  2  0
  1  2  2  0
  1  6  1  0
  2  3  1  0
  3  4  2  0
  4  7  1  0
  4  5  1  0
  7  8  1  0
  8  9  2  0
  8 10  1  0
 10 11  1  0
 10 18  1  0
 11 12  1  0
 12 13  1  0
 12 17  2  0
 13 14  2  0
 14 15  1  0
 15 16  2  0
 16 17  1  0
 17 18  1  0
  5  6  2  0
M  END
>  <minimizedAffinity>  (801) 
-8.81902

$$$$
data/200k_reference_output/data/smiles/67717.pdb
     RDKit          3D

 20 21  0  0  0  0  0  0  0  0999 V2000
   71.1264   51.6117   53.6383 O   0  0  0  0  0  0  0  0  0  0  0  0
   69.9222   51.5539   54.0635 C   0  0  0  0  0  0  0  0  0  0  0  0
   69.1708   50.4250   53.6412 N   0  0  0  0  0  0  0  0  0  0  0  0
   69.8934   49.2160   52.6053 S   0  0  0  0  0  0  0  0  0  0  0  0
   71.3510   49.0498   52.9112 O   0  0  0  0  0  0  0  0  0  0  0  0
   69.7576   49.7040   51.1911 O   0  0  0  0  0  0  0  0  0  0  0  0
   69.0206   47.7100   52.7345 C   0  0  0  0  0  0  0  0  0  0  0  0
   68.7555   47.1894   53.9662 C   0  0  0  0  0  0  0  0  0  0  0  0
   68.0676   46.0006   54.1109 C   0  0  0  0  0  0  0  0  0  0  0  0
   67.6305   45.3060   53.0178 C   0  0  0  0  0  0  0  0  0  0  0  0
   67.8994   45.8334   51.7632 C   0  0  0  0  0  0  0  0  0  0  0  0
   68.5843   47.0174   51.6242 C   0  0  0  0  0  0  0  0  0  0  0  0
   69.3621   52.6111   54.9416 C   0  0  0  0  0  0  0  0  0  0  0  0
   69.6240   52.2402   56.3824 C   0  0  0  0  0  0  0  0  0  0  0  0
   68.7254   51.1752   56.8643 C   0  0  0  0  0  0  0  0  0  0  0  0
   69.1582   49.8759   56.9670 C   0  0  0  0  0  0  0  0  0  0  0  0
   68.2904   48.8950   57.4234 C   0  0  0  0  0  0  0  0  0  0  0  0
   66.9935   49.2062   57.7782 C   0  0  0  0  0  0  0  0  0  0  0  0
   66.5476   50.5039   57.6799 C   0  0  0  0  0  0  0  0  0  0  0  0
   67.4286   51.4693   57.2220 C   0  0  0  0  0  0  0  0  0  0  0  0
  1  2  2  0
  2 13  1  0
  2  3  1  0
 13 14  1  0
 14 15  1  0
 15 16  2  0
 15 20  1  0
 16 17  1  0
 17 18  2  0
 18 19  1  0
 19 20  2  0
  3  4  1  0
  4  5  2  0
  4  6  2  0
  4  7  1  0
  7  8  2  0
  7 12  1  0
  8  9  1  0
  9 10  2  0
 10 11  1  0
 11 12  2  0
M  END
>  <minimizedAffinity>  (802) 
-8.78179

$$$$
data/200k_reference_output/data/smiles/67866.pdb
     RDKit          3D

 28 31  0  0  0  0  0  0  0  0999 V2000
   70.8820   44.6930   58.0269 C   0  0  0  0  0  0  0  0  0  0  0  0
   69.9676   45.5553   57.5125 C   0  0  0  0  0  0  0  0  0  0  0  0
   69.9796   46.9377   57.7148 C   0  0  0  0  0  0  0  0  0  0  0  0
   71.0052   47.4217   58.4935 C   0  0  0  0  0  0  0  0  0  0  0  0
   71.1024   49.1423   58.8173 Cl  0  0  0  0  0  0  0  0  0  0  0  0
   71.9741   46.5747   59.0470 C   0  0  0  0  0  0  0  0  0  0  0  0
   71.8925   45.2151   58.8002 C   0  0  0  0  0  0  0  0  0  0  0  0
   72.8281   44.3843   59.3610 F   0  0  0  0  0  0  0  0  0  0  0  0
   68.8874   41.9759   57.2718 C   0  0  1  0  0  0  0  0  0  0  0  0
   69.6505   43.0617   56.9791 O   0  0  0  0  0  0  0  0  0  0  0  0
   70.7891   43.2197   57.7287 C   0  0  2  0  0  0  0  0  0  0  0  0
   70.7598   42.3590   58.9319 C   0  0  2  0  0  0  0  0  0  0  0  0
   70.9772   41.0278   58.5011 O   0  0  0  0  0  0  0  0  0  0  0  0
   69.4315   42.4508   59.6170 C   0  0  1  0  0  0  0  0  0  0  0  0
   69.1368   43.7886   59.8736 O   0  0  0  0  0  0  0  0  0  0  0  0
   68.3884   41.9054   58.6862 C   0  0  2  0  0  0  0  0  0  0  0  0
   68.2049   40.5562   59.0693 O   0  0  0  0  0  0  0  0  0  0  0  0
   67.5716   43.4220   55.8581 O   0  0  0  0  0  0  0  0  0  0  0  0
   67.6097   42.1221   56.4168 C   0  0  0  0  0  0  0  0  0  0  0  0
   68.9224   47.7556   57.0825 C   0  0  0  0  0  0  0  0  0  0  0  0
   68.8840   47.6187   55.5909 C   0  0  0  0  0  0  0  0  0  0  0  0
   69.5408   48.4756   54.7391 C   0  0  0  0  0  0  0  0  0  0  0  0
   69.5052   48.3250   53.3705 C   0  0  0  0  0  0  0  0  0  0  0  0
   68.7850   47.2743   52.7895 C   0  0  0  0  0  0  0  0  0  0  0  0
   68.1269   46.4135   53.6061 C   0  0  0  0  0  0  0  0  0  0  0  0
   68.1840   46.5942   54.9951 C   0  0  0  0  0  0  0  0  0  0  0  0
   67.6166   45.6164   52.4832 C   0  0  0  0  0  0  0  0  0  0  0  0
   68.3282   46.5457   51.5864 C   0  0  0  0  0  0  0  0  0  0  0  0
 18 19  1  0
  9 19  1  6
  9 10  1  0
  9 16  1  0
 10 11  1  0
 11  1  1  1
 11 12  1  0
  1  2  2  0
  1  7  1  0
  2  3  1  0
  3 20  1  0
  3  4  2  0
 20 21  1  0
 21 22  2  0
 21 26  1  0
 22 23  1  0
 23 24  2  0
 24 25  1  0
 24 28  1  0
 25 26  2  0
 25 27  1  0
 27 28  1  0
  4  5  1  0
  4  6  1  0
  6  7  2  0
  7  8  1  0
 12 13  1  6
 12 14  1  0
 14 15  1  6
 14 16  1  0
 16 17  1  1
M  END
>  <minimizedAffinity>  (803) 
-8.91528

$$$$
data/200k_reference_output/data/smiles/67917.pdb
     RDKit          3D

 28 32  0  0  0  0  0  0  0  0999 V2000
   73.7759   34.8796   55.2239 C   0  0  0  0  0  0  0  0  0  0  0  0
   73.8298   33.5682   55.6434 C   0  0  0  0  0  0  0  0  0  0  0  0
   73.2457   33.2170   56.8451 C   0  0  0  0  0  0  0  0  0  0  0  0
   72.6101   34.1915   57.6155 C   0  0  0  0  0  0  0  0  0  0  0  0
   71.9465   34.1749   58.8277 C   0  0  0  0  0  0  0  0  0  0  0  0
   71.5149   35.4522   59.1077 C   0  0  0  0  0  0  0  0  0  0  0  0
   71.9003   36.2473   58.0941 N   0  0  0  0  0  0  0  0  0  0  0  0
   72.5715   35.4962   57.1701 C   0  0  0  0  0  0  0  0  0  0  0  0
   73.1559   35.7906   55.9913 N   0  0  0  0  0  0  0  0  0  0  0  0
   71.7255   37.6635   57.8526 C   0  0  0  0  0  0  0  0  0  0  0  0
   71.3883   38.4258   59.1037 C   0  0  0  0  0  0  0  0  0  0  0  0
   69.9984   38.2038   59.5930 C   0  0  0  0  0  0  0  0  0  0  0  0
   70.0498   37.0912   60.5512 N   0  0  0  0  0  0  0  0  0  0  0  0
   70.7735   35.8833   60.2867 C   0  0  0  0  0  0  0  0  0  0  0  0
   70.7768   35.0438   61.2217 O   0  0  0  0  0  0  0  0  0  0  0  0
   74.0854   36.2897   53.3230 O   0  0  0  0  0  0  0  0  0  0  0  0
   74.4004   35.2625   53.9379 C   0  0  0  0  0  0  0  0  0  0  0  0
   75.4045   34.4339   53.3661 N   0  0  0  0  0  0  0  0  0  0  0  0
   76.0448   34.7370   52.1411 C   0  0  0  0  0  0  0  0  0  0  0  0
   77.0734   35.6404   52.0036 C   0  0  0  0  0  0  0  0  0  0  0  0
   77.6512   35.8941   50.8142 N   0  0  0  0  0  0  0  0  0  0  0  0
   77.2596   35.2837   49.6820 C   0  0  0  0  0  0  0  0  0  0  0  0
   77.8833   35.5819   48.5003 C   0  0  0  0  0  0  0  0  0  0  0  0
   77.4781   34.9531   47.3457 C   0  0  0  0  0  0  0  0  0  0  0  0
   76.4519   34.0270   47.3712 C   0  0  0  0  0  0  0  0  0  0  0  0
   75.8444   33.7510   48.5874 C   0  0  0  0  0  0  0  0  0  0  0  0
   76.2360   34.3706   49.7556 C   0  0  0  0  0  0  0  0  0  0  0  0
   75.6321   34.1018   50.9886 C   0  0  0  0  0  0  0  0  0  0  0  0
 16 17  2  0
 17 18  1  0
 17  1  1  0
 18 19  1  0
 19 20  2  0
 19 28  1  0
 20 21  1  0
 21 22  2  0
 22 23  1  0
 22 27  1  0
 23 24  2  0
 24 25  1  0
 25 26  2  0
 26 27  1  0
 27 28  2  0
  1  2  2  0
  1  9  1  0
  2  3  1  0
  3  4  2  0
  4  5  1  0
  4  8  1  0
  5  6  2  0
  6  7  1  0
  6 14  1  0
  7  8  1  0
  7 10  1  0
  8  9  2  0
 10 11  1  0
 11 12  1  0
 12 13  1  0
 13 14  1  0
 14 15  2  0
M  END
>  <minimizedAffinity>  (804) 
-8.60611

$$$$
data/200k_reference_output/data/smiles/67954.pdb
     RDKit          3D

 26 27  0  0  0  0  0  0  0  0999 V2000
   74.6420   49.9868   56.7098 C   0  0  0  0  0  0  0  0  0  0  0  0
   74.1844   51.2961   56.5262 N   0  0  0  0  0  0  0  0  0  0  0  0
   73.1990   52.0599   57.6067 S   0  0  0  0  0  0  0  0  0  0  0  0
   73.2219   51.2979   58.9337 O   0  0  0  0  0  0  0  0  0  0  0  0
   73.7875   53.4251   57.9406 O   0  0  0  0  0  0  0  0  0  0  0  0
   71.5126   52.2429   57.2108 C   0  0  0  0  0  0  0  0  0  0  0  0
   70.6192   51.3028   57.7224 C   0  0  0  0  0  0  0  0  0  0  0  0
   69.2876   51.4319   57.4654 C   0  0  0  0  0  0  0  0  0  0  0  0
   68.1643   50.2316   58.1204 Cl  0  0  0  0  0  0  0  0  0  0  0  0
   68.7409   52.4535   56.7137 C   0  0  0  0  0  0  0  0  0  0  0  0
   69.6451   53.3698   56.2186 C   0  0  0  0  0  0  0  0  0  0  0  0
   70.9932   53.2615   56.4635 C   0  0  0  0  0  0  0  0  0  0  0  0
   72.0435   54.4580   55.7400 Cl  0  0  0  0  0  0  0  0  0  0  0  0
   74.1491   51.7554   55.1623 C   0  0  0  0  0  0  0  0  0  0  0  0
   73.3881   50.7961   54.2932 C   0  0  0  0  0  0  0  0  0  0  0  0
   73.9900   50.0899   53.4272 O   0  0  0  0  0  0  0  0  0  0  0  0
   71.9831   50.6338   54.3950 N   0  0  0  0  0  0  0  0  0  0  0  0
   71.3365   49.7074   53.5375 N   0  0  0  0  0  0  0  0  0  0  0  0
   70.1879   49.0131   53.9926 C   0  0  0  0  0  0  0  0  0  0  0  0
   69.7931   49.2631   55.1631 O   0  0  0  0  0  0  0  0  0  0  0  0
   69.4380   48.0433   53.2160 C   0  0  0  0  0  0  0  0  0  0  0  0
   68.5694   47.1410   53.7991 C   0  0  0  0  0  0  0  0  0  0  0  0
   67.8508   46.2186   53.0988 C   0  0  0  0  0  0  0  0  0  0  0  0
   68.0048   46.1887   51.7285 C   0  0  0  0  0  0  0  0  0  0  0  0
   68.8524   47.0645   51.1350 N   0  0  0  0  0  0  0  0  0  0  0  0
   69.5615   47.9784   51.8455 C   0  0  0  0  0  0  0  0  0  0  0  0
  1  2  1  0
  2 14  1  0
  2  3  1  0
 14 15  1  0
 15 16  2  0
 15 17  1  0
 17 18  1  0
 18 19  1  0
 19 20  2  0
 19 21  1  0
 21 22  2  0
 21 26  1  0
 22 23  1  0
 23 24  2  0
 24 25  1  0
 25 26  2  0
  3  4  2  0
  3  5  2  0
  3  6  1  0
  6  7  2  0
  6 12  1  0
  7  8  1  0
  8  9  1  0
  8 10  2  0
 10 11  1  0
 11 12  2  0
 12 13  1  0
M  END
>  <minimizedAffinity>  (805) 
-8.70679

$$$$
data/200k_reference_output/data/smiles/67966.pdb
     RDKit          3D

 24 27  0  0  0  0  0  0  0  0999 V2000
   71.6441   47.9523   59.1428 N   0  0  0  0  0  0  0  0  0  0  0  0
   70.8095   47.0301   58.3821 C   0  0  0  0  0  0  0  0  0  0  0  0
   71.0915   45.8859   58.2575 N   0  0  0  0  0  0  0  0  0  0  0  0
   71.3427   44.6037   58.0786 C   0  0  0  0  0  0  0  0  0  0  0  0
   70.3758   43.6164   57.8031 C   0  0  0  0  0  0  0  0  0  0  0  0
   70.7156   42.3117   57.6372 C   0  0  0  0  0  0  0  0  0  0  0  0
   72.0259   41.8851   57.7294 C   0  0  0  0  0  0  0  0  0  0  0  0
   72.9861   42.8457   57.9986 C   0  0  0  0  0  0  0  0  0  0  0  0
   74.2981   42.4211   58.0888 C   0  0  0  0  0  0  0  0  0  0  0  0
   75.3035   43.3298   58.3542 C   0  0  0  0  0  0  0  0  0  0  0  0
   74.9887   44.6533   58.5257 C   0  0  0  0  0  0  0  0  0  0  0  0
   73.6883   45.0605   58.4341 C   0  0  0  0  0  0  0  0  0  0  0  0
   72.6686   44.1447   58.1672 C   0  0  0  0  0  0  0  0  0  0  0  0
   69.6072   47.5611   57.7714 N   0  0  0  0  0  0  0  0  0  0  0  0
   69.2075   47.1381   56.4770 C   0  0  0  0  0  0  0  0  0  0  0  0
   69.4235   47.8918   55.3776 N   0  0  0  0  0  0  0  0  0  0  0  0
   69.0680   47.5422   54.1347 C   0  0  0  0  0  0  0  0  0  0  0  0
   68.4359   46.3325   53.9564 C   0  0  0  0  0  0  0  0  0  0  0  0
   68.2015   45.5414   55.0598 C   0  0  0  0  0  0  0  0  0  0  0  0
   67.6186   44.4124   54.9440 O   0  0  0  0  0  0  0  0  0  0  0  0
   68.5909   45.9618   56.2845 N   0  0  0  0  0  0  0  0  0  0  0  0
   68.1361   46.1537   52.5058 C   0  0  0  0  0  0  0  0  0  0  0  0
   69.2335   47.0127   51.8741 C   0  0  0  0  0  0  0  0  0  0  0  0
   69.2096   48.2190   52.7929 C   0  0  0  0  0  0  0  0  0  0  0  0
  1  2  1  0
  2  3  2  0
  2 14  1  0
  3  4  1  0
  4  5  2  0
  4 13  1  0
  5  6  1  0
  6  7  2  0
  7  8  1  0
  8  9  1  0
  8 13  2  0
  9 10  2  0
 10 11  1  0
 11 12  2  0
 12 13  1  0
 14 15  1  0
 15 16  2  0
 15 21  1  0
 16 17  1  0
 17 18  2  0
 17 24  1  0
 18 19  1  0
 18 22  1  0
 19 20  2  0
 19 21  1  0
 22 23  1  0
 23 24  1  0
M  CHG  1   3   1
M  END
>  <minimizedAffinity>  (806) 
-8.64553

$$$$
data/200k_reference_output/data/smiles/68395.pdb
     RDKit          3D

 23 25  0  0  0  0  0  0  0  0999 V2000
   68.9441   46.7856   56.5500 C   0  0  0  0  0  0  0  0  0  0  0  0
   68.8924   47.1101   57.8135 O   0  0  0  0  0  0  0  0  0  0  0  0
   68.6674   47.7624   55.6044 N   0  0  0  0  0  0  0  0  0  0  0  0
   68.4675   49.1137   56.0864 C   0  0  0  0  0  0  0  0  0  0  0  0
   67.7130   49.1470   57.2247 C   0  0  0  0  0  0  0  0  0  0  0  0
   67.4168   50.3386   57.8438 C   0  0  0  0  0  0  0  0  0  0  0  0
   67.8807   51.5196   57.3169 C   0  0  0  0  0  0  0  0  0  0  0  0
   68.6408   51.5070   56.1717 C   0  0  0  0  0  0  0  0  0  0  0  0
   68.9461   50.2934   55.5382 C   0  0  0  0  0  0  0  0  0  0  0  0
   69.7507   50.5059   54.3940 N   0  0  0  0  0  0  0  0  0  0  0  0
   70.3852   51.8532   54.3402 C   0  0  0  0  0  0  0  0  0  0  0  0
   70.1261   49.4753   53.0779 S   0  0  0  0  0  0  0  0  0  0  0  0
   71.6043   49.1782   53.0166 O   0  0  0  0  0  0  0  0  0  0  0  0
   69.7091   50.1739   51.7744 O   0  0  0  0  0  0  0  0  0  0  0  0
   69.1877   48.0235   53.1419 C   0  0  0  0  0  0  0  0  0  0  0  0
   68.9977   47.4472   51.8714 C   0  0  0  0  0  0  0  0  0  0  0  0
   68.2527   46.3057   51.6906 C   0  0  0  0  0  0  0  0  0  0  0  0
   67.6759   45.7121   52.7900 C   0  0  0  0  0  0  0  0  0  0  0  0
   67.8552   46.2685   54.0301 C   0  0  0  0  0  0  0  0  0  0  0  0
   68.6042   47.4095   54.2152 C   0  0  0  0  0  0  0  0  0  0  0  0
   69.3212   45.3885   56.2787 C   0  0  0  0  0  0  0  0  0  0  0  0
   69.6855   43.2765   57.3772 C   0  0  0  0  0  0  0  0  0  0  0  0
   69.6557   44.6981   57.5489 N   0  0  0  0  0  0  0  0  0  0  0  0
 22 23  1  0
 23 21  1  0
 21  1  1  0
  1  2  2  0
  1  3  1  0
  3  4  1  0
  3 20  1  0
  4  5  2  0
  4  9  1  0
  5  6  1  0
  6  7  2  0
  7  8  1  0
  8  9  2  0
  9 10  1  0
 10 11  1  0
 10 12  1  0
 12 13  2  0
 12 14  2  0
 12 15  1  0
 15 16  2  0
 15 20  1  0
 16 17  1  0
 17 18  2  0
 18 19  1  0
 19 20  2  0
M  CHG  1  23   1
M  END
>  <minimizedAffinity>  (807) 
-8.57920

$$$$
data/200k_reference_output/data/smiles/68475.pdb
     RDKit          3D

 23 25  0  0  0  0  0  0  0  0999 V2000
   69.3018   43.7791   56.8647 N   0  0  0  0  0  0  0  0  0  0  0  0
   68.8681   42.5677   57.0049 C   0  0  0  0  0  0  0  0  0  0  0  0
   67.5878   42.0806   56.5248 C   0  0  0  0  0  0  0  0  0  0  0  0
   66.7185   42.7696   55.9047 O   0  0  0  0  0  0  0  0  0  0  0  0
   67.5254   40.7183   56.8896 N   0  0  0  0  0  0  0  0  0  0  0  0
   68.7012   40.3077   57.5779 C   0  0  0  0  0  0  0  0  0  0  0  0
   69.0957   39.0858   58.1231 C   0  0  0  0  0  0  0  0  0  0  0  0
   70.3173   38.9624   58.7513 C   0  0  0  0  0  0  0  0  0  0  0  0
   71.1153   40.0863   58.8130 C   0  0  0  0  0  0  0  0  0  0  0  0
   70.7401   41.3020   58.2787 C   0  0  0  0  0  0  0  0  0  0  0  0
   71.7734   42.7146   58.3716 Cl  0  0  0  0  0  0  0  0  0  0  0  0
   69.5069   41.4252   57.6457 C   0  0  0  0  0  0  0  0  0  0  0  0
   69.9913   46.3786   56.9705 O   0  0  0  0  0  0  0  0  0  0  0  0
   68.9542   46.1201   56.3000 C   0  0  0  0  0  0  0  0  0  0  0  0
   68.5514   44.7645   56.2160 N   0  0  0  0  0  0  0  0  0  0  0  0
   68.1808   47.2173   55.6204 C   0  0  0  0  0  0  0  0  0  0  0  0
   68.7885   47.4806   54.3126 C   0  0  0  0  0  0  0  0  0  0  0  0
   68.5848   46.6577   53.1967 C   0  0  0  0  0  0  0  0  0  0  0  0
   69.1765   46.9513   51.9998 C   0  0  0  0  0  0  0  0  0  0  0  0
   69.9764   48.0580   51.8873 C   0  0  0  0  0  0  0  0  0  0  0  0
   70.5774   48.3596   50.6784 O   0  0  0  0  0  0  0  0  0  0  0  0
   70.2099   48.9084   52.9672 C   0  0  0  0  0  0  0  0  0  0  0  0
   69.6080   48.5915   54.1460 C   0  0  0  0  0  0  0  0  0  0  0  0
 13 14  2  0
 14 16  1  0
 14 15  1  0
 16 17  1  0
 17 18  2  0
 17 23  1  0
 18 19  1  0
 19 20  2  0
 20 21  1  0
 20 22  1  0
 22 23  2  0
 15  1  1  0
  1  2  2  0
  2  3  1  0
  2 12  1  0
  3  4  2  0
  3  5  1  0
  5  6  1  0
  6  7  1  0
  6 12  2  0
  7  8  2  0
  8  9  1  0
  9 10  2  0
 10 11  1  0
 10 12  1  0
M  END
>  <minimizedAffinity>  (808) 
-8.72080

$$$$
data/200k_reference_output/data/smiles/68545.pdb
     RDKit          3D

 23 25  0  0  0  0  0  0  0  0999 V2000
   70.6741   46.0465   59.0991 O   0  0  0  0  0  0  0  0  0  0  0  0
   70.0887   46.1535   57.9889 C   0  0  0  0  0  0  0  0  0  0  0  0
   69.5992   44.9589   57.3670 N   0  0  0  0  0  0  0  0  0  0  0  0
   69.7385   43.6946   57.9297 N   0  0  0  0  0  0  0  0  0  0  0  0
   69.0990   42.6527   57.5703 C   0  0  0  0  0  0  0  0  0  0  0  0
   68.1101   42.6203   56.5017 C   0  0  0  0  0  0  0  0  0  0  0  0
   67.7408   43.5832   55.7875 O   0  0  0  0  0  0  0  0  0  0  0  0
   67.6470   41.2677   56.4363 N   0  0  0  0  0  0  0  0  0  0  0  0
   68.3170   40.4848   57.4194 C   0  0  0  0  0  0  0  0  0  0  0  0
   68.2231   39.1415   57.7538 C   0  0  0  0  0  0  0  0  0  0  0  0
   68.9780   38.5762   58.7594 C   0  0  0  0  0  0  0  0  0  0  0  0
   69.8500   39.3939   59.4454 C   0  0  0  0  0  0  0  0  0  0  0  0
   69.9637   40.7438   59.1313 C   0  0  0  0  0  0  0  0  0  0  0  0
   69.1975   41.2854   58.1206 C   0  0  0  0  0  0  0  0  0  0  0  0
   69.8603   47.4018   57.2670 C   0  0  0  0  0  0  0  0  0  0  0  0
   68.5883   47.5892   56.5541 C   0  0  0  0  0  0  0  0  0  0  0  0
   68.6233   47.4139   55.0736 C   0  0  0  0  0  0  0  0  0  0  0  0
   67.9973   46.3637   54.4397 C   0  0  0  0  0  0  0  0  0  0  0  0
   68.0474   46.1901   53.0743 C   0  0  0  0  0  0  0  0  0  0  0  0
   68.7351   47.0726   52.2717 C   0  0  0  0  0  0  0  0  0  0  0  0
   68.7905   46.9058   50.9013 O   0  0  0  0  0  0  0  0  0  0  0  0
   69.3565   48.1182   52.9173 C   0  0  0  0  0  0  0  0  0  0  0  0
   69.3140   48.3009   54.2697 C   0  0  0  0  0  0  0  0  0  0  0  0
  1  2  2  0
  2 15  1  0
  2  3  1  0
 15 16  1  0
 16 17  1  0
 17 18  2  0
 17 23  1  0
 18 19  1  0
 19 20  2  0
 20 21  1  0
 20 22  1  0
 22 23  2  0
  3  4  1  0
  4  5  2  0
  5  6  1  0
  5 14  1  0
  6  7  2  0
  6  8  1  0
  8  9  1  0
  9 10  1  0
  9 14  2  0
 10 11  2  0
 11 12  1  0
 12 13  2  0
 13 14  1  0
M  END
>  <minimizedAffinity>  (809) 
-8.69460

$$$$
data/200k_reference_output/data/smiles/68582.pdb
     RDKit          3D

 26 27  0  0  0  0  0  0  0  0999 V2000
   74.9532   49.9023   54.8217 N   0  0  0  0  0  0  0  0  0  0  0  0
   74.0137   50.8958   55.2009 C   0  0  0  0  0  0  0  0  0  0  0  0
   74.5510   51.9709   55.6513 O   0  0  0  0  0  0  0  0  0  0  0  0
   76.9826   49.5414   56.0920 C   0  0  0  0  0  0  0  0  0  0  0  0
   76.2096   48.8521   56.8504 O   0  0  0  0  0  0  0  0  0  0  0  0
   76.3358   50.1319   54.9631 N   0  0  0  0  0  0  0  0  0  0  0  0
   82.0073   49.0680   55.7811 C   0  0  0  0  0  0  0  0  0  0  0  0
   80.6147   49.3824   56.1796 C   0  0  0  0  0  0  0  0  0  0  0  0
   79.4040   49.1341   55.6118 C   0  0  0  0  0  0  0  0  0  0  0  0
   78.3807   49.6624   56.4247 C   0  0  0  0  0  0  0  0  0  0  0  0
   79.0774   50.2171   57.4675 C   0  0  0  0  0  0  0  0  0  0  0  0
   78.3923   50.9063   58.5930 C   0  0  0  0  0  0  0  0  0  0  0  0
   80.3796   50.0470   57.3143 O   0  0  0  0  0  0  0  0  0  0  0  0
   72.5452   50.7782   55.1206 C   0  0  2  0  0  0  0  0  0  0  0  0
   72.1199   50.0945   56.4368 C   0  0  0  0  0  0  0  0  0  0  0  0
   72.0044   50.1230   54.0026 N   0  0  0  0  0  0  0  0  0  0  0  0
   70.3165   50.3430   53.7667 S   0  0  0  0  0  0  0  0  0  0  0  0
   69.6487   51.0667   54.8636 O   0  0  0  0  0  0  0  0  0  0  0  0
   70.1439   51.1419   52.5049 O   0  0  0  0  0  0  0  0  0  0  0  0
   69.5839   48.7602   53.4408 C   0  0  0  0  0  0  0  0  0  0  0  0
   68.8092   48.1268   54.3714 C   0  0  0  0  0  0  0  0  0  0  0  0
   68.2669   46.9027   54.0686 C   0  0  0  0  0  0  0  0  0  0  0  0
   68.5001   46.3130   52.8349 C   0  0  0  0  0  0  0  0  0  0  0  0
   69.2751   46.9379   51.8916 C   0  0  0  0  0  0  0  0  0  0  0  0
   69.8172   48.1929   52.2352 C   0  0  0  0  0  0  0  0  0  0  0  0
   70.5862   48.7881   51.2832 F   0  0  0  0  0  0  0  0  0  0  0  0
  7  8  1  0
  8  9  2  0
  8 13  1  0
  9 10  1  0
 10  4  1  0
 10 11  2  0
  4  5  2  0
  4  6  1  0
  6  1  1  0
  1  2  1  0
  2  3  2  0
  2 14  1  0
 14 15  1  1
 14 16  1  0
 16 17  1  0
 17 18  2  0
 17 19  2  0
 17 20  1  0
 20 21  2  0
 20 25  1  0
 21 22  1  0
 22 23  2  0
 23 24  1  0
 24 25  2  0
 25 26  1  0
 11 12  1  0
 11 13  1  0
M  END
>  <minimizedAffinity>  (810) 
-8.63619

$$$$
data/200k_reference_output/data/smiles/68602.pdb
     RDKit          3D

 20 22  0  0  0  0  0  0  0  0999 V2000
   69.2720   45.2233   56.6806 C   0  0  0  0  0  0  0  0  0  0  0  0
   68.2145   44.6426   56.0994 N   0  0  0  0  0  0  0  0  0  0  0  0
   67.9705   43.3331   56.2357 N   0  0  0  0  0  0  0  0  0  0  0  0
   68.7767   42.5238   56.9662 C   0  0  0  0  0  0  0  0  0  0  0  0
   68.5072   41.2802   57.0692 O   0  0  0  0  0  0  0  0  0  0  0  0
   69.8572   43.0755   57.5695 C   0  0  0  0  0  0  0  0  0  0  0  0
   70.1146   44.4472   57.4285 C   0  0  0  0  0  0  0  0  0  0  0  0
   71.2967   44.9286   58.1520 C   0  0  0  0  0  0  0  0  0  0  0  0
   72.5038   44.0463   57.9243 C   0  0  0  0  0  0  0  0  0  0  0  0
   72.1884   42.5883   57.8486 C   0  0  0  0  0  0  0  0  0  0  0  0
   70.7951   42.2656   58.3768 C   0  0  0  0  0  0  0  0  0  0  0  0
   69.5302   46.6519   56.4879 C   0  0  0  0  0  0  0  0  0  0  0  0
   68.4092   47.2541   55.7152 C   0  0  0  0  0  0  0  0  0  0  0  0
   70.3988   48.8282   51.4309 N   0  0  0  0  0  0  0  0  0  0  0  0
   69.5628   47.9815   52.1858 C   0  0  0  0  0  0  0  0  0  0  0  0
   68.8433   47.0125   51.5076 C   0  0  0  0  0  0  0  0  0  0  0  0
   68.0072   46.1448   52.1661 C   0  0  0  0  0  0  0  0  0  0  0  0
   67.9085   46.2740   53.5330 C   0  0  0  0  0  0  0  0  0  0  0  0
   68.6032   47.2218   54.2530 C   0  0  0  0  0  0  0  0  0  0  0  0
   69.4318   48.0739   53.5607 C   0  0  0  0  0  0  0  0  0  0  0  0
 14 15  1  0
 15 16  2  0
 15 20  1  0
 16 17  1  0
 17 18  2  0
 18 19  1  0
 19 13  1  0
 19 20  2  0
 13 12  1  0
 12  1  1  0
  1  2  2  0
  1  7  1  0
  2  3  1  0
  3  4  1  0
  4  5  2  0
  4  6  1  0
  6  7  2  0
  6 11  1  0
  7  8  1  0
  8  9  1  0
  9 10  1  0
 10 11  1  0
M  END
>  <minimizedAffinity>  (811) 
-8.71012

$$$$
data/200k_reference_output/data/smiles/68635.pdb
     RDKit          3D

 26 28  0  0  0  0  0  0  0  0999 V2000
   69.1705   47.0679   57.6245 O   0  0  0  0  0  0  0  0  0  0  0  0
   68.7977   48.0401   56.7410 C   0  0  0  0  0  0  0  0  0  0  0  0
   67.9591   48.8857   57.2413 O   0  0  0  0  0  0  0  0  0  0  0  0
   69.2079   48.2364   55.3648 C   0  0  0  0  0  0  0  0  0  0  0  0
   70.0645   49.3108   55.0668 C   0  0  0  0  0  0  0  0  0  0  0  0
   70.4781   49.5341   53.7776 C   0  0  0  0  0  0  0  0  0  0  0  0
   71.2436   50.5098   53.5730 O   0  0  0  0  0  0  0  0  0  0  0  0
   70.1016   48.7634   52.7516 N   0  0  0  0  0  0  0  0  0  0  0  0
   69.2830   47.7262   52.9934 C   0  0  0  0  0  0  0  0  0  0  0  0
   68.9123   46.9503   51.9138 C   0  0  0  0  0  0  0  0  0  0  0  0
   68.0746   45.8875   52.1526 C   0  0  0  0  0  0  0  0  0  0  0  0
   67.6291   45.6161   53.4203 C   0  0  0  0  0  0  0  0  0  0  0  0
   67.9970   46.3890   54.5028 C   0  0  0  0  0  0  0  0  0  0  0  0
   68.8339   47.4577   54.2940 C   0  0  0  0  0  0  0  0  0  0  0  0
   70.4585   46.7566   58.0672 C   0  0  0  0  0  0  0  0  0  0  0  0
   69.7904   44.4222   58.9155 N   0  0  0  0  0  0  0  0  0  0  0  0
   70.6689   45.3072   58.2509 C   0  0  0  0  0  0  0  0  0  0  0  0
   71.7433   44.8444   57.7512 O   0  0  0  0  0  0  0  0  0  0  0  0
   69.8388   42.5065   60.4425 C   0  0  0  0  0  0  0  0  0  0  0  0
   70.1199   43.0023   59.0333 C   0  0  1  0  0  0  0  0  0  0  0  0
   69.2907   42.2111   58.1141 C   0  0  0  0  0  0  0  0  0  0  0  0
   69.1662   40.8534   58.2966 C   0  0  0  0  0  0  0  0  0  0  0  0
   68.3940   40.0847   57.4475 C   0  0  0  0  0  0  0  0  0  0  0  0
   67.7298   40.6732   56.3931 C   0  0  0  0  0  0  0  0  0  0  0  0
   67.8467   42.0324   56.1989 C   0  0  0  0  0  0  0  0  0  0  0  0
   68.6219   42.7832   57.0569 C   0  0  0  0  0  0  0  0  0  0  0  0
 20 19  1  1
 20 16  1  0
 20 21  1  0
 16 17  1  0
 17 18  2  0
 17 15  1  0
 15  1  1  0
  1  2  1  0
  2  3  2  0
  2  4  1  0
  4  5  2  0
  4 14  1  0
  5  6  1  0
  6  7  2  0
  6  8  1  0
  8  9  1  0
  9 10  1  0
  9 14  2  0
 10 11  2  0
 11 12  1  0
 12 13  2  0
 13 14  1  0
 21 22  2  0
 21 26  1  0
 22 23  1  0
 23 24  2  0
 24 25  1  0
 25 26  2  0
M  END
>  <minimizedAffinity>  (812) 
-8.62625

$$$$
data/200k_reference_output/data/smiles/68675.pdb
     RDKit          3D

 27 29  0  0  0  0  0  0  0  0999 V2000
   68.4373   46.0150   54.1985 C   0  0  0  0  0  0  0  0  0  0  0  0
   67.8683   45.5720   53.0041 C   0  0  0  0  0  0  0  0  0  0  0  0
   67.9819   46.3267   51.8588 C   0  0  0  0  0  0  0  0  0  0  0  0
   68.6663   47.5485   51.8629 C   0  0  0  0  0  0  0  0  0  0  0  0
   69.2307   47.9926   53.0356 C   0  0  0  0  0  0  0  0  0  0  0  0
   69.1014   47.2172   54.1622 C   0  0  0  0  0  0  0  0  0  0  0  0
   67.7946   43.8687   55.4097 N   0  0  0  0  0  0  0  0  0  0  0  0
   68.3067   45.1933   55.4136 C   0  0  0  0  0  0  0  0  0  0  0  0
   68.6793   45.7173   56.5095 O   0  0  0  0  0  0  0  0  0  0  0  0
   67.0047   41.3033   55.3925 C   0  0  0  0  0  0  0  0  0  0  0  0
   67.3490   41.9722   56.6517 C   0  0  0  0  0  0  0  0  0  0  0  0
   67.7182   43.1854   56.6231 N   0  0  0  0  0  0  0  0  0  0  0  0
   67.2466   41.1908   57.8991 C   0  0  0  0  0  0  0  0  0  0  0  0
   66.5863   41.6445   58.9954 C   0  0  0  0  0  0  0  0  0  0  0  0
   66.5133   40.8818   60.1453 C   0  0  0  0  0  0  0  0  0  0  0  0
   67.1327   39.6410   60.1454 C   0  0  0  0  0  0  0  0  0  0  0  0
   67.0788   38.8731   61.2521 F   0  0  0  0  0  0  0  0  0  0  0  0
   67.8060   39.1764   59.0295 C   0  0  0  0  0  0  0  0  0  0  0  0
   67.8623   39.9563   57.9020 C   0  0  0  0  0  0  0  0  0  0  0  0
   70.0869   49.5143   53.0537 S   0  0  0  0  0  0  0  0  0  0  0  0
   69.7264   50.3743   51.8856 O   0  0  0  0  0  0  0  0  0  0  0  0
   71.5641   49.1645   52.9587 O   0  0  0  0  0  0  0  0  0  0  0  0
   69.8022   50.2701   54.5489 N   0  0  0  0  0  0  0  0  0  0  0  0
   70.8781   51.0180   55.0927 C   0  0  0  0  0  0  0  0  0  0  0  0
   70.2944   52.3572   55.5524 C   0  0  0  0  0  0  0  0  0  0  0  0
   69.0522   52.4456   54.6581 C   0  0  0  0  0  0  0  0  0  0  0  0
   68.5953   51.0057   54.6621 C   0  0  0  0  0  0  0  0  0  0  0  0
 10 11  1  0
 11 12  2  0
 11 13  1  0
 12  7  1  0
  7  8  1  0
  8  9  2  0
  8  1  1  0
  1  2  2  0
  1  6  1  0
  2  3  1  0
  3  4  2  0
  4  5  1  0
  5 20  1  0
  5  6  2  0
 20 21  2  0
 20 22  2  0
 20 23  1  0
 23 24  1  0
 23 27  1  0
 24 25  1  0
 25 26  1  0
 26 27  1  0
 13 14  2  0
 13 19  1  0
 14 15  1  0
 15 16  2  0
 16 17  1  0
 16 18  1  0
 18 19  2  0
M  END
>  <minimizedAffinity>  (813) 
-8.66286

$$$$
data/200k_reference_output/data/smiles/68731.pdb
     RDKit          3D

 25 27  0  0  0  0  0  0  0  0999 V2000
   70.1113   46.9974   57.5590 N   0  0  0  0  0  0  0  0  0  0  0  0
   72.8661   45.6475   58.6153 C   0  0  0  0  0  0  0  0  0  0  0  0
   71.5576   45.0506   58.1830 C   0  0  0  0  0  0  0  0  0  0  0  0
   71.3005   43.6689   58.1746 C   0  0  0  0  0  0  0  0  0  0  0  0
   70.0553   43.4531   57.7491 N   0  0  0  0  0  0  0  0  0  0  0  0
   69.5226   44.6139   57.4927 N   0  0  0  0  0  0  0  0  0  0  0  0
   70.4155   45.6416   57.7457 C   0  0  0  0  0  0  0  0  0  0  0  0
   69.4302   42.1610   57.6058 C   0  0  0  0  0  0  0  0  0  0  0  0
   68.3656   41.9569   56.7568 C   0  0  0  0  0  0  0  0  0  0  0  0
   67.7922   40.7073   56.6503 C   0  0  0  0  0  0  0  0  0  0  0  0
   68.2435   39.6221   57.3693 C   0  0  0  0  0  0  0  0  0  0  0  0
   69.3102   39.8246   58.2195 C   0  0  0  0  0  0  0  0  0  0  0  0
   69.8847   41.0773   58.3263 C   0  0  0  0  0  0  0  0  0  0  0  0
   68.9118   47.8049   56.7210 S   0  0  0  0  0  0  0  0  0  0  0  0
   67.5564   47.5592   57.3586 O   0  0  0  0  0  0  0  0  0  0  0  0
   69.1349   49.3158   56.8754 O   0  0  0  0  0  0  0  0  0  0  0  0
   68.7811   47.4770   55.0143 C   0  0  0  0  0  0  0  0  0  0  0  0
   68.0854   46.3473   54.5586 C   0  0  0  0  0  0  0  0  0  0  0  0
   68.0084   46.0434   53.2275 C   0  0  0  0  0  0  0  0  0  0  0  0
   68.6220   46.8528   52.2928 C   0  0  0  0  0  0  0  0  0  0  0  0
   69.3149   47.9713   52.7053 C   0  0  0  0  0  0  0  0  0  0  0  0
   69.3755   48.2532   54.0588 C   0  0  0  0  0  0  0  0  0  0  0  0
   69.9848   48.8672   51.7797 C   0  0  0  0  0  0  0  0  0  0  0  0
   70.6956   48.4262   50.8366 O   0  0  0  0  0  0  0  0  0  0  0  0
   69.8644   50.2383   51.9041 O   0  0  0  0  0  0  0  0  0  0  0  0
  2  3  1  0
  3  4  2  0
  3  7  1  0
  4  5  1  0
  5  8  1  0
  5  6  1  0
  8  9  2  0
  8 13  1  0
  9 10  1  0
 10 11  2  0
 11 12  1  0
 12 13  2  0
  6  7  2  0
  7  1  1  0
  1 14  1  0
 14 15  2  0
 14 16  2  0
 14 17  1  0
 17 18  2  0
 17 22  1  0
 18 19  1  0
 19 20  2  0
 20 21  1  0
 21 23  1  0
 21 22  2  0
 23 24  2  0
 23 25  1  0
M  END
>  <minimizedAffinity>  (814) 
-9.16622

$$$$
data/200k_reference_output/data/smiles/68824.pdb
     RDKit          3D

 28 32  0  0  0  0  0  0  0  0999 V2000
   67.2698   40.9634   55.9763 O   0  0  0  0  0  0  0  0  0  0  0  0
   68.1111   41.6427   56.6275 C   0  0  0  0  0  0  0  0  0  0  0  0
   68.4121   43.0431   56.3798 C   0  0  0  0  0  0  0  0  0  0  0  0
   67.9904   43.9884   55.5178 N   0  0  0  0  0  0  0  0  0  0  0  0
   68.4608   45.2492   55.5154 C   0  0  0  0  0  0  0  0  0  0  0  0
   68.2207   46.3892   54.7759 C   0  0  0  0  0  0  0  0  0  0  0  0
   69.0122   47.4280   55.2216 C   0  0  0  0  0  0  0  0  0  0  0  0
   69.7206   46.8944   56.2305 N   0  0  0  0  0  0  0  0  0  0  0  0
   69.3994   45.6025   56.4108 N   0  0  0  0  0  0  0  0  0  0  0  0
   69.8522   44.6961   57.2905 C   0  0  0  0  0  0  0  0  0  0  0  0
   70.7321   45.0141   58.1348 O   0  0  0  0  0  0  0  0  0  0  0  0
   69.3678   43.3748   57.3027 C   0  0  0  0  0  0  0  0  0  0  0  0
   69.7072   42.2158   58.1613 C   0  0  0  0  0  0  0  0  0  0  0  0
   68.8862   41.1376   57.6980 N   0  0  0  0  0  0  0  0  0  0  0  0
   69.0690   48.8019   54.7135 C   0  0  0  0  0  0  0  0  0  0  0  0
   69.4363   49.2447   53.4662 C   0  0  0  0  0  0  0  0  0  0  0  0
   69.3365   50.6253   53.4421 C   0  0  0  0  0  0  0  0  0  0  0  0
   68.8975   50.9527   54.7262 C   0  0  0  0  0  0  0  0  0  0  0  0
   68.7623   49.8632   55.4101 O   0  0  0  0  0  0  0  0  0  0  0  0
   68.8641   39.7727   58.2407 C   0  0  0  0  0  0  0  0  0  0  0  0
   70.2698   39.2592   58.4485 C   0  0  0  0  0  0  0  0  0  0  0  0
   70.2671   38.0320   59.3482 C   0  0  0  0  0  0  0  0  0  0  0  0
   71.1305   36.9562   58.7973 C   0  0  0  0  0  0  0  0  0  0  0  0
   71.1566   35.6756   59.3070 C   0  0  0  0  0  0  0  0  0  0  0  0
   71.9622   34.6836   58.7869 C   0  0  0  0  0  0  0  0  0  0  0  0
   72.7871   34.9781   57.7043 C   0  0  0  0  0  0  0  0  0  0  0  0
   72.7706   36.2387   57.1915 C   0  0  0  0  0  0  0  0  0  0  0  0
   71.9626   37.2175   57.7191 C   0  0  0  0  0  0  0  0  0  0  0  0
  1  2  2  0
  2  3  1  0
  2 14  1  0
  3  4  1  0
  3 12  2  0
  4  5  1  0
  5  6  2  0
  5  9  1  0
  6  7  1  0
  7 15  1  0
  7  8  2  0
 15 16  2  0
 15 19  1  0
 16 17  1  0
 17 18  2  0
 18 19  1  0
  8  9  1  0
  9 10  1  0
 10 11  2  0
 10 12  1  0
 12 13  1  0
 13 14  1  0
 14 20  1  0
 20 21  1  0
 21 22  1  0
 22 23  1  0
 23 24  2  0
 23 28  1  0
 24 25  1  0
 25 26  2  0
 26 27  1  0
 27 28  2  0
M  END
>  <minimizedAffinity>  (815) 
-8.84456

$$$$
data/200k_reference_output/data/smiles/68829.pdb
     RDKit          3D

 26 28  0  0  0  0  0  0  0  0999 V2000
   67.5608   42.2835   56.5827 C   0  0  0  0  0  0  0  0  0  0  0  0
   69.0334   40.6193   57.9103 C   0  0  0  0  0  0  0  0  0  0  0  0
   68.3895   41.9499   57.7723 C   0  0  0  0  0  0  0  0  0  0  0  0
   68.5921   42.7868   58.7348 N   0  0  0  0  0  0  0  0  0  0  0  0
   69.3879   42.4325   59.8505 N   0  0  0  0  0  0  0  0  0  0  0  0
   69.0468   42.8885   61.1527 C   0  0  0  0  0  0  0  0  0  0  0  0
   68.0271   43.6047   61.2519 O   0  0  0  0  0  0  0  0  0  0  0  0
   69.8319   42.5524   62.3358 C   0  0  0  0  0  0  0  0  0  0  0  0
   69.2520   41.8239   63.3517 C   0  0  0  0  0  0  0  0  0  0  0  0
   69.9634   41.4950   64.4700 N   0  0  0  0  0  0  0  0  0  0  0  0
   71.2463   41.8724   64.6100 C   0  0  0  0  0  0  0  0  0  0  0  0
   71.8096   42.6009   63.5833 C   0  0  0  0  0  0  0  0  0  0  0  0
   71.1119   42.9361   62.4611 N   0  0  0  0  0  0  0  0  0  0  0  0
   68.0731   43.4860   55.8836 C   0  0  0  0  0  0  0  0  0  0  0  0
   69.1979   43.9427   56.2396 O   0  0  0  0  0  0  0  0  0  0  0  0
   67.3925   44.1501   54.8532 N   0  0  0  0  0  0  0  0  0  0  0  0
   67.9034   45.3030   54.1958 C   0  0  0  0  0  0  0  0  0  0  0  0
   67.8716   45.3984   52.8177 C   0  0  0  0  0  0  0  0  0  0  0  0
   68.3572   46.5010   52.1396 C   0  0  0  0  0  0  0  0  0  0  0  0
   68.8930   47.5432   52.8894 C   0  0  0  0  0  0  0  0  0  0  0  0
   69.3802   48.6490   52.2049 C   0  0  0  0  0  0  0  0  0  0  0  0
   69.9121   49.6858   52.9448 C   0  0  0  0  0  0  0  0  0  0  0  0
   69.9609   49.6284   54.3353 C   0  0  0  0  0  0  0  0  0  0  0  0
   69.4708   48.5180   54.9900 C   0  0  0  0  0  0  0  0  0  0  0  0
   68.9338   47.4685   54.2677 C   0  0  0  0  0  0  0  0  0  0  0  0
   68.4382   46.3457   54.9358 C   0  0  0  0  0  0  0  0  0  0  0  0
  2  3  1  0
  3  1  1  0
  3  4  2  0
  1 14  1  0
 14 15  2  0
 14 16  1  0
 16 17  1  0
 17 18  2  0
 17 26  1  0
 18 19  1  0
 19 20  2  0
 20 21  1  0
 20 25  1  0
 21 22  2  0
 22 23  1  0
 23 24  2  0
 24 25  1  0
 25 26  2  0
  4  5  1  0
  5  6  1  0
  6  7  2  0
  6  8  1  0
  8  9  2  0
  8 13  1  0
  9 10  1  0
 10 11  2  0
 11 12  1  0
 12 13  2  0
M  END
>  <minimizedAffinity>  (816) 
-8.51407

$$$$
data/200k_reference_output/data/smiles/68905.pdb
     RDKit          3D

 28 32  0  0  0  0  0  0  0  0999 V2000
   75.7756   35.5271   53.5489 N   0  0  0  0  0  0  0  0  0  0  0  0
   75.8754   35.2383   54.8832 C   0  0  0  0  0  0  0  0  0  0  0  0
   74.7183   34.8178   55.3843 N   0  0  0  0  0  0  0  0  0  0  0  0
   73.8557   34.8323   54.3662 C   0  0  0  0  0  0  0  0  0  0  0  0
   72.5103   34.4883   54.3312 C   0  0  0  0  0  0  0  0  0  0  0  0
   71.8064   34.5857   53.1352 C   0  0  0  0  0  0  0  0  0  0  0  0
   72.4507   35.0231   51.9931 C   0  0  0  0  0  0  0  0  0  0  0  0
   73.7873   35.3678   52.0138 C   0  0  0  0  0  0  0  0  0  0  0  0
   74.4750   35.2643   53.2175 C   0  0  0  0  0  0  0  0  0  0  0  0
   76.7807   36.0508   52.7150 C   0  0  0  0  0  0  0  0  0  0  0  0
   78.4862   34.5275   52.2682 O   0  0  0  0  0  0  0  0  0  0  0  0
   77.4565   35.2090   51.7664 C   0  0  0  0  0  0  0  0  0  0  0  0
   77.2280   34.9620   50.3735 C   0  0  0  0  0  0  0  0  0  0  0  0
   76.3547   34.0757   49.8296 C   0  0  0  0  0  0  0  0  0  0  0  0
   76.2217   33.9362   48.4537 C   0  0  0  0  0  0  0  0  0  0  0  0
   76.9552   34.6786   47.5663 C   0  0  0  0  0  0  0  0  0  0  0  0
   77.8396   35.5778   48.0876 C   0  0  0  0  0  0  0  0  0  0  0  0
   77.9727   35.7168   49.4428 C   0  0  0  0  0  0  0  0  0  0  0  0
   74.4752   34.4324   56.7460 C   0  0  0  0  0  0  0  0  0  0  0  0
   73.4299   35.2894   57.3882 C   0  0  0  0  0  0  0  0  0  0  0  0
   72.5875   34.8820   58.4122 C   0  0  0  0  0  0  0  0  0  0  0  0
   71.7542   35.9278   58.7578 C   0  0  0  0  0  0  0  0  0  0  0  0
   70.7414   36.1129   59.6774 C   0  0  0  0  0  0  0  0  0  0  0  0
   70.0713   37.3171   59.7878 C   0  0  0  0  0  0  0  0  0  0  0  0
   70.4458   38.3422   58.9440 C   0  0  0  0  0  0  0  0  0  0  0  0
   71.4564   38.1642   58.0236 C   0  0  0  0  0  0  0  0  0  0  0  0
   72.1373   36.9565   57.9029 C   0  0  0  0  0  0  0  0  0  0  0  0
   73.1106   36.5328   57.1324 O   0  0  0  0  0  0  0  0  0  0  0  0
 11 12  2  0
 12 10  1  0
 12 13  1  0
 10  1  1  0
  1  2  2  0
  1  9  1  0
  2  3  1  0
  3 19  1  0
  3  4  1  0
 19 20  1  0
 20 21  2  0
 20 28  1  0
 21 22  1  0
 22 23  2  0
 22 27  1  0
 23 24  1  0
 24 25  2  0
 25 26  1  0
 26 27  2  0
 27 28  1  0
  4  5  1  0
  4  9  2  0
  5  6  2  0
  6  7  1  0
  7  8  2  0
  8  9  1  0
 13 14  2  0
 13 18  1  0
 14 15  1  0
 15 16  2  0
 16 17  1  0
 17 18  2  0
M  CHG  1   1   1
M  END
>  <minimizedAffinity>  (817) 
-8.91582

$$$$
data/200k_reference_output/data/smiles/68948.pdb
     RDKit          3D

 29 32  0  0  0  0  0  0  0  0999 V2000
   70.2452   48.9191   57.6651 C   0  0  0  0  0  0  0  0  0  0  0  0
   70.1139   47.4498   57.5265 C   0  0  0  0  0  0  0  0  0  0  0  0
   69.2372   46.8408   56.6767 C   0  0  0  0  0  0  0  0  0  0  0  0
   69.1800   45.4738   56.6289 N   0  0  0  0  0  0  0  0  0  0  0  0
   69.9396   44.6694   57.3709 C   0  0  0  0  0  0  0  0  0  0  0  0
   70.8206   45.2741   58.2242 N   0  0  0  0  0  0  0  0  0  0  0  0
   70.9122   46.6111   58.3067 C   0  0  0  0  0  0  0  0  0  0  0  0
   71.7206   47.1848   59.0896 O   0  0  0  0  0  0  0  0  0  0  0  0
   69.8905   43.2619   57.3432 N   0  0  0  0  0  0  0  0  0  0  0  0
   71.0481   42.4761   57.7152 C   0  0  0  0  0  0  0  0  0  0  0  0
   70.7174   41.6043   58.9218 C   0  0  0  0  0  0  0  0  0  0  0  0
   69.3003   41.7531   59.1729 N   0  0  0  0  0  0  0  0  0  0  0  0
   68.3922   41.5043   58.0832 C   0  0  0  0  0  0  0  0  0  0  0  0
   68.6665   42.5220   56.9584 C   0  0  0  0  0  0  0  0  0  0  0  0
   68.8621   42.1525   60.4516 C   0  0  0  0  0  0  0  0  0  0  0  0
   69.5472   41.8842   61.6117 C   0  0  0  0  0  0  0  0  0  0  0  0
   69.0832   42.2793   62.8633 C   0  0  0  0  0  0  0  0  0  0  0  0
   67.8950   42.9623   62.9347 C   0  0  0  0  0  0  0  0  0  0  0  0
   67.2069   43.2335   61.7802 C   0  0  0  0  0  0  0  0  0  0  0  0
   67.6961   42.8335   60.6140 N   0  0  0  0  0  0  0  0  0  0  0  0
   68.3391   47.6014   55.7793 C   0  0  0  0  0  0  0  0  0  0  0  0
   68.7189   47.4722   54.3418 C   0  0  0  0  0  0  0  0  0  0  0  0
   69.5209   48.4607   53.7453 C   0  0  0  0  0  0  0  0  0  0  0  0
   69.8992   49.5166   54.5167 F   0  0  0  0  0  0  0  0  0  0  0  0
   69.9216   48.3896   52.4363 C   0  0  0  0  0  0  0  0  0  0  0  0
   69.5502   47.3354   51.6425 C   0  0  0  0  0  0  0  0  0  0  0  0
   68.7653   46.3502   52.1958 C   0  0  0  0  0  0  0  0  0  0  0  0
   68.3567   46.4232   53.5346 C   0  0  0  0  0  0  0  0  0  0  0  0
   67.5957   45.4095   54.0525 F   0  0  0  0  0  0  0  0  0  0  0  0
  1  2  1  0
  2  3  2  0
  2  7  1  0
  3 21  1  0
  3  4  1  0
 21 22  1  0
 22 23  2  0
 22 28  1  0
 23 24  1  0
 23 25  1  0
 25 26  2  0
 26 27  1  0
 27 28  2  0
 28 29  1  0
  4  5  2  0
  5  9  1  0
  5  6  1  0
  9 10  1  0
  9 14  1  0
 10 11  1  0
 11 12  1  0
 12 15  1  0
 12 13  1  0
 15 16  2  0
 15 20  1  0
 16 17  1  0
 17 18  2  0
 18 19  1  0
 19 20  2  0
 13 14  1  0
  6  7  1  0
  7  8  2  0
M  END
>  <minimizedAffinity>  (818) 
-8.72311

$$$$
data/200k_reference_output/data/smiles/69049.pdb
     RDKit          3D

 26 30  0  0  0  0  0  0  0  0999 V2000
   75.1177   34.4462   54.7005 C   0  0  0  0  0  0  0  0  0  0  0  0
   75.6959   34.6695   53.3939 N   0  0  0  0  0  0  0  0  0  0  0  0
   76.6933   35.5397   53.1840 C   0  0  0  0  0  0  0  0  0  0  0  0
   77.2142   35.7160   51.9036 C   0  0  0  0  0  0  0  0  0  0  0  0
   76.7073   34.9974   50.8403 C   0  0  0  0  0  0  0  0  0  0  0  0
   75.6917   34.1124   51.0585 C   0  0  0  0  0  0  0  0  0  0  0  0
   75.2105   33.9754   52.3539 C   0  0  0  0  0  0  0  0  0  0  0  0
   75.3904   33.5549   49.8757 N   0  0  0  0  0  0  0  0  0  0  0  0
   76.1660   34.0378   48.8944 C   0  0  0  0  0  0  0  0  0  0  0  0
   76.2699   33.8098   47.5280 C   0  0  0  0  0  0  0  0  0  0  0  0
   77.1848   34.4636   46.7313 C   0  0  0  0  0  0  0  0  0  0  0  0
   78.0199   35.3779   47.3388 C   0  0  0  0  0  0  0  0  0  0  0  0
   77.9309   35.6179   48.7002 C   0  0  0  0  0  0  0  0  0  0  0  0
   77.0080   34.9550   49.4946 C   0  0  0  0  0  0  0  0  0  0  0  0
   73.4359   35.9614   54.0287 O   0  0  0  0  0  0  0  0  0  0  0  0
   73.8899   35.2261   54.9205 C   0  0  0  0  0  0  0  0  0  0  0  0
   73.2036   35.1372   56.1893 C   0  0  0  0  0  0  0  0  0  0  0  0
   73.1318   33.9312   56.8709 C   0  0  0  0  0  0  0  0  0  0  0  0
   72.4768   33.8501   58.0826 C   0  0  0  0  0  0  0  0  0  0  0  0
   71.8705   34.9537   58.6622 C   0  0  0  0  0  0  0  0  0  0  0  0
   71.2208   34.8499   59.8732 C   0  0  0  0  0  0  0  0  0  0  0  0
   70.6072   35.9613   60.4619 C   0  0  0  0  0  0  0  0  0  0  0  0
   70.6650   37.1730   59.8040 C   0  0  0  0  0  0  0  0  0  0  0  0
   71.3219   37.2553   58.5900 C   0  0  0  0  0  0  0  0  0  0  0  0
   71.9290   36.1650   58.0011 C   0  0  0  0  0  0  0  0  0  0  0  0
   72.5894   36.2236   56.7924 C   0  0  0  0  0  0  0  0  0  0  0  0
 15 16  2  0
 16  1  1  0
 16 17  1  0
  1  2  1  0
  2  3  2  0
  2  7  1  0
  3  4  1  0
  4  5  2  0
  5  6  1  0
  5 14  1  0
  6  7  2  0
  6  8  1  0
  8  9  1  0
  9 10  1  0
  9 14  2  0
 10 11  2  0
 11 12  1  0
 12 13  2  0
 13 14  1  0
 17 18  2  0
 17 26  1  0
 18 19  1  0
 19 20  2  0
 20 21  1  0
 20 25  1  0
 21 22  2  0
 22 23  1  0
 23 24  2  0
 24 25  1  0
 25 26  2  0
M  CHG  1   2   1
M  END
>  <minimizedAffinity>  (819) 
-9.03066

$$$$
data/200k_reference_output/data/smiles/69050.pdb
     RDKit          3D

 29 32  0  0  0  0  0  0  0  0999 V2000
   71.4870   44.3225   58.8776 C   0  0  0  0  0  0  0  0  0  0  0  0
   69.3178   43.8549   59.7114 O   0  0  0  0  0  0  0  0  0  0  0  0
   70.3526   43.4760   59.1473 C   0  0  0  0  0  0  0  0  0  0  0  0
   70.4550   42.0926   58.7212 N   0  0  0  0  0  0  0  0  0  0  0  0
   69.3467   41.2266   58.9770 C   0  0  0  0  0  0  0  0  0  0  0  0
   69.5718   39.8297   58.4810 C   0  0  0  0  0  0  0  0  0  0  0  0
   70.9374   39.3697   58.6398 N   0  0  0  0  0  0  0  0  0  0  0  0
   72.0338   40.2985   58.7552 C   0  0  0  0  0  0  0  0  0  0  0  0
   71.6292   41.5854   58.0564 C   0  0  0  0  0  0  0  0  0  0  0  0
   71.2158   37.9665   58.6779 C   0  0  0  0  0  0  0  0  0  0  0  0
   72.0588   37.3759   57.7467 C   0  0  0  0  0  0  0  0  0  0  0  0
   72.3332   36.0183   57.7658 C   0  0  0  0  0  0  0  0  0  0  0  0
   71.7783   35.2011   58.7121 C   0  0  0  0  0  0  0  0  0  0  0  0
   70.9422   35.7644   59.6411 C   0  0  0  0  0  0  0  0  0  0  0  0
   70.6655   37.1298   59.6228 C   0  0  0  0  0  0  0  0  0  0  0  0
   71.5123   45.6946   59.4424 C   0  0  0  0  0  0  0  0  0  0  0  0
   70.9456   46.7424   58.6428 N   0  0  0  0  0  0  0  0  0  0  0  0
   70.3318   46.3796   57.5004 N   0  0  0  0  0  0  0  0  0  0  0  0
   69.7033   47.2314   56.6808 C   0  0  0  0  0  0  0  0  0  0  0  0
   69.6983   48.5551   57.0486 C   0  0  0  0  0  0  0  0  0  0  0  0
   70.3152   48.9720   58.2081 C   0  0  0  0  0  0  0  0  0  0  0  0
   70.9443   48.0156   58.9987 C   0  0  0  0  0  0  0  0  0  0  0  0
   71.5300   48.3893   60.0740 O   0  0  0  0  0  0  0  0  0  0  0  0
   69.0535   46.7808   55.4523 C   0  0  0  0  0  0  0  0  0  0  0  0
   69.0795   47.6229   54.3366 C   0  0  0  0  0  0  0  0  0  0  0  0
   68.4901   47.2729   53.1403 C   0  0  0  0  0  0  0  0  0  0  0  0
   67.8438   46.0634   52.9924 C   0  0  0  0  0  0  0  0  0  0  0  0
   67.8111   45.2239   54.0830 C   0  0  0  0  0  0  0  0  0  0  0  0
   68.4111   45.5818   55.2990 C   0  0  0  0  0  0  0  0  0  0  0  0
  2  3  2  0
  3  1  1  0
  3  4  1  0
  1 16  1  0
 16 17  1  0
 17 18  1  0
 17 22  1  0
 18 19  2  0
 19 24  1  0
 19 20  1  0
 24 25  2  0
 24 29  1  0
 25 26  1  0
 26 27  2  0
 27 28  1  0
 28 29  2  0
 20 21  2  0
 21 22  1  0
 22 23  2  0
  4  5  1  0
  4  9  1  0
  5  6  1  0
  6  7  1  0
  7 10  1  0
  7  8  1  0
 10 11  2  0
 10 15  1  0
 11 12  1  0
 12 13  2  0
 13 14  1  0
 14 15  2  0
  8  9  1  0
M  END
>  <minimizedAffinity>  (820) 
-8.53502

$$$$
data/200k_reference_output/data/smiles/69199.pdb
     RDKit          3D

 29 32  0  0  0  0  0  0  0  0999 V2000
   71.1323   41.8479   58.2169 C   0  0  0  0  0  0  0  0  0  0  0  0
   71.0961   43.1620   58.4574 C   0  0  0  0  0  0  0  0  0  0  0  0
   70.3285   44.1219   57.6939 C   0  0  0  0  0  0  0  0  0  0  0  0
   70.4589   45.4780   57.8390 C   0  0  0  0  0  0  0  0  0  0  0  0
   69.6812   46.3402   57.0636 C   0  0  0  0  0  0  0  0  0  0  0  0
   68.7898   45.8728   56.1608 N   0  0  0  0  0  0  0  0  0  0  0  0
   68.6468   44.5429   56.0038 C   0  0  0  0  0  0  0  0  0  0  0  0
   69.4115   43.6777   56.7662 C   0  0  0  0  0  0  0  0  0  0  0  0
   68.0293   46.8386   55.4047 C   0  0  0  0  0  0  0  0  0  0  0  0
   68.7239   47.2890   54.1783 C   0  0  0  0  0  0  0  0  0  0  0  0
   69.4399   48.4611   54.1971 C   0  0  0  0  0  0  0  0  0  0  0  0
   70.1014   48.9197   53.0833 C   0  0  0  0  0  0  0  0  0  0  0  0
   70.0358   48.1735   51.9286 C   0  0  0  0  0  0  0  0  0  0  0  0
   70.6599   48.5551   50.7866 F   0  0  0  0  0  0  0  0  0  0  0  0
   69.3227   46.9961   51.8943 C   0  0  0  0  0  0  0  0  0  0  0  0
   68.6719   46.5649   53.0225 C   0  0  0  0  0  0  0  0  0  0  0  0
   72.8906   41.4428   59.6772 O   0  0  0  0  0  0  0  0  0  0  0  0
   71.9090   40.9394   59.0033 C   0  0  0  0  0  0  0  0  0  0  0  0
   71.7091   39.5354   59.1159 C   0  0  0  0  0  0  0  0  0  0  0  0
   72.3475   38.6303   58.2417 C   0  0  0  0  0  0  0  0  0  0  0  0
   72.1692   37.2700   58.3331 C   0  0  0  0  0  0  0  0  0  0  0  0
   72.7902   36.3811   57.4807 C   0  0  0  0  0  0  0  0  0  0  0  0
   72.5906   35.0232   57.5986 C   0  0  0  0  0  0  0  0  0  0  0  0
   71.7647   34.5648   58.5769 C   0  0  0  0  0  0  0  0  0  0  0  0
   71.1504   35.4397   59.4187 C   0  0  0  0  0  0  0  0  0  0  0  0
   71.3306   36.8177   59.3274 C   0  0  0  0  0  0  0  0  0  0  0  0
   70.7335   37.6278   60.1422 O   0  0  0  0  0  0  0  0  0  0  0  0
   70.9097   38.9515   60.0487 C   0  0  0  0  0  0  0  0  0  0  0  0
   70.2631   39.6369   60.9136 O   0  0  0  0  0  0  0  0  0  0  0  0
 17 18  2  0
 18  1  1  0
 18 19  1  0
  1  2  2  0
  2  3  1  0
  3  4  2  0
  3  8  1  0
  4  5  1  0
  5  6  2  0
  6  9  1  0
  6  7  1  0
  9 10  1  0
 10 11  2  0
 10 16  1  0
 11 12  1  0
 12 13  2  0
 13 14  1  0
 13 15  1  0
 15 16  2  0
  7  8  2  0
 19 20  2  0
 19 28  1  0
 20 21  1  0
 21 22  2  0
 21 26  1  0
 22 23  1  0
 23 24  2  0
 24 25  1  0
 25 26  2  0
 26 27  1  0
 27 28  1  0
 28 29  2  0
M  CHG  1   6   1
M  END
>  <minimizedAffinity>  (821) 
-8.50349

$$$$
data/200k_reference_output/data/smiles/69235.pdb
     RDKit          3D

 28 31  0  0  0  0  0  0  0  0999 V2000
   67.8558   45.3661   54.2604 C   0  0  0  0  0  0  0  0  0  0  0  0
   68.0020   45.4204   52.8684 C   0  0  0  0  0  0  0  0  0  0  0  0
   68.5976   46.4974   52.2563 C   0  0  0  0  0  0  0  0  0  0  0  0
   69.0830   47.5824   52.9765 C   0  0  0  0  0  0  0  0  0  0  0  0
   68.9445   47.5388   54.3425 C   0  0  0  0  0  0  0  0  0  0  0  0
   68.3423   46.4482   54.9553 C   0  0  0  0  0  0  0  0  0  0  0  0
   69.5290   48.7836   54.8496 C   0  0  0  0  0  0  0  0  0  0  0  0
   69.5558   49.0401   56.0806 O   0  0  0  0  0  0  0  0  0  0  0  0
   70.0254   49.5915   53.8014 N   0  0  0  0  0  0  0  0  0  0  0  0
   69.7425   48.8260   52.6035 C   0  0  0  0  0  0  0  0  0  0  0  0
   70.0236   49.1843   51.4239 O   0  0  0  0  0  0  0  0  0  0  0  0
   70.6684   50.8989   53.8326 C   0  0  1  0  0  0  0  0  0  0  0  0
   69.8035   52.0066   54.3393 C   0  0  0  0  0  0  0  0  0  0  0  0
   69.6493   52.1502   55.7963 C   0  0  0  0  0  0  0  0  0  0  0  0
   70.9067   51.8987   56.5406 C   0  0  0  0  0  0  0  0  0  0  0  0
   71.1191   52.4508   57.6739 O   0  0  0  0  0  0  0  0  0  0  0  0
   71.8901   51.0314   55.9847 N   0  0  0  0  0  0  0  0  0  0  0  0
   71.9133   50.8102   54.5911 C   0  0  0  0  0  0  0  0  0  0  0  0
   73.0382   50.5384   54.0458 O   0  0  0  0  0  0  0  0  0  0  0  0
   67.2187   44.2508   54.8555 N   0  0  0  0  0  0  0  0  0  0  0  0
   69.0479   41.5870   57.5235 C   0  0  0  0  0  0  0  0  0  0  0  0
   69.5971   42.8588   57.3898 C   0  0  0  0  0  0  0  0  0  0  0  0
   68.9811   43.7247   56.4967 C   0  0  0  0  0  0  0  0  0  0  0  0
   67.8710   43.3775   55.7569 C   0  0  0  0  0  0  0  0  0  0  0  0
   67.3520   42.0879   55.9229 C   0  0  0  0  0  0  0  0  0  0  0  0
   67.9387   41.2118   56.7960 C   0  0  0  0  0  0  0  0  0  0  0  0
   68.9063   39.3121   58.3365 C   0  0  0  0  0  0  0  0  0  0  0  0
   69.6659   40.6225   58.4625 C   0  0  0  0  0  0  0  0  0  0  0  0
 27 28  1  0
 28 21  1  0
 21 22  2  0
 21 26  1  0
 22 23  1  0
 23 24  2  0
 24 20  1  0
 24 25  1  0
 20  1  1  0
  1  2  2  0
  1  6  1  0
  2  3  1  0
  3  4  2  0
  4  5  1  0
  4 10  1  0
  5  6  2  0
  5  7  1  0
  7  8  2  0
  7  9  1  0
 12  9  1  1
  9 10  1  0
 12 13  1  0
 12 18  1  0
 13 14  1  0
 14 15  1  0
 15 16  2  0
 15 17  1  0
 17 18  1  0
 18 19  2  0
 10 11  2  0
 25 26  2  0
M  END
>  <minimizedAffinity>  (822) 
-8.60492

$$$$
data/200k_reference_output/data/smiles/69258.pdb
     RDKit          3D

 24 27  0  0  0  0  0  0  0  0999 V2000
   68.1540   45.8032   55.0435 C   0  0  0  0  0  0  0  0  0  0  0  0
   68.2298   46.4859   56.1981 N   0  0  0  0  0  0  0  0  0  0  0  0
   68.6465   47.7814   56.2078 C   0  0  0  0  0  0  0  0  0  0  0  0
   68.7149   48.4739   57.4123 C   0  0  0  0  0  0  0  0  0  0  0  0
   69.1384   49.7899   57.4018 C   0  0  0  0  0  0  0  0  0  0  0  0
   69.1998   50.4513   58.5777 F   0  0  0  0  0  0  0  0  0  0  0  0
   69.4999   50.4620   56.2575 C   0  0  0  0  0  0  0  0  0  0  0  0
   69.4307   49.7736   55.0647 C   0  0  0  0  0  0  0  0  0  0  0  0
   69.0052   48.4475   55.0663 C   0  0  0  0  0  0  0  0  0  0  0  0
   68.9287   47.7534   53.8954 N   0  0  0  0  0  0  0  0  0  0  0  0
   69.2225   48.1665   52.6505 C   0  0  0  0  0  0  0  0  0  0  0  0
   68.9852   47.0987   51.8146 C   0  0  0  0  0  0  0  0  0  0  0  0
   68.5429   46.0306   52.5738 C   0  0  0  0  0  0  0  0  0  0  0  0
   68.5165   46.4766   53.8902 C   0  0  0  0  0  0  0  0  0  0  0  0
   67.7412   44.4475   54.9669 N   0  0  0  0  0  0  0  0  0  0  0  0
   66.4008   42.0681   55.1357 O   0  0  0  0  0  0  0  0  0  0  0  0
   67.1961   42.3109   56.0797 C   0  0  0  0  0  0  0  0  0  0  0  0
   67.8975   43.5399   56.0166 N   0  0  0  0  0  0  0  0  0  0  0  0
   67.3489   41.3443   57.1567 C   0  0  0  0  0  0  0  0  0  0  0  0
   68.1143   40.2196   57.0357 C   0  0  0  0  0  0  0  0  0  0  0  0
   68.2538   39.3022   58.0742 C   0  0  0  0  0  0  0  0  0  0  0  0
   67.5969   39.5419   59.2587 C   0  0  0  0  0  0  0  0  0  0  0  0
   66.8295   40.6800   59.3661 C   0  0  0  0  0  0  0  0  0  0  0  0
   66.7175   41.5582   58.3222 N   0  0  0  0  0  0  0  0  0  0  0  0
 16 17  2  0
 17 18  1  0
 17 19  1  0
 18 15  1  0
 15  1  1  0
  1  2  2  0
  1 14  1  0
  2  3  1  0
  3  4  2  0
  3  9  1  0
  4  5  1  0
  5  6  1  0
  5  7  2  0
  7  8  1  0
  8  9  2  0
  9 10  1  0
 10 11  1  0
 10 14  1  0
 11 12  2  0
 12 13  1  0
 13 14  2  0
 19 20  2  0
 19 24  1  0
 20 21  1  0
 21 22  2  0
 22 23  1  0
 23 24  2  0
M  END
>  <minimizedAffinity>  (823) 
-8.97386

$$$$
data/200k_reference_output/data/smiles/69862.pdb
     RDKit          3D

 28 31  0  0  0  0  0  0  0  0999 V2000
   68.9910   46.4604   55.5422 C   0  0  0  0  0  0  0  0  0  0  0  0
   68.2351   45.5519   54.7968 C   0  0  0  0  0  0  0  0  0  0  0  0
   67.8941   45.8254   53.4880 C   0  0  0  0  0  0  0  0  0  0  0  0
   68.2877   46.9879   52.8940 C   0  0  0  0  0  0  0  0  0  0  0  0
   69.0483   47.9272   53.6086 C   0  0  0  0  0  0  0  0  0  0  0  0
   69.3644   47.6231   54.8943 C   0  0  0  0  0  0  0  0  0  0  0  0
   68.9159   46.9404   57.8197 O   0  0  0  0  0  0  0  0  0  0  0  0
   69.3366   46.1529   56.9232 C   0  0  0  0  0  0  0  0  0  0  0  0
   70.1046   45.0473   57.3513 N   0  0  0  0  0  0  0  0  0  0  0  0
   70.4615   44.7131   58.6931 C   0  0  0  0  0  0  0  0  0  0  0  0
   70.1010   43.3305   59.1406 C   0  0  2  0  0  0  0  0  0  0  0  0
   70.2085   42.3248   58.0197 C   0  0  0  0  0  0  0  0  0  0  0  0
   68.9026   42.0019   57.3738 C   0  0  0  0  0  0  0  0  0  0  0  0
   67.7790   41.7508   58.3246 C   0  0  0  0  0  0  0  0  0  0  0  0
   68.2498   41.9537   59.7479 C   0  0  0  0  0  0  0  0  0  0  0  0
   68.8950   43.2280   59.9114 N   0  0  0  0  0  0  0  0  0  0  0  0
   69.4356   49.1582   52.8763 C   0  0  0  0  0  0  0  0  0  0  0  0
   70.3820   50.0186   53.5768 C   0  0  0  0  0  0  0  0  0  0  0  0
   71.7011   49.7133   53.5216 N   0  0  0  0  0  0  0  0  0  0  0  0
   72.6451   50.4484   54.0908 N   0  0  0  0  0  0  0  0  0  0  0  0
   72.3172   51.5613   54.7655 C   0  0  0  0  0  0  0  0  0  0  0  0
   73.1774   52.3080   55.3315 O   0  0  0  0  0  0  0  0  0  0  0  0
   70.9896   51.9220   54.8560 C   0  0  0  0  0  0  0  0  0  0  0  0
   70.0118   51.1390   54.2546 C   0  0  0  0  0  0  0  0  0  0  0  0
   68.6067   51.5789   54.4302 C   0  0  0  0  0  0  0  0  0  0  0  0
   68.4193   51.8812   55.9287 C   0  0  0  0  0  0  0  0  0  0  0  0
   69.3599   52.9076   56.4451 C   0  0  0  0  0  0  0  0  0  0  0  0
   70.5501   53.1457   55.5791 C   0  0  0  0  0  0  0  0  0  0  0  0
  7  8  2  0
  8  9  1  0
  8  1  1  0
  9 10  1  0
 11 10  1  6
 11 12  1  0
 11 16  1  0
 12 13  1  0
 13 14  1  0
 14 15  1  0
 15 16  1  0
  1  2  2  0
  1  6  1  0
  2  3  1  0
  3  4  2  0
  4  5  1  0
  5 17  1  0
  5  6  2  0
 17 18  1  0
 18 19  2  0
 18 24  1  0
 19 20  1  0
 20 21  1  0
 21 22  2  0
 21 23  1  0
 23 24  2  0
 23 28  1  0
 24 25  1  0
 25 26  1  0
 26 27  1  0
 27 28  1  0
M  CHG  1  16   1
M  END
>  <minimizedAffinity>  (824) 
-9.14040

$$$$
data/200k_reference_output/data/smiles/69954.pdb
     RDKit          3D

 27 30  0  0  0  0  0  0  0  0999 V2000
   69.4029   47.3696   56.9689 C   0  0  0  0  0  0  0  0  0  0  0  0
   69.7662   48.6206   57.4687 C   0  0  0  0  0  0  0  0  0  0  0  0
   69.0901   49.7069   57.0060 F   0  0  0  0  0  0  0  0  0  0  0  0
   70.7736   48.7110   58.3941 C   0  0  0  0  0  0  0  0  0  0  0  0
   71.4576   47.6006   58.8612 C   0  0  0  0  0  0  0  0  0  0  0  0
   71.1241   46.3514   58.3861 C   0  0  0  0  0  0  0  0  0  0  0  0
   70.0910   46.2749   57.4399 C   0  0  0  0  0  0  0  0  0  0  0  0
   69.8195   45.0101   56.9787 F   0  0  0  0  0  0  0  0  0  0  0  0
   67.1620   47.4711   56.3798 O   0  0  0  0  0  0  0  0  0  0  0  0
   68.3542   47.2475   55.9643 C   0  0  0  0  0  0  0  0  0  0  0  0
   68.4980   46.9120   54.5853 C   0  0  0  0  0  0  0  0  0  0  0  0
   67.9656   45.7938   53.9521 C   0  0  0  0  0  0  0  0  0  0  0  0
   68.2991   45.8395   52.6559 N   0  0  0  0  0  0  0  0  0  0  0  0
   69.0326   46.9413   52.4009 C   0  0  0  0  0  0  0  0  0  0  0  0
   69.5952   47.4097   51.2742 N   0  0  0  0  0  0  0  0  0  0  0  0
   70.3060   48.5430   51.2549 C   0  0  0  0  0  0  0  0  0  0  0  0
   70.4317   49.1954   52.4162 N   0  0  0  0  0  0  0  0  0  0  0  0
   69.8987   48.7890   53.5753 C   0  0  0  0  0  0  0  0  0  0  0  0
   69.1603   47.6118   53.5966 C   0  0  0  0  0  0  0  0  0  0  0  0
   71.7409   45.1468   58.8114 N   0  0  0  0  0  0  0  0  0  0  0  0
   71.0466   43.9554   59.8211 S   0  0  0  0  0  0  0  0  0  0  0  0
   69.5335   44.1230   59.7081 O   0  0  0  0  0  0  0  0  0  0  0  0
   71.3651   44.2814   61.2529 O   0  0  0  0  0  0  0  0  0  0  0  0
   71.4764   42.3026   59.4541 C   0  0  0  0  0  0  0  0  0  0  0  0
   71.1239   42.0290   57.9591 C   0  0  0  0  0  0  0  0  0  0  0  0
   72.5647   42.3666   57.6459 C   0  0  0  0  0  0  0  0  0  0  0  0
   72.8785   41.9914   59.0795 C   0  0  0  0  0  0  0  0  0  0  0  0
  9 10  2  0
 10  1  1  0
 10 11  1  0
  1  2  2  0
  1  7  1  0
  2  3  1  0
  2  4  1  0
  4  5  2  0
  5  6  1  0
  6 20  1  0
  6  7  2  0
 20 21  1  0
 21 22  2  0
 21 23  2  0
 21 24  1  0
 24 25  1  0
 24 27  1  0
 25 26  1  0
 26 27  1  0
  7  8  1  0
 11 12  2  0
 11 19  1  0
 12 13  1  0
 13 14  1  0
 14 15  1  0
 14 19  2  0
 15 16  2  0
 16 17  1  0
 17 18  2  0
 18 19  1  0
M  END
>  <minimizedAffinity>  (825) 
-8.87639

$$$$
data/200k_reference_output/data/smiles/69980.pdb
     RDKit          3D

 27 32  0  0  0  0  0  0  0  0999 V2000
   73.8607   42.9490   58.1100 C   0  0  0  0  0  0  0  0  0  0  0  0
   74.1047   41.7744   58.7724 C   0  0  0  0  0  0  0  0  0  0  0  0
   73.1097   40.8042   58.9734 C   0  0  0  0  0  0  0  0  0  0  0  0
   71.8480   41.0118   58.5038 C   0  0  0  0  0  0  0  0  0  0  0  0
   71.6094   42.2117   57.8294 C   0  0  0  0  0  0  0  0  0  0  0  0
   72.5898   43.1590   57.6364 C   0  0  0  0  0  0  0  0  0  0  0  0
   70.2030   42.1534   57.4383 C   0  0  0  0  0  0  0  0  0  0  0  0
   69.3499   42.9598   56.7695 N   0  0  0  0  0  0  0  0  0  0  0  0
   68.0548   42.5810   56.5632 C   0  0  0  0  0  0  0  0  0  0  0  0
   67.5290   41.3854   57.0046 C   0  0  0  0  0  0  0  0  0  0  0  0
   68.4044   40.5485   57.6950 C   0  0  0  0  0  0  0  0  0  0  0  0
   68.0580   39.3166   58.2029 C   0  0  0  0  0  0  0  0  0  0  0  0
   69.0271   38.5730   58.8698 C   0  0  0  0  0  0  0  0  0  0  0  0
   70.3068   39.0117   59.0443 N   0  0  0  0  0  0  0  0  0  0  0  0
   70.6289   40.2119   58.5429 C   0  0  0  0  0  0  0  0  0  0  0  0
   69.6807   40.9690   57.8749 C   0  0  0  0  0  0  0  0  0  0  0  0
   71.2112   38.1876   59.7939 C   0  0  0  0  0  0  0  0  0  0  0  0
   71.6678   36.9823   59.0246 C   0  0  0  0  0  0  0  0  0  0  0  0
   71.5973   35.7264   59.6601 C   0  0  0  0  0  0  0  0  0  0  0  0
   71.9955   34.5737   59.0297 C   0  0  0  0  0  0  0  0  0  0  0  0
   72.4837   34.5853   57.7431 C   0  0  0  0  0  0  0  0  0  0  0  0
   72.8845   33.4189   57.1100 C   0  0  0  0  0  0  0  0  0  0  0  0
   73.3728   33.4377   55.8217 C   0  0  0  0  0  0  0  0  0  0  0  0
   73.4497   34.6568   55.1840 C   0  0  0  0  0  0  0  0  0  0  0  0
   73.0444   35.8340   55.8236 C   0  0  0  0  0  0  0  0  0  0  0  0
   72.5578   35.8020   57.1128 C   0  0  0  0  0  0  0  0  0  0  0  0
   72.1521   36.9825   57.7529 C   0  0  0  0  0  0  0  0  0  0  0  0
  1  2  2  0
  1  6  1  0
  2  3  1  0
  3  4  2  0
  4  5  1  0
  4 15  1  0
  5  6  2  0
  5  7  1  0
  7  8  2  0
  7 16  1  0
  8  9  1  0
  9 10  2  0
 10 11  1  0
 11 12  1  0
 11 16  2  0
 12 13  2  0
 13 14  1  0
 14 17  1  0
 14 15  2  0
 17 18  1  0
 18 19  2  0
 18 27  1  0
 19 20  1  0
 20 21  2  0
 21 22  1  0
 21 26  1  0
 22 23  2  0
 23 24  1  0
 24 25  2  0
 25 26  1  0
 26 27  2  0
 15 16  1  0
M  CHG  1  14   1
M  END
>  <minimizedAffinity>  (826) 
-8.77047

$$$$
data/200k_reference_output/data/smiles/70044.pdb
     RDKit          3D

 24 26  0  0  0  0  0  0  0  0999 V2000
   70.2684   49.2120   53.6702 C   0  0  0  0  0  0  0  0  0  0  0  0
   69.9352   48.5795   54.8418 C   0  0  0  0  0  0  0  0  0  0  0  0
   69.1675   47.4668   54.9348 N   0  0  0  0  0  0  0  0  0  0  0  0
   68.7183   46.9769   53.7525 C   0  0  0  0  0  0  0  0  0  0  0  0
   67.9462   45.8575   53.7218 C   0  0  0  0  0  0  0  0  0  0  0  0
   67.6319   45.2274   54.8724 F   0  0  0  0  0  0  0  0  0  0  0  0
   67.4729   45.3251   52.5279 C   0  0  0  0  0  0  0  0  0  0  0  0
   67.7722   45.9164   51.3294 C   0  0  0  0  0  0  0  0  0  0  0  0
   68.5561   47.0512   51.3541 C   0  0  0  0  0  0  0  0  0  0  0  0
   69.0151   47.5638   52.5469 C   0  0  0  0  0  0  0  0  0  0  0  0
   69.7970   48.6911   52.4998 C   0  0  0  0  0  0  0  0  0  0  0  0
   70.1049   49.2770   51.4231 O   0  0  0  0  0  0  0  0  0  0  0  0
   72.3167   50.2830   53.9624 O   0  0  0  0  0  0  0  0  0  0  0  0
   71.1104   50.4204   53.6666 C   0  0  0  0  0  0  0  0  0  0  0  0
   70.6145   51.6609   53.3545 O   0  0  0  0  0  0  0  0  0  0  0  0
   68.8452   46.8768   56.2191 C   0  0  0  0  0  0  0  0  0  0  0  0
   69.7877   47.2638   57.2928 C   0  0  0  0  0  0  0  0  0  0  0  0
   70.3604   46.3515   58.0248 C   0  0  0  0  0  0  0  0  0  0  0  0
   71.2963   46.6411   59.0978 C   0  0  0  0  0  0  0  0  0  0  0  0
   72.0307   45.6927   59.7459 C   0  0  0  0  0  0  0  0  0  0  0  0
   72.9006   46.0624   60.7585 C   0  0  0  0  0  0  0  0  0  0  0  0
   73.0452   47.3804   61.1334 C   0  0  0  0  0  0  0  0  0  0  0  0
   72.3199   48.3013   60.4905 N   0  0  0  0  0  0  0  0  0  0  0  0
   71.4824   47.9528   59.5161 C   0  0  0  0  0  0  0  0  0  0  0  0
 13 14  2  0
 14 15  1  0
 14  1  1  0
  1  2  2  0
  1 11  1  0
  2  3  1  0
  3 16  1  0
  3  4  1  0
 16 17  1  0
 17 18  2  0
 18 19  1  0
 19 20  2  0
 19 24  1  0
 20 21  1  0
 21 22  2  0
 22 23  1  0
 23 24  2  0
  4  5  1  0
  4 10  2  0
  5  6  1  0
  5  7  2  0
  7  8  1  0
  8  9  2  0
  9 10  1  0
 10 11  1  0
 11 12  2  0
M  END
>  <minimizedAffinity>  (827) 
-8.58491

$$$$
data/200k_reference_output/data/smiles/70054.pdb
     RDKit          3D

 30 33  0  0  0  0  0  0  0  0999 V2000
   72.4752   52.2639   57.3658 O   0  0  0  0  0  0  0  0  0  0  0  0
   72.8393   51.1800   56.8497 C   0  0  0  0  0  0  0  0  0  0  0  0
   73.6474   50.2970   57.5986 N   0  0  0  0  0  0  0  0  0  0  0  0
   74.0328   50.6706   58.9374 C   0  0  0  0  0  0  0  0  0  0  0  0
   74.0870   49.4833   59.8711 C   0  0  0  0  0  0  0  0  0  0  0  0
   73.5057   48.3153   59.1924 N   0  0  0  0  0  0  0  0  0  0  0  0
   72.3745   47.6470   59.7033 C   0  0  0  0  0  0  0  0  0  0  0  0
   71.8657   48.0747   60.7651 O   0  0  0  0  0  0  0  0  0  0  0  0
   74.1970   47.9252   57.9674 C   0  0  0  0  0  0  0  0  0  0  0  0
   74.0470   49.0532   56.9733 C   0  0  0  0  0  0  0  0  0  0  0  0
   71.7738   46.4999   59.0672 C   0  0  0  0  0  0  0  0  0  0  0  0
   72.1877   45.2098   59.3126 C   0  0  0  0  0  0  0  0  0  0  0  0
   71.5644   44.1580   58.6660 C   0  0  0  0  0  0  0  0  0  0  0  0
   70.5257   44.3788   57.7714 C   0  0  0  0  0  0  0  0  0  0  0  0
   69.9259   43.3395   57.1480 F   0  0  0  0  0  0  0  0  0  0  0  0
   70.0994   45.6640   57.5138 C   0  0  0  0  0  0  0  0  0  0  0  0
   70.7441   46.6933   58.1774 C   0  0  0  0  0  0  0  0  0  0  0  0
   72.3893   50.8927   55.4636 C   0  0  0  0  0  0  0  0  0  0  0  0
   70.8929   50.9257   55.3361 C   0  0  0  0  0  0  0  0  0  0  0  0
   70.3629   49.8448   54.4831 C   0  0  0  0  0  0  0  0  0  0  0  0
   69.5812   48.8658   54.9544 N   0  0  0  0  0  0  0  0  0  0  0  0
   69.1201   47.9001   54.1453 C   0  0  0  0  0  0  0  0  0  0  0  0
   68.3079   46.8756   54.6185 C   0  0  0  0  0  0  0  0  0  0  0  0
   67.8197   45.8714   53.8150 C   0  0  0  0  0  0  0  0  0  0  0  0
   68.1384   45.8586   52.4742 C   0  0  0  0  0  0  0  0  0  0  0  0
   68.9504   46.8711   51.9692 C   0  0  0  0  0  0  0  0  0  0  0  0
   69.4298   47.8704   52.7953 C   0  0  0  0  0  0  0  0  0  0  0  0
   70.2357   48.8894   52.3352 C   0  0  0  0  0  0  0  0  0  0  0  0
   70.5225   48.8720   51.1117 O   0  0  0  0  0  0  0  0  0  0  0  0
   70.6764   49.8382   53.1777 N   0  0  0  0  0  0  0  0  0  0  0  0
  1  2  2  0
  2 18  1  0
  2  3  1  0
 18 19  1  0
 19 20  1  0
 20 21  2  0
 20 30  1  0
 21 22  1  0
 22 23  2  0
 22 27  1  0
 23 24  1  0
 24 25  2  0
 25 26  1  0
 26 27  2  0
 27 28  1  0
 28 29  2  0
 28 30  1  0
  3  4  1  0
  3 10  1  0
  4  5  1  0
  5  6  1  0
  6  7  1  0
  6  9  1  0
  7  8  2  0
  7 11  1  0
 11 12  2  0
 11 17  1  0
 12 13  1  0
 13 14  2  0
 14 15  1  0
 14 16  1  0
 16 17  2  0
  9 10  1  0
M  END
>  <minimizedAffinity>  (828) 
-8.54295

$$$$
data/200k_reference_output/data/smiles/70086.pdb
     RDKit          3D

 29 31  0  0  0  0  0  0  0  0999 V2000
   69.1103   39.5992   59.0368 C   0  0  0  0  0  0  0  0  0  0  0  0
   68.7386   38.9887   57.9971 O   0  0  0  0  0  0  0  0  0  0  0  0
   70.5692   37.3214   60.0527 N   0  0  0  0  0  0  0  0  0  0  0  0
   69.1257   37.4395   60.1464 C   0  0  0  0  0  0  0  0  0  0  0  0
   68.9669   38.9301   60.3407 C   0  0  1  0  0  0  0  0  0  0  0  0
   70.0818   39.2723   61.2948 C   0  0  0  0  0  0  0  0  0  0  0  0
   71.0804   38.1652   61.0726 C   0  0  0  0  0  0  0  0  0  0  0  0
   72.1747   38.0217   61.6899 O   0  0  0  0  0  0  0  0  0  0  0  0
   73.5797   34.1403   56.3620 C   0  0  0  0  0  0  0  0  0  0  0  0
   72.8035   34.9978   57.3022 C   0  0  0  0  0  0  0  0  0  0  0  0
   72.2221   34.3908   58.3897 C   0  0  0  0  0  0  0  0  0  0  0  0
   71.5015   35.1719   59.2677 C   0  0  0  0  0  0  0  0  0  0  0  0
   71.3225   36.5288   59.1307 C   0  0  0  0  0  0  0  0  0  0  0  0
   71.9239   37.1211   58.0166 C   0  0  0  0  0  0  0  0  0  0  0  0
   72.6562   36.3537   57.1156 C   0  0  0  0  0  0  0  0  0  0  0  0
   69.6417   40.8822   58.9002 O   0  0  0  0  0  0  0  0  0  0  0  0
   68.9017   42.0418   58.7395 C   0  0  0  0  0  0  0  0  0  0  0  0
   69.1507   42.7877   57.4643 C   0  0  0  0  0  0  0  0  0  0  0  0
   70.3307   42.9089   57.0573 O   0  0  0  0  0  0  0  0  0  0  0  0
   68.1262   43.3585   56.6937 N   0  0  0  0  0  0  0  0  0  0  0  0
   68.1746   44.0671   55.5285 N   0  0  0  0  0  0  0  0  0  0  0  0
   68.2764   45.4364   55.2664 C   0  0  0  0  0  0  0  0  0  0  0  0
   68.3384   46.2119   56.2492 O   0  0  0  0  0  0  0  0  0  0  0  0
   68.3133   45.9945   53.8955 C   0  0  0  0  0  0  0  0  0  0  0  0
   69.1138   47.0834   53.6669 C   0  0  0  0  0  0  0  0  0  0  0  0
   69.1857   47.6503   52.3887 C   0  0  0  0  0  0  0  0  0  0  0  0
   68.4560   47.1246   51.3462 C   0  0  0  0  0  0  0  0  0  0  0  0
   67.6529   46.0326   51.5750 C   0  0  0  0  0  0  0  0  0  0  0  0
   67.5981   45.4885   52.8493 C   0  0  0  0  0  0  0  0  0  0  0  0
  9 10  1  0
 10 11  2  0
 10 15  1  0
 11 12  1  0
 12 13  2  0
 13  3  1  0
 13 14  1  0
  3  4  1  0
  3  7  1  0
  4  5  1  0
  5  1  1  6
  5  6  1  0
  1  2  2  0
  1 16  1  0
 16 17  1  0
 17 18  1  0
 18 19  2  0
 18 20  1  0
 20 21  1  0
 21 22  1  0
 22 23  2  0
 22 24  1  0
 24 25  2  0
 24 29  1  0
 25 26  1  0
 26 27  2  0
 27 28  1  0
 28 29  2  0
  6  7  1  0
  7  8  2  0
 14 15  2  0
M  END
>  <minimizedAffinity>  (829) 
-8.58143

$$$$
data/200k_reference_output/data/smiles/70103.pdb
     RDKit          3D

 29 32  0  0  0  0  0  0  0  0999 V2000
   74.3469   34.7016   54.9429 C   0  0  0  0  0  0  0  0  0  0  0  0
   75.3362   34.9974   55.8913 C   0  0  0  0  0  0  0  0  0  0  0  0
   74.7257   35.5343   56.9592 N   0  0  0  0  0  0  0  0  0  0  0  0
   73.4214   35.6154   56.7907 N   0  0  0  0  0  0  0  0  0  0  0  0
   73.1826   35.1057   55.5547 C   0  0  0  0  0  0  0  0  0  0  0  0
   72.4569   36.1290   57.7085 C   0  0  0  0  0  0  0  0  0  0  0  0
   71.9777   35.3070   58.7040 C   0  0  0  0  0  0  0  0  0  0  0  0
   71.0364   35.8004   59.6047 C   0  0  0  0  0  0  0  0  0  0  0  0
   70.5875   37.1005   59.5010 C   0  0  0  0  0  0  0  0  0  0  0  0
   71.0516   37.9462   58.5123 C   0  0  0  0  0  0  0  0  0  0  0  0
   71.9814   37.4214   57.6409 C   0  0  0  0  0  0  0  0  0  0  0  0
   70.5611   39.3154   58.4243 C   0  0  0  0  0  0  0  0  0  0  0  0
   71.3931   40.2526   58.4965 O   0  0  0  0  0  0  0  0  0  0  0  0
   69.2002   39.6771   58.2614 N   0  0  0  0  0  0  0  0  0  0  0  0
   68.7455   41.0481   58.1774 C   0  0  0  0  0  0  0  0  0  0  0  0
   68.1196   41.4422   56.8763 C   0  0  0  0  0  0  0  0  0  0  0  0
   67.1069   42.1696   57.6432 N   0  0  0  0  0  0  0  0  0  0  0  0
   67.3547   41.2042   58.7238 C   0  0  0  0  0  0  0  0  0  0  0  0
   75.9117   35.7906   52.9042 O   0  0  0  0  0  0  0  0  0  0  0  0
   75.3712   34.7066   52.6464 C   0  0  0  0  0  0  0  0  0  0  0  0
   74.5628   34.1199   53.6660 N   0  0  0  0  0  0  0  0  0  0  0  0
   75.5695   34.1149   51.3952 N   0  0  0  0  0  0  0  0  0  0  0  0
   76.3390   34.5927   50.3161 C   0  0  0  0  0  0  0  0  0  0  0  0
   77.3599   35.4986   50.4279 C   0  0  0  0  0  0  0  0  0  0  0  0
   78.1053   35.9536   49.3324 C   0  0  0  0  0  0  0  0  0  0  0  0
   77.8097   35.4768   48.0818 C   0  0  0  0  0  0  0  0  0  0  0  0
   76.7935   34.5679   47.9264 C   0  0  0  0  0  0  0  0  0  0  0  0
   76.0859   34.1442   49.0144 C   0  0  0  0  0  0  0  0  0  0  0  0
   74.7929   32.9854   48.8104 Cl  0  0  0  0  0  0  0  0  0  0  0  0
 19 20  2  0
 20 21  1  0
 20 22  1  0
 21  1  1  0
  1  2  1  0
  1  5  2  0
  2  3  2  0
  3  4  1  0
  4  6  1  0
  4  5  1  0
  6  7  2  0
  6 11  1  0
  7  8  1  0
  8  9  2  0
  9 10  1  0
 10 12  1  0
 10 11  2  0
 12 13  2  0
 12 14  1  0
 14 15  1  0
 15 16  1  0
 15 18  1  0
 16 17  1  0
 17 18  1  0
 22 23  1  0
 23 24  2  0
 23 28  1  0
 24 25  1  0
 25 26  2  0
 26 27  1  0
 27 28  2  0
 28 29  1  0
M  CHG  1  17   1
M  END
>  <minimizedAffinity>  (830) 
-8.53940

$$$$
data/200k_reference_output/data/smiles/70105.pdb
     RDKit          3D

 20 22  0  0  0  0  0  0  0  0999 V2000
   68.7354   46.9121   54.1754 C   0  0  0  0  0  0  0  0  0  0  0  0
   68.7978   46.3284   52.9270 C   0  0  0  0  0  0  0  0  0  0  0  0
   69.1417   47.0888   51.8057 C   0  0  0  0  0  0  0  0  0  0  0  0
   69.4194   48.4274   51.9487 C   0  0  0  0  0  0  0  0  0  0  0  0
   69.7755   49.4076   51.0788 N   0  0  0  0  0  0  0  0  0  0  0  0
   69.9289   50.5384   51.7335 N   0  0  0  0  0  0  0  0  0  0  0  0
   69.6829   50.3577   53.0531 C   0  0  0  0  0  0  0  0  0  0  0  0
   69.3627   49.0294   53.1882 C   0  0  0  0  0  0  0  0  0  0  0  0
   69.0171   48.2473   54.2922 C   0  0  0  0  0  0  0  0  0  0  0  0
   69.7492   51.3575   54.1129 C   0  0  0  0  0  0  0  0  0  0  0  0
   68.5985   51.8174   54.7203 C   0  0  0  0  0  0  0  0  0  0  0  0
   68.6841   52.7603   55.7236 C   0  0  0  0  0  0  0  0  0  0  0  0
   69.9313   53.2178   56.0898 C   0  0  0  0  0  0  0  0  0  0  0  0
   69.9506   54.1536   57.0933 F   0  0  0  0  0  0  0  0  0  0  0  0
   71.0901   52.7689   55.4930 C   0  0  0  0  0  0  0  0  0  0  0  0
   71.0124   51.8273   54.4909 C   0  0  0  0  0  0  0  0  0  0  0  0
   68.1950   46.6149   56.4691 O   0  0  0  0  0  0  0  0  0  0  0  0
   68.3759   46.0946   55.3154 C   0  0  0  0  0  0  0  0  0  0  0  0
   68.1981   44.6942   55.2573 N   0  0  0  0  0  0  0  0  0  0  0  0
   67.8565   43.9575   56.3642 O   0  0  0  0  0  0  0  0  0  0  0  0
 17 18  2  0
 18 19  1  0
 18  1  1  0
 19 20  1  0
  1  2  2  0
  1  9  1  0
  2  3  1  0
  3  4  2  0
  4  5  1  0
  4  8  1  0
  5  6  1  0
  6  7  2  0
  7 10  1  0
  7  8  1  0
 10 11  2  0
 10 16  1  0
 11 12  1  0
 12 13  2  0
 13 14  1  0
 13 15  1  0
 15 16  2  0
  8  9  2  0
M  END
>  <minimizedAffinity>  (831) 
-8.62827

$$$$
data/200k_reference_output/data/smiles/70110.pdb
     RDKit          3D

 21 23  0  0  0  0  0  0  0  0999 V2000
   69.4750   48.4647   54.3001 C   0  0  0  0  0  0  0  0  0  0  0  0
   69.3382   48.3914   55.6682 C   0  0  0  0  0  0  0  0  0  0  0  0
   68.5804   47.3947   56.2709 C   0  0  0  0  0  0  0  0  0  0  0  0
   68.4418   47.3049   57.5160 O   0  0  0  0  0  0  0  0  0  0  0  0
   67.9781   46.5023   55.5281 O   0  0  0  0  0  0  0  0  0  0  0  0
   68.0735   46.5273   54.2173 C   0  0  0  0  0  0  0  0  0  0  0  0
   67.4115   45.5663   53.4688 C   0  0  0  0  0  0  0  0  0  0  0  0
   67.4811   45.5683   52.0894 C   0  0  0  0  0  0  0  0  0  0  0  0
   66.8065   44.5910   51.3682 O   0  0  0  0  0  0  0  0  0  0  0  0
   68.2296   46.5541   51.4836 C   0  0  0  0  0  0  0  0  0  0  0  0
   68.9035   47.5246   52.2017 C   0  0  0  0  0  0  0  0  0  0  0  0
   68.8154   47.4949   53.5668 C   0  0  0  0  0  0  0  0  0  0  0  0
   70.3586   49.4651   53.7234 C   0  0  0  0  0  0  0  0  0  0  0  0
   69.6205   50.7437   53.5028 C   0  0  0  0  0  0  0  0  0  0  0  0
   72.7735   53.7109   55.6277 C   0  0  0  0  0  0  0  0  0  0  0  0
   71.3600   53.2177   55.5743 C   0  0  0  0  0  0  0  0  0  0  0  0
   70.3798   53.6858   56.4278 C   0  0  0  0  0  0  0  0  0  0  0  0
   69.0979   53.1844   56.3360 C   0  0  0  0  0  0  0  0  0  0  0  0
   68.7813   52.2100   55.3896 C   0  0  0  0  0  0  0  0  0  0  0  0
   69.7667   51.7611   54.5538 C   0  0  0  0  0  0  0  0  0  0  0  0
   71.0031   52.2950   54.6968 N   0  0  0  0  0  0  0  0  0  0  0  0
 15 16  1  0
 16 17  2  0
 16 21  1  0
 17 18  1  0
 18 19  2  0
 19 20  1  0
 20 14  1  0
 20 21  2  0
 14 13  1  0
 13  1  1  0
  1  2  2  0
  1 12  1  0
  2  3  1  0
  3  4  2  0
  3  5  1  0
  5  6  1  0
  6  7  1  0
  6 12  2  0
  7  8  2  0
  8  9  1  0
  8 10  1  0
 10 11  2  0
 11 12  1  0
M  END
>  <minimizedAffinity>  (832) 
-8.67305

$$$$
data/200k_reference_output/data/smiles/70223.pdb
     RDKit          3D

 31 34  0  0  0  0  0  0  0  0999 V2000
   71.1264   44.1973   58.0672 C   0  0  0  0  0  0  0  0  0  0  0  0
   70.0968   44.8649   57.4403 C   0  0  0  0  0  0  0  0  0  0  0  0
   69.9963   46.2281   57.4271 C   0  0  0  0  0  0  0  0  0  0  0  0
   70.9792   46.9724   58.0776 C   0  0  0  0  0  0  0  0  0  0  0  0
   72.0085   46.3427   58.7070 C   0  0  0  0  0  0  0  0  0  0  0  0
   72.0867   44.9407   58.7031 C   0  0  0  0  0  0  0  0  0  0  0  0
   73.1436   44.4044   59.3533 F   0  0  0  0  0  0  0  0  0  0  0  0
   67.6023   41.0485   56.4451 C   0  0  0  0  0  0  0  0  0  0  0  0
   67.9434   40.2161   55.5183 O   0  0  0  0  0  0  0  0  0  0  0  0
   68.2752   40.9596   57.6895 N   0  0  0  0  0  0  0  0  0  0  0  0
   69.3086   39.9425   57.8332 C   0  0  0  0  0  0  0  0  0  0  0  0
   70.4883   40.4777   58.6356 C   0  0  0  0  0  0  0  0  0  0  0  0
   70.3043   41.9090   58.7190 N   0  0  0  0  0  0  0  0  0  0  0  0
   71.1960   42.7675   58.0627 C   0  0  0  0  0  0  0  0  0  0  0  0
   72.1522   42.2450   57.4020 O   0  0  0  0  0  0  0  0  0  0  0  0
   69.1570   42.3535   59.5039 C   0  0  0  0  0  0  0  0  0  0  0  0
   67.9291   41.8494   58.7691 C   0  0  0  0  0  0  0  0  0  0  0  0
   65.8746   41.7528   54.8117 C   0  0  0  0  0  0  0  0  0  0  0  0
   66.5358   42.0352   56.1448 C   0  0  0  0  0  0  0  0  0  0  0  0
   68.9060   46.9660   56.7574 C   0  0  0  0  0  0  0  0  0  0  0  0
   68.5948   46.4954   55.4002 C   0  0  0  0  0  0  0  0  0  0  0  0
   68.0143   45.2537   55.2754 N   0  0  0  0  0  0  0  0  0  0  0  0
   67.6626   44.7510   54.1152 N   0  0  0  0  0  0  0  0  0  0  0  0
   67.8457   45.4148   52.9801 C   0  0  0  0  0  0  0  0  0  0  0  0
   67.4959   44.9033   51.8813 O   0  0  0  0  0  0  0  0  0  0  0  0
   68.4310   46.6801   53.0448 C   0  0  0  0  0  0  0  0  0  0  0  0
   68.8013   47.2022   54.2691 C   0  0  0  0  0  0  0  0  0  0  0  0
   69.4544   48.5291   54.2774 C   0  0  0  0  0  0  0  0  0  0  0  0
   70.3888   48.6339   53.0797 C   0  0  0  0  0  0  0  0  0  0  0  0
   69.7542   48.3508   51.7731 C   0  0  0  0  0  0  0  0  0  0  0  0
   68.6006   47.4002   51.7824 C   0  0  0  0  0  0  0  0  0  0  0  0
 18 19  1  0
 19  8  1  0
  8  9  2  0
  8 10  1  0
 10 11  1  0
 10 17  1  0
 11 12  1  0
 12 13  1  0
 13 14  1  0
 13 16  1  0
 14 15  2  0
 14  1  1  0
  1  2  2  0
  1  6  1  0
  2  3  1  0
  3 20  1  0
  3  4  2  0
 20 21  1  0
 21 22  2  0
 21 27  1  0
 22 23  1  0
 23 24  1  0
 24 25  2  0
 24 26  1  0
 26 27  2  0
 26 31  1  0
 27 28  1  0
 28 29  1  0
 29 30  1  0
 30 31  1  0
  4  5  1  0
  5  6  2  0
  6  7  1  0
 16 17  1  0
M  END
>  <minimizedAffinity>  (833) 
-8.84156

$$$$
data/200k_reference_output/data/smiles/70472.pdb
     RDKit          3D

 27 29  0  0  0  0  0  0  0  0999 V2000
   74.9695   34.9735   53.4698 C   0  0  0  0  0  0  0  0  0  0  0  0
   75.5327   35.0383   54.7267 C   0  0  0  0  0  0  0  0  0  0  0  0
   74.7790   35.2615   55.8701 C   0  0  0  0  0  0  0  0  0  0  0  0
   73.4158   35.4322   55.8149 C   0  0  0  0  0  0  0  0  0  0  0  0
   72.8242   35.3722   54.5754 C   0  0  0  0  0  0  0  0  0  0  0  0
   73.5682   35.1519   53.4436 C   0  0  0  0  0  0  0  0  0  0  0  0
   72.6329   35.6653   57.0315 C   0  0  0  0  0  0  0  0  0  0  0  0
   72.2795   36.9522   57.3194 N   0  0  0  0  0  0  0  0  0  0  0  0
   71.5636   37.2894   58.4050 C   0  0  0  0  0  0  0  0  0  0  0  0
   71.1554   36.3121   59.2862 C   0  0  0  0  0  0  0  0  0  0  0  0
   71.5134   35.0147   58.9927 C   0  0  0  0  0  0  0  0  0  0  0  0
   71.1406   34.1289   59.7960 O   0  0  0  0  0  0  0  0  0  0  0  0
   72.2410   34.7191   57.8783 N   0  0  0  0  0  0  0  0  0  0  0  0
   70.3785   36.6489   60.4703 C   0  0  0  0  0  0  0  0  0  0  0  0
   69.1401   36.8304   60.3959 O   0  0  0  0  0  0  0  0  0  0  0  0
   70.9493   36.7880   61.7262 O   0  0  0  0  0  0  0  0  0  0  0  0
   72.9346   35.0892   52.1431 C   0  0  0  0  0  0  0  0  0  0  0  0
   72.4191   35.0215   51.1028 N   0  0  0  0  0  0  0  0  0  0  0  0
   75.6085   34.7608   52.3041 O   0  0  0  0  0  0  0  0  0  0  0  0
   76.7764   35.1735   51.7456 C   0  0  0  0  0  0  0  0  0  0  0  0
   77.3787   34.6099   46.0234 C   0  0  0  0  0  0  0  0  0  0  0  0
   77.1783   34.7065   47.4922 C   0  0  0  0  0  0  0  0  0  0  0  0
   78.0088   35.5768   48.1803 C   0  0  0  0  0  0  0  0  0  0  0  0
   77.8735   35.7129   49.5405 C   0  0  0  0  0  0  0  0  0  0  0  0
   76.9541   35.0377   50.2939 C   0  0  0  0  0  0  0  0  0  0  0  0
   76.1231   34.1600   49.5687 C   0  0  0  0  0  0  0  0  0  0  0  0
   76.2513   34.0159   48.2040 C   0  0  0  0  0  0  0  0  0  0  0  0
 21 22  1  0
 22 23  2  0
 22 27  1  0
 23 24  1  0
 24 25  2  0
 25 20  1  0
 25 26  1  0
 20 19  1  0
 19  1  1  0
  1  2  2  0
  1  6  1  0
  2  3  1  0
  3  4  2  0
  4  7  1  0
  4  5  1  0
  7  8  2  0
  7 13  1  0
  8  9  1  0
  9 10  2  0
 10 14  1  0
 10 11  1  0
 14 15  2  0
 14 16  1  0
 11 12  2  0
 11 13  1  0
  5  6  2  0
  6 17  1  0
 17 18  3  0
 26 27  2  0
M  END
>  <minimizedAffinity>  (834) 
-8.71654

$$$$
data/200k_reference_output/data/smiles/70528.pdb
     RDKit          3D

 27 30  0  0  0  0  0  0  0  0999 V2000
   69.3520   47.7485   52.5451 C   0  0  0  0  0  0  0  0  0  0  0  0
   68.8695   46.7264   51.7207 C   0  0  0  0  0  0  0  0  0  0  0  0
   68.1196   45.6910   52.1978 C   0  0  0  0  0  0  0  0  0  0  0  0
   67.8067   45.6127   53.5200 C   0  0  0  0  0  0  0  0  0  0  0  0
   67.0434   44.5688   54.0388 O   0  0  0  0  0  0  0  0  0  0  0  0
   68.2722   46.6101   54.3529 C   0  0  0  0  0  0  0  0  0  0  0  0
   67.9462   46.5009   55.6418 N   0  0  0  0  0  0  0  0  0  0  0  0
   68.3587   47.4284   56.5171 C   0  0  0  0  0  0  0  0  0  0  0  0
   69.1200   48.5133   56.1405 C   0  0  0  0  0  0  0  0  0  0  0  0
   69.4586   48.6191   54.7766 C   0  0  0  0  0  0  0  0  0  0  0  0
   69.0363   47.6699   53.8836 C   0  0  0  0  0  0  0  0  0  0  0  0
   69.5739   49.5013   57.0361 N   0  0  0  0  0  0  0  0  0  0  0  0
   68.7031   50.2550   57.8736 C   0  0  0  0  0  0  0  0  0  0  0  0
   68.8636   51.7228   57.4317 C   0  0  0  0  0  0  0  0  0  0  0  0
   70.2384   52.0436   57.3726 N   0  0  0  0  0  0  0  0  0  0  0  0
   71.1634   51.1110   57.8882 C   0  0  0  0  0  0  0  0  0  0  0  0
   70.9823   49.7907   57.1237 C   0  0  0  0  0  0  0  0  0  0  0  0
   70.6466   52.9293   56.3598 C   0  0  0  0  0  0  0  0  0  0  0  0
   71.8703   53.6633   56.6677 C   0  0  0  0  0  0  0  0  0  0  0  0
   72.7631   54.0544   55.7083 C   0  0  0  0  0  0  0  0  0  0  0  0
   73.9309   54.7553   56.0128 C   0  0  0  0  0  0  0  0  0  0  0  0
   74.1810   55.0568   57.3415 C   0  0  0  0  0  0  0  0  0  0  0  0
   73.2977   54.6763   58.3442 C   0  0  0  0  0  0  0  0  0  0  0  0
   72.1528   53.9817   57.9792 C   0  0  0  0  0  0  0  0  0  0  0  0
   71.3299   48.9282   52.4323 O   0  0  0  0  0  0  0  0  0  0  0  0
   70.1330   48.8066   51.9928 C   0  0  0  0  0  0  0  0  0  0  0  0
   69.7687   49.7093   51.0534 O   0  0  0  0  0  0  0  0  0  0  0  0
 25 26  2  0
 26 27  1  0
 26  1  1  0
  1  2  2  0
  1 11  1  0
  2  3  1  0
  3  4  2  0
  4  5  1  0
  4  6  1  0
  6  7  1  0
  6 11  2  0
  7  8  2  0
  8  9  1  0
  9 12  1  0
  9 10  2  0
 12 13  1  0
 12 17  1  0
 13 14  1  0
 14 15  1  0
 15 18  1  0
 15 16  1  0
 18 19  1  0
 19 20  2  0
 19 24  1  0
 20 21  1  0
 21 22  2  0
 22 23  1  0
 23 24  2  0
 16 17  1  0
 10 11  1  0
M  CHG  1  15   1
M  END
>  <minimizedAffinity>  (835) 
-9.08369

$$$$
data/200k_reference_output/data/smiles/70552.pdb
     RDKit          3D

 32 36  0  0  0  0  0  0  0  0999 V2000
   72.9431   34.6806   57.0151 C   0  0  0  0  0  0  0  0  0  0  0  0
   72.9425   33.4216   57.5326 C   0  0  0  0  0  0  0  0  0  0  0  0
   72.2704   33.2067   58.7203 C   0  0  0  0  0  0  0  0  0  0  0  0
   71.6261   34.1792   59.3753 N   0  0  0  0  0  0  0  0  0  0  0  0
   71.6144   35.4324   58.8811 C   0  0  0  0  0  0  0  0  0  0  0  0
   71.0703   36.5879   59.3015 N   0  0  0  0  0  0  0  0  0  0  0  0
   71.3631   37.5687   58.4236 C   0  0  0  0  0  0  0  0  0  0  0  0
   72.1118   37.0175   57.4219 C   0  0  0  0  0  0  0  0  0  0  0  0
   72.2819   35.6744   57.6897 C   0  0  0  0  0  0  0  0  0  0  0  0
   74.9975   35.1622   55.6977 C   0  0  0  0  0  0  0  0  0  0  0  0
   75.6064   35.4483   54.5144 C   0  0  0  0  0  0  0  0  0  0  0  0
   74.8384   35.5698   53.3589 C   0  0  0  0  0  0  0  0  0  0  0  0
   73.4772   35.4061   53.3905 C   0  0  0  0  0  0  0  0  0  0  0  0
   72.7136   35.5177   52.2881 F   0  0  0  0  0  0  0  0  0  0  0  0
   72.8928   35.1173   54.6033 C   0  0  0  0  0  0  0  0  0  0  0  0
   73.6220   34.9891   55.7689 C   0  0  0  0  0  0  0  0  0  0  0  0
   76.9171   34.3147   56.9850 C   0  0  0  0  0  0  0  0  0  0  0  0
   75.7287   35.0375   56.8489 O   0  0  0  0  0  0  0  0  0  0  0  0
   70.9365   38.9518   58.5629 C   0  0  0  0  0  0  0  0  0  0  0  0
   69.6646   39.3271   58.4865 C   0  0  0  0  0  0  0  0  0  0  0  0
   69.4050   40.7786   58.6512 C   0  0  0  0  0  0  0  0  0  0  0  0
   70.0965   41.3650   59.7349 N   0  0  1  0  0  0  0  0  0  0  0  0
   71.4723   41.0251   59.8537 C   0  0  0  0  0  0  0  0  0  0  0  0
   71.9334   40.0387   58.8020 C   0  0  0  0  0  0  0  0  0  0  0  0
   69.6553   42.5806   60.2595 C   0  0  0  0  0  0  0  0  0  0  0  0
   68.5790   42.6267   61.2312 C   0  0  0  0  0  0  0  0  0  0  0  0
   67.7933   43.6521   61.0985 O   0  0  0  0  0  0  0  0  0  0  0  0
   68.2610   41.7571   62.2725 N   0  0  0  0  0  0  0  0  0  0  0  0
   67.1690   41.7460   63.2872 C   0  0  0  0  0  0  0  0  0  0  0  0
   67.2396   40.2402   63.1998 C   0  0  0  0  0  0  0  0  0  0  0  0
   67.0218   39.5425   64.3609 O   0  0  0  0  0  0  0  0  0  0  0  0
   68.7240   40.5659   62.9185 C   0  0  0  0  0  0  0  0  0  0  0  0
 17 18  1  0
 18 10  1  0
 10 11  2  0
 10 16  1  0
 11 12  1  0
 12 13  2  0
 13 14  1  0
 13 15  1  0
 15 16  2  0
 16  1  1  0
  1  2  2  0
  1  9  1  0
  2  3  1  0
  3  4  2  0
  4  5  1  0
  5  6  1  0
  5  9  2  0
  6  7  1  0
  7 19  1  0
  7  8  2  0
 19 20  2  0
 19 24  1  0
 20 21  1  0
 21 22  1  0
 22 25  1  6
 22 23  1  0
 25 26  1  0
 26 27  2  0
 26 28  1  0
 28 29  1  0
 28 32  1  0
 29 30  1  0
 30 31  1  0
 30 32  1  0
 23 24  1  0
  8  9  1  0
M  CHG  1  22   1
M  END
>  <minimizedAffinity>  (836) 
-8.59638

$$$$
data/200k_reference_output/data/smiles/70593.pdb
     RDKit          3D

 26 28  0  0  0  0  0  0  0  0999 V2000
   69.3951   42.3041   58.2086 C   0  0  0  0  0  0  0  0  0  0  0  0
   69.0901   42.5703   59.4332 O   0  0  0  0  0  0  0  0  0  0  0  0
   70.1877   41.1514   58.0302 N   0  0  0  0  0  0  0  0  0  0  0  0
   67.2054   41.5470   56.1122 C   0  0  0  0  0  0  0  0  0  0  0  0
   67.9587   42.8362   56.2109 C   0  0  0  0  0  0  0  0  0  0  0  0
   67.8228   43.9011   55.4020 N   0  0  0  0  0  0  0  0  0  0  0  0
   68.6433   44.8940   55.7760 N   0  0  0  0  0  0  0  0  0  0  0  0
   69.2829   44.4209   56.8269 N   0  0  0  0  0  0  0  0  0  0  0  0
   68.9174   43.1759   57.1467 C   0  0  0  0  0  0  0  0  0  0  0  0
   68.7421   46.1557   55.1191 C   0  0  0  0  0  0  0  0  0  0  0  0
   68.5181   46.3228   53.7697 C   0  0  0  0  0  0  0  0  0  0  0  0
   68.6113   47.5433   53.1450 C   0  0  0  0  0  0  0  0  0  0  0  0
   68.9416   48.6873   53.8621 C   0  0  0  0  0  0  0  0  0  0  0  0
   69.1689   48.5292   55.2127 C   0  0  0  0  0  0  0  0  0  0  0  0
   69.0728   47.2918   55.8338 C   0  0  0  0  0  0  0  0  0  0  0  0
   70.6324   40.3099   59.0391 N   0  0  0  0  0  0  0  0  0  0  0  0
   70.0502   39.0273   59.2263 C   0  0  0  0  0  0  0  0  0  0  0  0
   68.5091   38.7982   58.6636 S   0  0  0  0  0  0  0  0  0  0  0  0
   70.7010   37.9326   59.8551 N   0  0  0  0  0  0  0  0  0  0  0  0
   71.3262   36.9449   59.0603 C   0  0  0  0  0  0  0  0  0  0  0  0
   71.9918   37.3213   57.9242 C   0  0  0  0  0  0  0  0  0  0  0  0
   72.6215   36.3675   57.1237 C   0  0  0  0  0  0  0  0  0  0  0  0
   72.5843   35.0375   57.4586 C   0  0  0  0  0  0  0  0  0  0  0  0
   73.3698   33.8142   56.4762 Cl  0  0  0  0  0  0  0  0  0  0  0  0
   71.9074   34.6564   58.6111 C   0  0  0  0  0  0  0  0  0  0  0  0
   71.2916   35.6194   59.3887 C   0  0  0  0  0  0  0  0  0  0  0  0
  4  5  1  0
  5  6  2  0
  5  9  1  0
  6  7  1  0
  7 10  1  0
  7  8  1  0
 10 11  2  0
 10 15  1  0
 11 12  1  0
 12 13  2  0
 13 14  1  0
 14 15  2  0
  8  9  2  0
  9  1  1  0
  1  2  2  0
  1  3  1  0
  3 16  1  0
 16 17  1  0
 17 18  2  0
 17 19  1  0
 19 20  1  0
 20 21  2  0
 20 26  1  0
 21 22  1  0
 22 23  2  0
 23 24  1  0
 23 25  1  0
 25 26  2  0
M  END
>  <minimizedAffinity>  (837) 
-8.60547

$$$$
data/200k_reference_output/data/smiles/70610.pdb
     RDKit          3D

 25 27  0  0  0  0  0  0  0  0999 V2000
   67.9815   42.3925   56.5397 C   0  0  0  0  0  0  0  0  0  0  0  0
   68.9811   41.9987   57.3091 C   0  0  0  0  0  0  0  0  0  0  0  0
   69.9131   43.0099   57.8129 C   0  0  0  0  0  0  0  0  0  0  0  0
   69.7051   44.2257   57.5294 O   0  0  0  0  0  0  0  0  0  0  0  0
   71.0001   42.5647   58.5994 N   0  0  0  0  0  0  0  0  0  0  0  0
   71.2167   41.1915   58.9120 C   0  0  0  0  0  0  0  0  0  0  0  0
   72.1990   40.8426   59.6171 O   0  0  0  0  0  0  0  0  0  0  0  0
   70.3341   40.1715   58.4425 N   0  0  0  0  0  0  0  0  0  0  0  0
   69.2356   40.6077   57.6503 C   0  0  0  0  0  0  0  0  0  0  0  0
   68.4600   39.7221   57.2354 O   0  0  0  0  0  0  0  0  0  0  0  0
   70.5923   38.8082   58.7472 C   0  0  0  0  0  0  0  0  0  0  0  0
   69.9595   38.1032   59.7394 C   0  0  0  0  0  0  0  0  0  0  0  0
   70.2150   36.7612   60.0162 C   0  0  0  0  0  0  0  0  0  0  0  0
   71.1458   36.0821   59.2712 C   0  0  0  0  0  0  0  0  0  0  0  0
   71.8036   36.7445   58.2683 C   0  0  0  0  0  0  0  0  0  0  0  0
   71.5401   38.0757   58.0062 C   0  0  0  0  0  0  0  0  0  0  0  0
   67.7465   43.7435   56.1641 N   0  0  0  0  0  0  0  0  0  0  0  0
   67.4376   44.1402   54.8554 N   0  0  0  0  0  0  0  0  0  0  0  0
   69.6584   48.8529   52.4100 C   0  0  0  0  0  0  0  0  0  0  0  0
   69.0722   47.6165   53.0371 C   0  0  0  0  0  0  0  0  0  0  0  0
   68.5195   46.6237   52.2735 C   0  0  0  0  0  0  0  0  0  0  0  0
   67.9786   45.4873   52.8723 C   0  0  0  0  0  0  0  0  0  0  0  0
   67.9677   45.3003   54.2367 C   0  0  0  0  0  0  0  0  0  0  0  0
   68.5447   46.3478   54.9917 C   0  0  0  0  0  0  0  0  0  0  0  0
   69.0782   47.4677   54.4026 C   0  0  0  0  0  0  0  0  0  0  0  0
 19 20  1  0
 20 21  2  0
 20 25  1  0
 21 22  1  0
 22 23  2  0
 23 18  1  0
 23 24  1  0
 18 17  1  0
 17  1  1  0
  1  2  2  0
  2  3  1  0
  2  9  1  0
  3  4  2  0
  3  5  1  0
  5  6  1  0
  6  7  2  0
  6  8  1  0
  8 11  1  0
  8  9  1  0
 11 12  2  0
 11 16  1  0
 12 13  1  0
 13 14  2  0
 14 15  1  0
 15 16  2  0
  9 10  2  0
 24 25  2  0
M  END
>  <minimizedAffinity>  (838) 
-8.66916

$$$$
data/200k_reference_output/data/smiles/70837.pdb
     RDKit          3D

 29 32  0  0  0  0  0  0  0  0999 V2000
   73.3048   50.9776   55.9148 C   0  0  1  0  0  0  0  0  0  0  0  0
   74.0801   50.8395   54.6261 C   0  0  0  0  0  0  0  0  0  0  0  0
   74.8227   49.8834   54.3864 O   0  0  0  0  0  0  0  0  0  0  0  0
   73.8312   51.9458   53.7533 N   0  0  0  0  0  0  0  0  0  0  0  0
   73.0405   53.0620   54.1581 C   0  0  0  0  0  0  0  0  0  0  0  0
   72.1152   52.8477   55.3212 C   0  0  0  0  0  0  0  0  0  0  0  0
   72.0154   51.3668   55.6054 N   0  0  1  0  0  0  0  0  0  0  0  0
   73.6735   50.0712   56.9923 C   0  0  0  0  0  0  0  0  0  0  0  0
   74.6805   50.1870   60.7077 C   0  0  0  0  0  0  0  0  0  0  0  0
   74.2728   49.6534   59.4265 N   0  0  0  0  0  0  0  0  0  0  0  0
   74.0763   50.5267   58.3031 C   0  0  0  0  0  0  0  0  0  0  0  0
   74.2752   51.7338   58.5123 O   0  0  0  0  0  0  0  0  0  0  0  0
   74.0800   48.2201   59.3510 C   0  0  0  0  0  0  0  0  0  0  0  0
   72.6483   47.8818   59.0582 C   0  0  0  0  0  0  0  0  0  0  0  0
   72.0117   47.0351   60.1407 C   0  0  0  0  0  0  0  0  0  0  0  0
   72.3051   47.6854   61.3567 O   0  0  0  0  0  0  0  0  0  0  0  0
   73.6038   47.3761   61.6754 C   0  0  0  0  0  0  0  0  0  0  0  0
   74.5996   47.5918   60.6106 C   0  0  0  0  0  0  0  0  0  0  0  0
   71.2478   50.9609   54.5091 C   0  0  0  0  0  0  0  0  0  0  0  0
   70.4712   49.7484   54.4908 C   0  0  0  0  0  0  0  0  0  0  0  0
   69.9687   49.1426   55.6231 C   0  0  0  0  0  0  0  0  0  0  0  0
   69.1883   48.0049   55.5747 C   0  0  0  0  0  0  0  0  0  0  0  0
   68.8738   47.4176   54.3675 C   0  0  0  0  0  0  0  0  0  0  0  0
   68.0948   46.2816   54.2943 C   0  0  0  0  0  0  0  0  0  0  0  0
   67.7956   45.7144   53.0725 C   0  0  0  0  0  0  0  0  0  0  0  0
   68.3042   46.3291   51.9497 C   0  0  0  0  0  0  0  0  0  0  0  0
   69.0728   47.4491   51.9971 C   0  0  0  0  0  0  0  0  0  0  0  0
   69.3719   48.0172   53.2303 C   0  0  0  0  0  0  0  0  0  0  0  0
   70.1459   49.1464   53.2917 C   0  0  0  0  0  0  0  0  0  0  0  0
  9 10  1  0
 10 11  1  0
 10 13  1  0
 11 12  2  0
 11  8  1  0
  1  8  1  6
  1  2  1  0
  1  7  1  0
  2  3  2  0
  2  4  1  0
  4  5  1  0
  5  6  1  0
  6  7  1  0
  7 19  1  6
 19 20  1  0
 20 21  2  0
 20 29  1  0
 21 22  1  0
 22 23  2  0
 23 24  1  0
 23 28  1  0
 24 25  2  0
 25 26  1  0
 26 27  2  0
 27 28  1  0
 28 29  2  0
 13 14  1  0
 13 18  1  0
 14 15  1  0
 15 16  1  0
 16 17  1  0
 17 18  1  0
M  CHG  1   7   1
M  END
>  <minimizedAffinity>  (839) 
-8.53582

$$$$
data/200k_reference_output/data/smiles/71022.pdb
     RDKit          3D

 21 23  0  0  0  0  0  0  0  0999 V2000
   69.9489   50.4581   54.1952 C   0  0  1  0  0  0  0  0  0  0  0  0
   69.6223   49.3636   53.2463 C   0  0  0  0  0  0  0  0  0  0  0  0
   69.8175   49.3405   51.8877 C   0  0  0  0  0  0  0  0  0  0  0  0
   69.3847   48.1351   51.4355 N   0  0  0  0  0  0  0  0  0  0  0  0
   68.9189   47.3876   52.4680 C   0  0  0  0  0  0  0  0  0  0  0  0
   68.3777   46.1200   52.5673 C   0  0  0  0  0  0  0  0  0  0  0  0
   67.9719   45.5762   53.7664 C   0  0  0  0  0  0  0  0  0  0  0  0
   68.1196   46.3441   54.9026 C   0  0  0  0  0  0  0  0  0  0  0  0
   68.6629   47.6195   54.8136 C   0  0  0  0  0  0  0  0  0  0  0  0
   69.0662   48.1539   53.6067 C   0  0  0  0  0  0  0  0  0  0  0  0
   71.3611   50.8395   54.0335 C   0  0  0  0  0  0  0  0  0  0  0  0
   71.9164   52.0552   53.8993 N   0  0  0  0  0  0  0  0  0  0  0  0
   73.2263   51.9536   53.7736 N   0  0  0  0  0  0  0  0  0  0  0  0
   73.5093   50.6667   53.8286 N   0  0  0  0  0  0  0  0  0  0  0  0
   72.3870   49.9761   53.9852 N   0  0  0  0  0  0  0  0  0  0  0  0
   68.9730   51.5761   54.2185 C   0  0  0  0  0  0  0  0  0  0  0  0
   68.6691   52.1971   55.4895 C   0  0  0  0  0  0  0  0  0  0  0  0
   69.2922   53.2462   55.8002 O   0  0  0  0  0  0  0  0  0  0  0  0
   67.7457   51.7265   56.3946 O   0  0  0  0  0  0  0  0  0  0  0  0
   67.0605   49.8948   57.8074 C   0  0  0  0  0  0  0  0  0  0  0  0
   68.0531   51.0044   57.5577 C   0  0  0  0  0  0  0  0  0  0  0  0
 20 21  1  0
 21 19  1  0
 19 17  1  0
 17 18  2  0
 17 16  1  0
  1 16  1  6
  1 11  1  0
  1  2  1  0
 11 12  2  0
 11 15  1  0
 12 13  1  0
 13 14  2  0
 14 15  1  0
  2  3  2  0
  2 10  1  0
  3  4  1  0
  4  5  1  0
  5  6  1  0
  5 10  2  0
  6  7  2  0
  7  8  1  0
  8  9  2  0
  9 10  1  0
M  END
>  <minimizedAffinity>  (840) 
-8.67089

$$$$
data/200k_reference_output/data/smiles/71214.pdb
     RDKit          3D

 23 25  0  0  0  0  0  0  0  0999 V2000
   69.9344   44.5306   57.3705 O   0  0  0  0  0  0  0  0  0  0  0  0
   70.0807   45.7568   57.6306 C   0  0  0  0  0  0  0  0  0  0  0  0
   71.0442   46.3310   58.5096 N   0  0  0  0  0  0  0  0  0  0  0  0
   70.8174   47.7362   58.4735 C   0  0  0  0  0  0  0  0  0  0  0  0
   71.5038   48.5536   59.1442 O   0  0  0  0  0  0  0  0  0  0  0  0
   69.7044   47.9821   57.5587 C   0  0  0  0  0  0  0  0  0  0  0  0
   69.2703   46.8270   57.0627 C   0  0  0  0  0  0  0  0  0  0  0  0
   69.1780   49.2977   57.2547 C   0  0  0  0  0  0  0  0  0  0  0  0
   67.9400   49.7383   57.6602 C   0  0  0  0  0  0  0  0  0  0  0  0
   67.4698   51.0150   57.3413 C   0  0  0  0  0  0  0  0  0  0  0  0
   68.2620   51.8781   56.5930 C   0  0  0  0  0  0  0  0  0  0  0  0
   69.5093   51.4448   56.1787 C   0  0  0  0  0  0  0  0  0  0  0  0
   69.9399   50.2000   56.5041 C   0  0  0  0  0  0  0  0  0  0  0  0
   68.1936   46.7070   56.1442 N   0  0  0  0  0  0  0  0  0  0  0  0
   68.3654   46.7762   54.7372 C   0  0  0  0  0  0  0  0  0  0  0  0
   67.7206   45.8915   53.9030 C   0  0  0  0  0  0  0  0  0  0  0  0
   67.8998   45.9508   52.5178 C   0  0  0  0  0  0  0  0  0  0  0  0
   68.7193   46.8889   51.9375 C   0  0  0  0  0  0  0  0  0  0  0  0
   69.3711   47.7846   52.7798 C   0  0  0  0  0  0  0  0  0  0  0  0
   69.1835   47.7097   54.1454 C   0  0  0  0  0  0  0  0  0  0  0  0
   70.2608   48.7953   52.1832 C   0  0  0  0  0  0  0  0  0  0  0  0
   71.3091   49.1333   52.7769 O   0  0  0  0  0  0  0  0  0  0  0  0
   69.9743   49.3923   50.9711 O   0  0  0  0  0  0  0  0  0  0  0  0
  1  2  2  0
  2  3  1  0
  2  7  1  0
  3  4  1  0
  4  5  2  0
  4  6  1  0
  6  8  1  0
  6  7  2  0
  8  9  2  0
  8 13  1  0
  9 10  1  0
 10 11  2  0
 11 12  1  0
 12 13  2  0
  7 14  1  0
 14 15  1  0
 15 16  2  0
 15 20  1  0
 16 17  1  0
 17 18  2  0
 18 19  1  0
 19 21  1  0
 19 20  2  0
 21 22  2  0
 21 23  1  0
M  END
>  <minimizedAffinity>  (841) 
-8.76049

$$$$
data/200k_reference_output/data/smiles/71234.pdb
     RDKit          3D

 24 26  0  0  0  0  0  0  0  0999 V2000
   68.9389   46.1023   56.3799 C   0  0  0  0  0  0  0  0  0  0  0  0
   69.9688   46.3992   57.0576 O   0  0  0  0  0  0  0  0  0  0  0  0
   68.5633   44.7434   56.2232 N   0  0  0  0  0  0  0  0  0  0  0  0
   69.3737   43.7935   56.8422 N   0  0  0  0  0  0  0  0  0  0  0  0
   69.0073   42.5839   57.0508 C   0  0  0  0  0  0  0  0  0  0  0  0
   67.6987   42.0649   56.6641 C   0  0  0  0  0  0  0  0  0  0  0  0
   66.7874   42.7081   56.0956 O   0  0  0  0  0  0  0  0  0  0  0  0
   67.7092   40.6888   57.0792 N   0  0  0  0  0  0  0  0  0  0  0  0
   68.9573   40.3997   57.6813 C   0  0  0  0  0  0  0  0  0  0  0  0
   69.4508   39.2346   58.2332 C   0  0  0  0  0  0  0  0  0  0  0  0
   70.7170   39.1359   58.7874 C   0  0  0  0  0  0  0  0  0  0  0  0
   71.5381   40.2690   58.7894 C   0  0  0  0  0  0  0  0  0  0  0  0
   71.0278   41.4220   58.2346 C   0  0  0  0  0  0  0  0  0  0  0  0
   69.7683   41.5081   57.6868 C   0  0  0  0  0  0  0  0  0  0  0  0
   68.1437   47.2170   55.7613 C   0  0  0  0  0  0  0  0  0  0  0  0
   69.9723   49.2572   53.1684 C   0  0  0  0  0  0  0  0  0  0  0  0
   69.3838   48.8382   54.3349 C   0  0  0  0  0  0  0  0  0  0  0  0
   68.7644   47.6210   54.4786 C   0  0  0  0  0  0  0  0  0  0  0  0
   68.7347   46.7825   53.3925 C   0  0  0  0  0  0  0  0  0  0  0  0
   69.3234   47.1725   52.1834 C   0  0  0  0  0  0  0  0  0  0  0  0
   69.9387   48.4039   52.0763 C   0  0  0  0  0  0  0  0  0  0  0  0
   70.5382   48.8288   50.8820 O   0  0  0  0  0  0  0  0  0  0  0  0
   70.0841   51.5541   53.8293 C   0  0  0  0  0  0  0  0  0  0  0  0
   70.5936   50.4912   53.0479 O   0  0  0  0  0  0  0  0  0  0  0  0
 23 24  1  0
 24 16  1  0
 16 17  2  0
 16 21  1  0
 17 18  1  0
 18 15  1  0
 18 19  2  0
 15  1  1  0
  1  2  2  0
  1  3  1  0
  3  4  1  0
  4  5  2  0
  5  6  1  0
  5 14  1  0
  6  7  2  0
  6  8  1  0
  8  9  1  0
  9 10  1  0
  9 14  2  0
 10 11  2  0
 11 12  1  0
 12 13  2  0
 13 14  1  0
 19 20  1  0
 20 21  2  0
 21 22  1  0
M  END
>  <minimizedAffinity>  (842) 
-8.79480

$$$$
data/200k_reference_output/data/smiles/71339.pdb
     RDKit          3D

 25 27  0  0  0  0  0  0  0  0999 V2000
   68.9198   47.1829   55.5182 C   0  0  0  0  0  0  0  0  0  0  0  0
   69.7562   47.9307   56.3340 C   0  0  0  0  0  0  0  0  0  0  0  0
   70.4261   47.3147   57.3797 C   0  0  0  0  0  0  0  0  0  0  0  0
   70.2842   45.9618   57.6361 C   0  0  0  0  0  0  0  0  0  0  0  0
   69.4619   45.2055   56.8396 C   0  0  0  0  0  0  0  0  0  0  0  0
   68.8031   45.8336   55.8035 C   0  0  0  0  0  0  0  0  0  0  0  0
   69.2852   43.7740   57.0764 C   0  0  0  0  0  0  0  0  0  0  0  0
   68.2753   43.0539   56.4688 C   0  0  0  0  0  0  0  0  0  0  0  0
   68.0971   41.7028   56.6840 C   0  0  0  0  0  0  0  0  0  0  0  0
   68.9287   40.9926   57.5275 C   0  0  0  0  0  0  0  0  0  0  0  0
   69.9396   41.7124   58.1359 C   0  0  0  0  0  0  0  0  0  0  0  0
   70.1167   43.0638   57.9199 C   0  0  0  0  0  0  0  0  0  0  0  0
   68.7443   39.5646   57.7576 C   0  0  0  0  0  0  0  0  0  0  0  0
   69.7196   38.8672   58.4905 N   0  0  0  0  0  0  0  0  0  0  0  0
   67.7401   38.9603   57.3146 O   0  0  0  0  0  0  0  0  0  0  0  0
   68.1913   47.7961   54.3830 C   0  0  0  0  0  0  0  0  0  0  0  0
   67.6688   45.5502   52.2470 C   0  0  0  0  0  0  0  0  0  0  0  0
   68.6488   46.6676   52.1654 C   0  0  0  0  0  0  0  0  0  0  0  0
   69.4592   46.8440   51.1130 N   0  0  0  0  0  0  0  0  0  0  0  0
   70.2060   47.8906   51.3165 N   0  0  0  0  0  0  0  0  0  0  0  0
   69.8935   48.4313   52.5302 C   0  0  0  0  0  0  0  0  0  0  0  0
   68.9004   47.6633   53.0870 C   0  0  0  0  0  0  0  0  0  0  0  0
   70.5074   49.6057   53.1195 C   0  0  0  0  0  0  0  0  0  0  0  0
   71.7048   49.5808   53.4546 O   0  0  0  0  0  0  0  0  0  0  0  0
   69.7754   50.7625   53.3172 O   0  0  0  0  0  0  0  0  0  0  0  0
 17 18  1  0
 18 19  2  0
 18 22  1  0
 19 20  1  0
 20 21  1  0
 21 23  1  0
 21 22  2  0
 23 24  2  0
 23 25  1  0
 22 16  1  0
 16  1  1  0
  1  2  2  0
  1  6  1  0
  2  3  1  0
  3  4  2  0
  4  5  1  0
  5  7  1  0
  5  6  2  0
  7  8  2  0
  7 12  1  0
  8  9  1  0
  9 10  2  0
 10 13  1  0
 10 11  1  0
 13 14  1  0
 13 15  2  0
 11 12  2  0
M  END
>  <minimizedAffinity>  (843) 
-8.70225

$$$$
data/200k_reference_output/data/smiles/71393.pdb
     RDKit          3D

 28 31  0  0  0  0  0  0  0  0999 V2000
   70.2922   49.3595   53.7236 C   0  0  0  0  0  0  0  0  0  0  0  0
   69.8212   48.9241   54.9408 C   0  0  0  0  0  0  0  0  0  0  0  0
   68.9838   47.8507   55.0676 N   0  0  0  0  0  0  0  0  0  0  0  0
   68.6167   47.2063   53.9553 C   0  0  0  0  0  0  0  0  0  0  0  0
   67.7842   46.1123   54.0402 C   0  0  0  0  0  0  0  0  0  0  0  0
   67.4388   45.4721   52.8641 C   0  0  0  0  0  0  0  0  0  0  0  0
   67.8852   45.8747   51.6299 C   0  0  0  0  0  0  0  0  0  0  0  0
   68.7201   46.9682   51.5347 C   0  0  0  0  0  0  0  0  0  0  0  0
   69.0731   47.6152   52.6957 C   0  0  0  0  0  0  0  0  0  0  0  0
   69.9161   48.6978   52.5669 C   0  0  0  0  0  0  0  0  0  0  0  0
   70.3400   49.0841   51.4344 O   0  0  0  0  0  0  0  0  0  0  0  0
   70.7678   51.6318   53.2530 O   0  0  0  0  0  0  0  0  0  0  0  0
   71.1858   50.5060   53.5958 C   0  0  0  0  0  0  0  0  0  0  0  0
   72.5452   50.3715   53.8578 O   0  0  0  0  0  0  0  0  0  0  0  0
   68.5358   47.5143   56.3815 C   0  0  0  0  0  0  0  0  0  0  0  0
   69.5830   46.8691   57.2214 C   0  0  0  0  0  0  0  0  0  0  0  0
   70.3756   47.5571   58.0895 C   0  0  0  0  0  0  0  0  0  0  0  0
   71.3647   46.9263   58.8703 C   0  0  0  0  0  0  0  0  0  0  0  0
   71.5808   45.5702   58.7936 C   0  0  0  0  0  0  0  0  0  0  0  0
   70.7769   44.8800   57.9156 C   0  0  0  0  0  0  0  0  0  0  0  0
   69.7970   45.5008   57.1416 C   0  0  0  0  0  0  0  0  0  0  0  0
   72.5882   44.9340   59.5919 N   0  0  0  0  0  0  0  0  0  0  0  0
   73.9569   44.7096   59.2899 C   0  0  0  0  0  0  0  0  0  0  0  0
   74.5587   45.0418   58.2275 O   0  0  0  0  0  0  0  0  0  0  0  0
   74.6183   44.0162   60.4074 C   0  0  0  0  0  0  0  0  0  0  0  0
   73.7123   43.8278   61.3330 C   0  0  0  0  0  0  0  0  0  0  0  0
   72.4141   44.3810   60.8841 C   0  0  0  0  0  0  0  0  0  0  0  0
   71.3661   44.3406   61.5724 O   0  0  0  0  0  0  0  0  0  0  0  0
 12 13  2  0
 13 14  1  0
 13  1  1  0
  1  2  2  0
  1 10  1  0
  2  3  1  0
  3 15  1  0
  3  4  1  0
 15 16  1  0
 16 17  2  0
 16 21  1  0
 17 18  1  0
 18 19  2  0
 19 22  1  0
 19 20  1  0
 22 23  1  0
 22 27  1  0
 23 24  2  0
 23 25  1  0
 25 26  2  0
 26 27  1  0
 27 28  2  0
 20 21  2  0
  4  5  1  0
  4  9  2  0
  5  6  2  0
  6  7  1  0
  7  8  2  0
  8  9  1  0
  9 10  1  0
 10 11  2  0
M  END
>  <minimizedAffinity>  (844) 
-8.51013

$$$$
data/200k_reference_output/data/smiles/71444.pdb
     RDKit          3D

 25 27  0  0  0  0  0  0  0  0999 V2000
   69.4576   47.2945   56.2820 N   0  0  0  0  0  0  0  0  0  0  0  0
   69.9373   48.2669   55.5568 N   0  0  0  0  0  0  0  0  0  0  0  0
   69.7675   48.3912   54.1982 C   0  0  0  0  0  0  0  0  0  0  0  0
   69.0455   47.4408   53.5126 C   0  0  0  0  0  0  0  0  0  0  0  0
   68.8321   47.4962   52.1525 C   0  0  0  0  0  0  0  0  0  0  0  0
   68.0888   46.5051   51.4914 C   0  0  0  0  0  0  0  0  0  0  0  0
   67.5848   45.4807   52.2617 C   0  0  0  0  0  0  0  0  0  0  0  0
   67.8005   45.4290   53.6221 C   0  0  0  0  0  0  0  0  0  0  0  0
   68.5264   46.3945   54.2777 C   0  0  0  0  0  0  0  0  0  0  0  0
   68.7502   46.3542   55.6395 C   0  0  0  0  0  0  0  0  0  0  0  0
   68.2756   45.4039   56.3125 O   0  0  0  0  0  0  0  0  0  0  0  0
   70.3516   49.5186   53.5134 C   0  0  0  0  0  0  0  0  0  0  0  0
   71.5860   49.3629   53.1648 O   0  0  0  0  0  0  0  0  0  0  0  0
   69.8332   50.7197   53.1700 O   0  0  0  0  0  0  0  0  0  0  0  0
   69.6797   47.2268   57.7288 C   0  0  0  0  0  0  0  0  0  0  0  0
   69.9179   45.3481   59.1406 O   0  0  0  0  0  0  0  0  0  0  0  0
   70.3211   45.9384   58.1061 C   0  0  0  0  0  0  0  0  0  0  0  0
   71.3704   45.3427   57.3537 N   0  0  0  0  0  0  0  0  0  0  0  0
   71.9861   44.1112   57.7118 C   0  0  0  0  0  0  0  0  0  0  0  0
   71.2303   42.9533   57.8142 C   0  0  0  0  0  0  0  0  0  0  0  0
   71.8300   41.7595   58.1617 C   0  0  0  0  0  0  0  0  0  0  0  0
   73.1836   41.6594   58.4194 C   0  0  0  0  0  0  0  0  0  0  0  0
   73.9408   42.8088   58.3196 C   0  0  0  0  0  0  0  0  0  0  0  0
   75.8168   42.6896   58.6732 Br  0  0  0  0  0  0  0  0  0  0  0  0
   73.3363   44.0016   57.9711 C   0  0  0  0  0  0  0  0  0  0  0  0
 16 17  2  0
 17 15  1  0
 17 18  1  0
 15  1  1  0
  1  2  1  0
  1 10  1  0
  2  3  2  0
  3 12  1  0
  3  4  1  0
 12 13  2  0
 12 14  1  0
  4  5  2  0
  4  9  1  0
  5  6  1  0
  6  7  2  0
  7  8  1  0
  8  9  2  0
  9 10  1  0
 10 11  2  0
 18 19  1  0
 19 20  2  0
 19 25  1  0
 20 21  1  0
 21 22  2  0
 22 23  1  0
 23 24  1  0
 23 25  2  0
M  END
>  <minimizedAffinity>  (845) 
-8.57547

$$$$
data/200k_reference_output/data/smiles/71485.pdb
     RDKit          3D

 26 29  0  0  0  0  0  0  0  0999 V2000
   72.4838   46.0565   58.1975 O   0  0  0  0  0  0  0  0  0  0  0  0
   71.3985   45.4008   58.9840 S   0  0  0  0  0  0  0  0  0  0  0  0
   71.5988   45.7330   60.4351 O   0  0  0  0  0  0  0  0  0  0  0  0
   71.4817   43.6516   58.8250 C   0  0  0  0  0  0  0  0  0  0  0  0
   70.4915   42.9547   58.1641 C   0  0  0  0  0  0  0  0  0  0  0  0
   70.5366   41.5832   58.0271 C   0  0  0  0  0  0  0  0  0  0  0  0
   71.5972   40.8418   58.5583 C   0  0  0  0  0  0  0  0  0  0  0  0
   72.5806   41.5272   59.2129 C   0  0  0  0  0  0  0  0  0  0  0  0
   72.5270   42.9304   59.3490 C   0  0  0  0  0  0  0  0  0  0  0  0
   73.5824   40.5520   59.6821 C   0  0  0  0  0  0  0  0  0  0  0  0
   73.0926   39.2378   59.2399 C   0  0  0  0  0  0  0  0  0  0  0  0
   73.6192   37.9391   59.3927 C   0  0  0  0  0  0  0  0  0  0  0  0
   72.9593   36.8477   58.8778 C   0  0  0  0  0  0  0  0  0  0  0  0
   71.7653   37.0490   58.2057 C   0  0  0  0  0  0  0  0  0  0  0  0
   71.2439   38.3167   58.0522 C   0  0  0  0  0  0  0  0  0  0  0  0
   71.9139   39.4263   58.5745 C   0  0  0  0  0  0  0  0  0  0  0  0
   69.8375   45.9171   58.5033 N   0  0  0  0  0  0  0  0  0  0  0  0
   69.4621   45.8118   57.1744 N   0  0  0  0  0  0  0  0  0  0  0  0
   69.1841   46.7747   56.3945 C   0  0  0  0  0  0  0  0  0  0  0  0
   68.7949   46.6039   55.0034 C   0  0  0  0  0  0  0  0  0  0  0  0
   69.0437   47.5714   54.0557 C   0  0  0  0  0  0  0  0  0  0  0  0
   68.6722   47.4094   52.7271 C   0  0  0  0  0  0  0  0  0  0  0  0
   68.0371   46.2489   52.3424 C   0  0  0  0  0  0  0  0  0  0  0  0
   67.8005   45.2972   53.3098 C   0  0  0  0  0  0  0  0  0  0  0  0
   68.1762   45.4836   54.6055 N   0  0  0  0  0  0  0  0  0  0  0  0
   67.8951   44.4711   55.4996 O   0  0  0  0  0  0  0  0  0  0  0  0
  1  2  2  0
  2  3  2  0
  2 17  1  0
  2  4  1  0
 17 18  1  0
 18 19  2  0
 19 20  1  0
 20 21  2  0
 20 25  1  0
 21 22  1  0
 22 23  2  0
 23 24  1  0
 24 25  2  0
 25 26  1  0
  4  5  2  0
  4  9  1  0
  5  6  1  0
  6  7  2  0
  7  8  1  0
  7 16  1  0
  8  9  2  0
  8 10  1  0
 10 11  1  0
 11 12  1  0
 11 16  2  0
 12 13  2  0
 13 14  1  0
 14 15  2  0
 15 16  1  0
M  CHG  2  25   1  26  -1
M  END
>  <minimizedAffinity>  (846) 
-8.83065

$$$$
data/200k_reference_output/data/smiles/71661.pdb
     RDKit          3D

 28 31  0  0  0  0  0  0  0  0999 V2000
   71.2214   50.4838   54.3512 S   0  0  0  0  0  0  0  0  0  0  0  0
   72.6939   50.1789   54.1299 O   0  0  0  0  0  0  0  0  0  0  0  0
   70.9474   51.8251   53.7357 O   0  0  0  0  0  0  0  0  0  0  0  0
   66.7275   44.4607   51.6485 O   0  0  0  0  0  0  0  0  0  0  0  0
   67.3648   45.3719   52.2470 C   0  0  0  0  0  0  0  0  0  0  0  0
   67.2294   45.5510   53.5760 N   0  0  0  0  0  0  0  0  0  0  0  0
   67.9108   46.5258   54.2169 C   0  0  0  0  0  0  0  0  0  0  0  0
   67.7628   46.6687   55.4594 O   0  0  0  0  0  0  0  0  0  0  0  0
   68.7702   47.3719   53.5401 C   0  0  0  0  0  0  0  0  0  0  0  0
   69.4770   48.3740   54.1695 C   0  0  0  0  0  0  0  0  0  0  0  0
   70.3452   49.2296   53.4887 C   0  0  0  0  0  0  0  0  0  0  0  0
   70.4572   49.0148   52.1345 C   0  0  0  0  0  0  0  0  0  0  0  0
   69.7455   48.0042   51.4902 C   0  0  0  0  0  0  0  0  0  0  0  0
   68.8933   47.1699   52.1802 C   0  0  0  0  0  0  0  0  0  0  0  0
   68.1990   46.1890   51.5733 N   0  0  0  0  0  0  0  0  0  0  0  0
   70.9003   50.4596   56.0429 N   0  0  0  0  0  0  0  0  0  0  0  0
   69.5866   50.5086   56.5746 C   0  0  0  0  0  0  0  0  0  0  0  0
   68.6996   51.4950   56.1356 C   0  0  0  0  0  0  0  0  0  0  0  0
   67.4206   51.5850   56.6413 C   0  0  0  0  0  0  0  0  0  0  0  0
   67.0487   50.6651   57.5983 C   0  0  0  0  0  0  0  0  0  0  0  0
   67.9219   49.6893   58.0344 C   0  0  0  0  0  0  0  0  0  0  0  0
   69.2044   49.5904   57.5333 C   0  0  0  0  0  0  0  0  0  0  0  0
   70.1115   48.5309   58.0132 C   0  0  0  0  0  0  0  0  0  0  0  0
   71.1002   48.8561   58.9387 C   0  0  0  0  0  0  0  0  0  0  0  0
   71.9673   47.8965   59.4197 C   0  0  0  0  0  0  0  0  0  0  0  0
   71.8652   46.5940   58.9872 C   0  0  0  0  0  0  0  0  0  0  0  0
   70.8919   46.2440   58.0690 C   0  0  0  0  0  0  0  0  0  0  0  0
   70.0352   47.2318   57.6035 C   0  0  0  0  0  0  0  0  0  0  0  0
  4  5  2  0
  5  6  1  0
  5 15  1  0
  6  7  1  0
  7  8  2  0
  7  9  1  0
  9 10  1  0
  9 14  2  0
 10 11  2  0
 11  1  1  0
 11 12  1  0
  1  2  2  0
  1  3  2  0
  1 16  1  0
 16 17  1  0
 17 18  2  0
 17 22  1  0
 18 19  1  0
 19 20  2  0
 20 21  1  0
 21 22  2  0
 22 23  1  0
 23 24  2  0
 23 28  1  0
 24 25  1  0
 25 26  2  0
 26 27  1  0
 27 28  2  0
 12 13  2  0
 13 14  1  0
 14 15  1  0
M  END
>  <minimizedAffinity>  (847) 
-9.25143

$$$$
data/200k_reference_output/data/smiles/71667.pdb
     RDKit          3D

 30 32  0  0  0  0  0  0  0  0999 V2000
   71.3885   43.7003   57.9223 C   0  0  0  0  0  0  0  0  0  0  0  0
   72.1625   44.7515   58.3657 C   0  0  0  0  0  0  0  0  0  0  0  0
   71.7254   46.0592   58.3102 C   0  0  0  0  0  0  0  0  0  0  0  0
   70.4790   46.3712   57.8011 C   0  0  0  0  0  0  0  0  0  0  0  0
   69.6800   45.3207   57.3480 C   0  0  0  0  0  0  0  0  0  0  0  0
   70.1478   44.0187   57.4173 C   0  0  0  0  0  0  0  0  0  0  0  0
   73.0945   42.1013   57.6494 O   0  0  0  0  0  0  0  0  0  0  0  0
   71.8950   42.3403   58.0024 C   0  0  0  0  0  0  0  0  0  0  0  0
   71.1553   41.2359   58.4490 N   0  0  0  0  0  0  0  0  0  0  0  0
   71.6691   39.9269   58.5181 N   0  0  0  0  0  0  0  0  0  0  0  0
   70.8778   38.7709   58.3701 C   0  0  0  0  0  0  0  0  0  0  0  0
   69.6294   39.0419   58.1639 O   0  0  0  0  0  0  0  0  0  0  0  0
   71.3193   37.3990   58.4275 C   0  0  0  0  0  0  0  0  0  0  0  0
   72.2502   36.9933   57.4820 C   0  0  0  0  0  0  0  0  0  0  0  0
   72.7402   35.7037   57.4470 C   0  0  0  0  0  0  0  0  0  0  0  0
   72.3122   34.7723   58.3624 C   0  0  0  0  0  0  0  0  0  0  0  0
   71.3959   35.1546   59.3003 C   0  0  0  0  0  0  0  0  0  0  0  0
   70.8979   36.4738   59.3322 C   0  0  0  0  0  0  0  0  0  0  0  0
   69.9892   36.8077   60.2823 F   0  0  0  0  0  0  0  0  0  0  0  0
   70.0396   47.7150   57.7492 N   0  0  0  0  0  0  0  0  0  0  0  0
   68.6488   48.2115   56.8632 S   0  0  0  0  0  0  0  0  0  0  0  0
   67.4350   47.5026   57.4281 O   0  0  0  0  0  0  0  0  0  0  0  0
   68.4747   49.7032   56.9453 O   0  0  0  0  0  0  0  0  0  0  0  0
   68.7594   47.7642   55.1866 C   0  0  0  0  0  0  0  0  0  0  0  0
   68.0825   46.6750   54.7251 C   0  0  0  0  0  0  0  0  0  0  0  0
   68.1619   46.3114   53.4012 C   0  0  0  0  0  0  0  0  0  0  0  0
   68.9410   47.0644   52.5308 C   0  0  0  0  0  0  0  0  0  0  0  0
   69.0263   46.7148   51.2248 F   0  0  0  0  0  0  0  0  0  0  0  0
   69.6167   48.1615   53.0202 C   0  0  0  0  0  0  0  0  0  0  0  0
   69.5293   48.5121   54.3344 C   0  0  0  0  0  0  0  0  0  0  0  0
  7  8  2  0
  8  9  1  0
  8  1  1  0
  9 10  1  0
 10 11  1  0
 11 12  2  0
 11 13  1  0
 13 14  2  0
 13 18  1  0
 14 15  1  0
 15 16  2  0
 16 17  1  0
 17 18  2  0
 18 19  1  0
  1  2  2  0
  1  6  1  0
  2  3  1  0
  3  4  2  0
  4 20  1  0
  4  5  1  0
 20 21  1  0
 21 22  2  0
 21 23  2  0
 21 24  1  0
 24 25  2  0
 24 30  1  0
 25 26  1  0
 26 27  2  0
 27 28  1  0
 27 29  1  0
 29 30  2  0
  5  6  2  0
M  END
>  <minimizedAffinity>  (848) 
-9.18277

$$$$
data/200k_reference_output/data/smiles/71701.pdb
     RDKit          3D

 21 23  0  0  0  0  0  0  0  0999 V2000
   68.5545   48.2729   56.2789 C   0  0  0  0  0  0  0  0  0  0  0  0
   69.1972   48.6710   55.1588 N   0  0  0  0  0  0  0  0  0  0  0  0
   68.9428   47.8553   54.1254 C   0  0  0  0  0  0  0  0  0  0  0  0
   69.3328   47.8073   52.7930 C   0  0  0  0  0  0  0  0  0  0  0  0
   68.8909   46.8107   51.9418 C   0  0  0  0  0  0  0  0  0  0  0  0
   68.0400   45.8515   52.4519 C   0  0  0  0  0  0  0  0  0  0  0  0
   67.6473   45.8908   53.7719 C   0  0  0  0  0  0  0  0  0  0  0  0
   68.0956   46.8994   54.6333 C   0  0  0  0  0  0  0  0  0  0  0  0
   67.8766   47.1720   55.9305 N   0  0  0  0  0  0  0  0  0  0  0  0
   70.8661   53.1270   56.0267 C   0  0  0  0  0  0  0  0  0  0  0  0
   69.4660   52.5927   55.9995 C   0  0  0  0  0  0  0  0  0  0  0  0
   68.6819   53.0818   55.1400 O   0  0  0  0  0  0  0  0  0  0  0  0
   69.0281   51.5906   56.8855 N   0  0  0  0  0  0  0  0  0  0  0  0
   69.9165   51.0315   57.8651 C   0  0  0  0  0  0  0  0  0  0  0  0
   69.9713   49.5299   57.8135 C   0  0  0  0  0  0  0  0  0  0  0  0
   68.6109   48.9674   57.6228 C   0  0  0  0  0  0  0  0  0  0  0  0
   67.5346   49.9799   57.7834 C   0  0  0  0  0  0  0  0  0  0  0  0
   67.6683   51.1163   56.8128 C   0  0  0  0  0  0  0  0  0  0  0  0
   70.2225   48.8174   52.2745 C   0  0  0  0  0  0  0  0  0  0  0  0
   69.8584   49.5675   51.1280 N   0  0  0  0  0  0  0  0  0  0  0  0
   71.3230   49.0666   52.8025 O   0  0  0  0  0  0  0  0  0  0  0  0
 10 11  1  0
 11 12  2  0
 11 13  1  0
 13 14  1  0
 13 18  1  0
 14 15  1  0
 15 16  1  0
 16  1  1  0
 16 17  1  0
  1  2  2  0
  1  9  1  0
  2  3  1  0
  3  4  2  0
  3  8  1  0
  4 19  1  0
  4  5  1  0
 19 20  1  0
 19 21  2  0
  5  6  2  0
  6  7  1  0
  7  8  2  0
  8  9  1  0
 17 18  1  0
M  CHG  1   2   1
M  END
>  <minimizedAffinity>  (849) 
-8.57740

$$$$
data/200k_reference_output/data/smiles/71759.pdb
     RDKit          3D

 32 35  0  0  0  0  0  0  0  0999 V2000
   70.2674   37.3763   60.4291 N   0  0  0  0  0  0  0  0  0  0  0  0
   70.8488   37.8499   59.2006 C   0  0  0  0  0  0  0  0  0  0  0  0
   71.5226   36.7003   58.5669 C   0  0  0  0  0  0  0  0  0  0  0  0
   72.2223   36.6376   57.3823 C   0  0  0  0  0  0  0  0  0  0  0  0
   72.7986   35.4638   56.9304 C   0  0  0  0  0  0  0  0  0  0  0  0
   72.6371   34.3518   57.7264 C   0  0  0  0  0  0  0  0  0  0  0  0
   71.9382   34.3970   58.9172 C   0  0  0  0  0  0  0  0  0  0  0  0
   71.3710   35.5969   59.3421 C   0  0  0  0  0  0  0  0  0  0  0  0
   70.5933   35.9834   60.5107 C   0  0  0  0  0  0  0  0  0  0  0  0
   70.2572   35.2073   61.4545 O   0  0  0  0  0  0  0  0  0  0  0  0
   73.5322   35.3718   55.7031 C   0  0  0  0  0  0  0  0  0  0  0  0
   74.1572   35.2874   54.6640 C   0  0  0  0  0  0  0  0  0  0  0  0
   74.8830   35.2057   53.4265 C   0  0  0  0  0  0  0  0  0  0  0  0
   74.4203   34.4712   52.3526 C   0  0  0  0  0  0  0  0  0  0  0  0
   75.0939   34.3742   51.1527 C   0  0  0  0  0  0  0  0  0  0  0  0
   76.2952   35.0507   51.0248 C   0  0  0  0  0  0  0  0  0  0  0  0
   76.7769   35.7931   52.0904 C   0  0  0  0  0  0  0  0  0  0  0  0
   76.0788   35.8712   53.2795 C   0  0  0  0  0  0  0  0  0  0  0  0
   77.0175   34.9587   49.7676 C   0  0  0  0  0  0  0  0  0  0  0  0
   76.4294   34.3171   48.6976 C   0  0  0  0  0  0  0  0  0  0  0  0
   77.0827   34.2071   47.4860 C   0  0  0  0  0  0  0  0  0  0  0  0
   78.3421   34.7491   47.3480 C   0  0  0  0  0  0  0  0  0  0  0  0
   78.9445   35.3909   48.4003 C   0  0  0  0  0  0  0  0  0  0  0  0
   78.2822   35.4918   49.5991 C   0  0  0  0  0  0  0  0  0  0  0  0
   69.5061   38.1611   61.3810 C   0  0  1  0  0  0  0  0  0  0  0  0
   70.3186   38.5387   62.5603 C   0  0  0  0  0  0  0  0  0  0  0  0
   71.5516   38.7364   62.4351 O   0  0  0  0  0  0  0  0  0  0  0  0
   69.7567   38.6928   63.8573 N   0  0  0  0  0  0  0  0  0  0  0  0
   70.5464   39.0365   64.8914 O   0  0  0  0  0  0  0  0  0  0  0  0
   67.3112   39.1575   60.7445 C   0  0  0  0  0  0  0  0  0  0  0  0
   68.8148   39.3223   60.7278 C   0  0  1  0  0  0  0  0  0  0  0  0
   69.1142   40.5477   61.2689 O   0  0  0  0  0  0  0  0  0  0  0  0
 31 30  1  1
 31 32  1  0
 31 25  1  0
 25 26  1  0
 25  1  1  6
 26 27  2  0
 26 28  1  0
 28 29  1  0
  1  2  1  0
  1  9  1  0
  2  3  1  0
  3  4  2  0
  3  8  1  0
  4  5  1  0
  5 11  1  0
  5  6  2  0
 11 12  3  0
 12 13  1  0
 13 14  2  0
 13 18  1  0
 14 15  1  0
 15 16  2  0
 16 19  1  0
 16 17  1  0
 19 20  2  0
 19 24  1  0
 20 21  1  0
 21 22  2  0
 22 23  1  0
 23 24  2  0
 17 18  2  0
  6  7  1  0
  7  8  2  0
  8  9  1  0
  9 10  2  0
M  END
>  <minimizedAffinity>  (850) 
-8.67860

$$$$
data/200k_reference_output/data/smiles/71901.pdb
     RDKit          3D

 29 31  0  0  0  0  0  0  0  0999 V2000
   69.6348   47.2924   57.4219 C   0  0  0  0  0  0  0  0  0  0  0  0
   68.4719   47.5521   57.8099 O   0  0  0  0  0  0  0  0  0  0  0  0
   69.9789   47.6448   56.1026 N   0  0  0  0  0  0  0  0  0  0  0  0
   69.0801   48.2859   55.1704 C   0  0  1  0  0  0  0  0  0  0  0  0
   69.5946   49.6313   54.8938 C   0  0  0  0  0  0  0  0  0  0  0  0
   69.7296   50.3280   55.9450 O   0  0  0  0  0  0  0  0  0  0  0  0
   69.9811   50.3487   53.7316 N   0  0  0  0  0  0  0  0  0  0  0  0
   70.0554   51.7912   53.8529 C   0  0  0  0  0  0  0  0  0  0  0  0
   70.2963   49.7890   52.4841 N   0  0  0  0  0  0  0  0  0  0  0  0
   69.9379   48.6264   52.0182 C   0  0  0  0  0  0  0  0  0  0  0  0
   69.1039   47.6219   52.7147 C   0  0  0  0  0  0  0  0  0  0  0  0
   68.6845   46.7341   51.7273 C   0  0  0  0  0  0  0  0  0  0  0  0
   67.8788   45.6699   52.0716 C   0  0  0  0  0  0  0  0  0  0  0  0
   67.5261   45.5384   53.3958 C   0  0  0  0  0  0  0  0  0  0  0  0
   67.9378   46.4126   54.3738 C   0  0  0  0  0  0  0  0  0  0  0  0
   68.7384   47.4676   54.0215 C   0  0  0  0  0  0  0  0  0  0  0  0
   71.8666   47.5616   58.3054 C   0  0  0  0  0  0  0  0  0  0  0  0
   70.6471   46.6337   58.2918 C   0  0  2  0  0  0  0  0  0  0  0  0
   70.9731   45.3130   57.8582 N   0  0  0  0  0  0  0  0  0  0  0  0
   70.4236   44.1943   58.5372 C   0  0  0  0  0  0  0  0  0  0  0  0
   69.6563   44.4112   59.5102 O   0  0  0  0  0  0  0  0  0  0  0  0
   70.7069   42.8030   58.1608 C   0  0  0  0  0  0  0  0  0  0  0  0
   69.5640   42.1270   57.5303 C   0  0  0  0  0  0  0  0  0  0  0  0
   69.3135   40.7847   57.7592 C   0  0  0  0  0  0  0  0  0  0  0  0
   68.2543   40.1335   57.1801 C   0  0  0  0  0  0  0  0  0  0  0  0
   67.4025   40.8154   56.3422 C   0  0  0  0  0  0  0  0  0  0  0  0
   67.6133   42.1495   56.0871 C   0  0  0  0  0  0  0  0  0  0  0  0
   66.7810   42.8212   55.2663 F   0  0  0  0  0  0  0  0  0  0  0  0
   68.6857   42.7841   56.6808 C   0  0  0  0  0  0  0  0  0  0  0  0
 18 17  1  6
 18 19  1  0
 18  1  1  0
 19 20  1  0
 20 21  2  0
 20 22  1  0
 22 23  1  0
 23 24  2  0
 23 29  1  0
 24 25  1  0
 25 26  2  0
 26 27  1  0
 27 28  1  0
 27 29  2  0
  1  2  2  0
  1  3  1  0
  4  3  1  6
  4  5  1  0
  4 16  1  0
  5  6  2  0
  5  7  1  0
  7  8  1  0
  7  9  1  0
  9 10  2  0
 10 11  1  0
 11 12  1  0
 11 16  2  0
 12 13  2  0
 13 14  1  0
 14 15  2  0
 15 16  1  0
M  END
>  <minimizedAffinity>  (851) 
-9.09868

$$$$
data/200k_reference_output/data/smiles/72237.pdb
     RDKit          3D

 24 26  0  0  0  0  0  0  0  0999 V2000
   69.5562   43.9728   56.9556 N   0  0  0  0  0  0  0  0  0  0  0  0
   69.1971   42.7746   57.2415 C   0  0  0  0  0  0  0  0  0  0  0  0
   67.9130   42.1929   56.9110 C   0  0  0  0  0  0  0  0  0  0  0  0
   66.9773   42.7923   56.2953 O   0  0  0  0  0  0  0  0  0  0  0  0
   67.9392   40.8700   57.4063 N   0  0  0  0  0  0  0  0  0  0  0  0
   69.1782   40.5774   58.0383 C   0  0  0  0  0  0  0  0  0  0  0  0
   69.6856   39.4445   58.6677 C   0  0  0  0  0  0  0  0  0  0  0  0
   68.6929   38.0073   58.7738 Cl  0  0  0  0  0  0  0  0  0  0  0  0
   70.9535   39.4232   59.2120 C   0  0  0  0  0  0  0  0  0  0  0  0
   71.7042   40.5754   59.1082 C   0  0  0  0  0  0  0  0  0  0  0  0
   71.2062   41.6997   58.4853 C   0  0  0  0  0  0  0  0  0  0  0  0
   72.1683   43.1589   58.3590 Cl  0  0  0  0  0  0  0  0  0  0  0  0
   69.9403   41.7229   57.9416 C   0  0  0  0  0  0  0  0  0  0  0  0
   69.0374   46.2701   56.2800 C   0  0  0  0  0  0  0  0  0  0  0  0
   70.0732   46.6168   56.9113 O   0  0  0  0  0  0  0  0  0  0  0  0
   68.7107   44.8698   56.2688 N   0  0  0  0  0  0  0  0  0  0  0  0
   68.2210   47.2792   55.5943 C   0  0  0  0  0  0  0  0  0  0  0  0
   70.3606   48.7805   51.3546 N   0  0  0  0  0  0  0  0  0  0  0  0
   69.4828   47.9264   52.0877 C   0  0  0  0  0  0  0  0  0  0  0  0
   68.8072   46.9688   51.3901 C   0  0  0  0  0  0  0  0  0  0  0  0
   67.9444   46.1132   52.0451 C   0  0  0  0  0  0  0  0  0  0  0  0
   67.7930   46.2573   53.4059 C   0  0  0  0  0  0  0  0  0  0  0  0
   68.4596   47.2118   54.1341 C   0  0  0  0  0  0  0  0  0  0  0  0
   69.3133   48.0499   53.4502 C   0  0  0  0  0  0  0  0  0  0  0  0
 18 19  1  0
 19 20  2  0
 19 24  1  0
 20 21  1  0
 21 22  2  0
 22 23  1  0
 23 17  1  0
 23 24  2  0
 17 14  1  0
 14 15  2  0
 14 16  1  0
 16  1  1  0
  1  2  2  0
  2  3  1  0
  2 13  1  0
  3  4  2  0
  3  5  1  0
  5  6  1  0
  6  7  1  0
  6 13  2  0
  7  8  1  0
  7  9  2  0
  9 10  1  0
 10 11  2  0
 11 12  1  0
 11 13  1  0
M  END
>  <minimizedAffinity>  (852) 
-8.59884

$$$$
data/200k_reference_output/data/smiles/72261.pdb
     RDKit          3D

 21 23  0  0  0  0  0  0  0  0999 V2000
   68.1548   46.9109   56.0484 O   0  0  0  0  0  0  0  0  0  0  0  0
   68.2917   46.8318   54.6783 C   0  0  0  0  0  0  0  0  0  0  0  0
   67.6938   45.7968   53.9504 C   0  0  0  0  0  0  0  0  0  0  0  0
   67.8285   45.7152   52.5940 C   0  0  0  0  0  0  0  0  0  0  0  0
   68.5495   46.6335   51.8742 C   0  0  0  0  0  0  0  0  0  0  0  0
   69.1485   47.6594   52.5603 C   0  0  0  0  0  0  0  0  0  0  0  0
   69.8856   48.5634   51.8144 C   0  0  0  0  0  0  0  0  0  0  0  0
   70.4849   49.5531   52.4819 N   0  0  0  0  0  0  0  0  0  0  0  0
   70.3964   49.6906   53.8057 C   0  0  0  0  0  0  0  0  0  0  0  0
   69.6693   48.7986   54.5447 C   0  0  0  0  0  0  0  0  0  0  0  0
   69.0158   47.7465   53.9314 C   0  0  0  0  0  0  0  0  0  0  0  0
   70.9052   46.4204   58.5127 C   0  0  0  0  0  0  0  0  0  0  0  0
   71.0178   45.0459   58.4599 C   0  0  0  0  0  0  0  0  0  0  0  0
   70.1789   44.3463   57.6089 C   0  0  0  0  0  0  0  0  0  0  0  0
   69.2713   44.9737   56.8486 N   0  0  0  0  0  0  0  0  0  0  0  0
   69.1146   46.3328   56.8584 C   0  0  0  0  0  0  0  0  0  0  0  0
   69.9580   47.0083   57.7100 C   0  0  0  0  0  0  0  0  0  0  0  0
   72.7245   48.0650   58.8066 N   0  0  0  0  0  0  0  0  0  0  0  0
   71.7762   47.2018   59.4003 C   0  0  0  0  0  0  0  0  0  0  0  0
   71.6969   47.1215   60.6823 N   0  0  0  0  0  0  0  0  0  0  0  0
   72.5530   47.8914   61.4290 O   0  0  0  0  0  0  0  0  0  0  0  0
 18 19  1  0
 19 20  2  0
 19 12  1  0
 20 21  1  0
 12 13  2  0
 12 17  1  0
 13 14  1  0
 14 15  2  0
 15 16  1  0
 16  1  1  0
 16 17  2  0
  1  2  1  0
  2  3  2  0
  2 11  1  0
  3  4  1  0
  4  5  2  0
  5  6  1  0
  6  7  1  0
  6 11  2  0
  7  8  2  0
  8  9  1  0
  9 10  2  0
 10 11  1  0
M  CHG  1  20   1
M  END
>  <minimizedAffinity>  (853) 
-9.02136

$$$$
data/200k_reference_output/data/smiles/72275.pdb
     RDKit          3D

 23 25  0  0  0  0  0  0  0  0999 V2000
   69.7294   42.7310   57.3293 O   0  0  0  0  0  0  0  0  0  0  0  0
   68.5056   42.3835   57.2562 C   0  0  0  0  0  0  0  0  0  0  0  0
   67.6941   43.2567   56.4868 N   0  0  0  0  0  0  0  0  0  0  0  0
   68.0512   41.1808   57.9316 C   0  0  0  0  0  0  0  0  0  0  0  0
   68.3983   39.9148   57.5301 C   0  0  0  0  0  0  0  0  0  0  0  0
   67.9428   38.7855   58.1944 C   0  0  0  0  0  0  0  0  0  0  0  0
   67.1073   38.8925   59.3058 C   0  0  0  0  0  0  0  0  0  0  0  0
   66.7636   40.1618   59.7041 C   0  0  0  0  0  0  0  0  0  0  0  0
   65.9582   40.5384   60.7611 C   0  0  0  0  0  0  0  0  0  0  0  0
   65.9329   41.9114   60.7255 C   0  0  0  0  0  0  0  0  0  0  0  0
   66.6931   42.3217   59.6893 N   0  0  0  0  0  0  0  0  0  0  0  0
   67.2260   41.2832   59.0299 C   0  0  0  0  0  0  0  0  0  0  0  0
   68.2558   44.4147   55.8733 N   0  0  0  0  0  0  0  0  0  0  0  0
   67.8070   44.8286   54.7390 C   0  0  0  0  0  0  0  0  0  0  0  0
   68.3143   45.9995   54.0351 C   0  0  0  0  0  0  0  0  0  0  0  0
   68.8295   47.0703   54.7535 C   0  0  0  0  0  0  0  0  0  0  0  0
   69.3341   48.1912   54.1419 C   0  0  0  0  0  0  0  0  0  0  0  0
   69.3557   48.3144   52.7488 C   0  0  0  0  0  0  0  0  0  0  0  0
   68.8435   47.2534   52.0375 C   0  0  0  0  0  0  0  0  0  0  0  0
   68.3352   46.1253   52.6646 C   0  0  0  0  0  0  0  0  0  0  0  0
   69.8814   49.4666   52.1103 N   0  0  0  0  0  0  0  0  0  0  0  0
   69.9361   49.5929   50.8767 O   0  0  0  0  0  0  0  0  0  0  0  0
   70.3519   50.4965   52.8828 O   0  0  0  0  0  0  0  0  0  0  0  0
  1  2  2  0
  2  3  1  0
  2  4  1  0
  3 13  1  0
 13 14  2  0
 14 15  1  0
 15 16  2  0
 15 20  1  0
 16 17  1  0
 17 18  2  0
 18 21  1  0
 18 19  1  0
 21 22  2  0
 21 23  1  0
 19 20  2  0
  4  5  2  0
  4 12  1  0
  5  6  1  0
  6  7  2  0
  7  8  1  0
  8  9  1  0
  8 12  2  0
  9 10  2  0
 10 11  1  0
 11 12  1  0
M  CHG  2  21   1  23  -1
M  END
>  <minimizedAffinity>  (854) 
-8.71592

$$$$
data/200k_reference_output/data/smiles/72357.pdb
     RDKit          3D

 27 29  0  0  0  0  0  0  0  0999 V2000
   69.7794   47.3738   57.0008 C   0  0  0  0  0  0  0  0  0  0  0  0
   68.5329   48.2055   57.1551 C   0  0  0  0  0  0  0  0  0  0  0  0
   68.7907   49.5175   56.4199 C   0  0  0  0  0  0  0  0  0  0  0  0
   70.0880   49.6064   55.9075 N   0  0  0  0  0  0  0  0  0  0  0  0
   71.1747   49.3584   56.7460 C   0  0  0  0  0  0  0  0  0  0  0  0
   70.9243   48.1339   57.6023 C   0  0  0  0  0  0  0  0  0  0  0  0
   69.3820   44.9501   56.5862 N   0  0  0  0  0  0  0  0  0  0  0  0
   69.6449   46.0048   57.5042 C   0  0  0  0  0  0  0  0  0  0  0  0
   69.7526   45.7228   58.7256 O   0  0  0  0  0  0  0  0  0  0  0  0
   68.8901   40.9107   57.6238 C   0  0  0  0  0  0  0  0  0  0  0  0
   69.9596   41.6247   58.0636 C   0  0  0  0  0  0  0  0  0  0  0  0
   70.1483   42.9711   57.7332 C   0  0  0  0  0  0  0  0  0  0  0  0
   69.2318   43.6080   56.9399 C   0  0  0  0  0  0  0  0  0  0  0  0
   68.1495   42.8962   56.4906 C   0  0  0  0  0  0  0  0  0  0  0  0
   67.9595   41.5532   56.8184 C   0  0  0  0  0  0  0  0  0  0  0  0
   69.5955   38.7650   58.8365 C   0  0  0  0  0  0  0  0  0  0  0  0
   68.6694   39.5042   57.9543 C   0  0  0  0  0  0  0  0  0  0  0  0
   67.6712   38.9345   57.4710 O   0  0  0  0  0  0  0  0  0  0  0  0
   70.3284   49.8966   54.2934 S   0  0  0  0  0  0  0  0  0  0  0  0
   69.6335   51.1489   53.8589 O   0  0  0  0  0  0  0  0  0  0  0  0
   71.7910   50.0679   54.0032 O   0  0  0  0  0  0  0  0  0  0  0  0
   69.7512   48.5850   53.2677 C   0  0  0  0  0  0  0  0  0  0  0  0
   68.7874   47.7103   53.7129 C   0  0  0  0  0  0  0  0  0  0  0  0
   68.3227   46.6848   52.9341 C   0  0  0  0  0  0  0  0  0  0  0  0
   68.8484   46.5339   51.6593 C   0  0  0  0  0  0  0  0  0  0  0  0
   69.7954   47.3854   51.2080 N   0  0  0  0  0  0  0  0  0  0  0  0
   70.2457   48.3953   51.9887 C   0  0  0  0  0  0  0  0  0  0  0  0
 16 17  1  0
 17 18  2  0
 17 10  1  0
 10 11  2  0
 10 15  1  0
 11 12  1  0
 12 13  2  0
 13  7  1  0
 13 14  1  0
  7  8  1  0
  8  9  2  0
  8  1  1  0
  1  2  1  0
  1  6  1  0
  2  3  1  0
  3  4  1  0
  4 19  1  0
  4  5  1  0
 19 20  2  0
 19 21  2  0
 19 22  1  0
 22 23  2  0
 22 27  1  0
 23 24  1  0
 24 25  2  0
 25 26  1  0
 26 27  2  0
  5  6  1  0
 14 15  2  0
M  END
>  <minimizedAffinity>  (855) 
-8.93562

$$$$
data/200k_reference_output/data/smiles/72559.pdb
     RDKit          3D

 24 27  0  0  0  0  0  0  0  0999 V2000
   70.0643   44.6243   57.7112 N   0  0  0  0  0  0  0  0  0  0  0  0
   69.3362   45.3433   56.9310 N   0  0  0  0  0  0  0  0  0  0  0  0
   69.5268   46.6836   57.1403 C   0  0  0  0  0  0  0  0  0  0  0  0
   70.4761   46.6982   58.1626 C   0  0  0  0  0  0  0  0  0  0  0  0
   71.0761   47.7071   58.8174 C   0  0  0  0  0  0  0  0  0  0  0  0
   70.8077   49.0364   58.5092 N   0  0  0  0  0  0  0  0  0  0  0  0
   71.9950   47.4893   59.8126 N   0  0  0  0  0  0  0  0  0  0  0  0
   72.2899   46.2150   60.1265 C   0  0  0  0  0  0  0  0  0  0  0  0
   71.6905   45.2250   59.4724 N   0  0  0  0  0  0  0  0  0  0  0  0
   70.7977   45.4030   58.5061 C   0  0  0  0  0  0  0  0  0  0  0  0
   70.1068   43.1504   57.6913 C   0  0  0  0  0  0  0  0  0  0  0  0
   67.9147   41.9936   56.6392 C   0  0  0  0  0  0  0  0  0  0  0  0
   68.9629   42.5341   57.1428 C   0  0  0  0  0  0  0  0  0  0  0  0
   68.8964   47.7037   56.3797 C   0  0  0  0  0  0  0  0  0  0  0  0
   69.2082   48.0533   55.0068 C   0  0  0  0  0  0  0  0  0  0  0  0
   70.0409   49.1348   54.7327 C   0  0  0  0  0  0  0  0  0  0  0  0
   70.4129   49.4941   53.4755 C   0  0  0  0  0  0  0  0  0  0  0  0
   69.9727   48.7845   52.3837 C   0  0  0  0  0  0  0  0  0  0  0  0
   69.1336   47.6883   52.6063 C   0  0  0  0  0  0  0  0  0  0  0  0
   68.6947   46.9798   51.5058 C   0  0  0  0  0  0  0  0  0  0  0  0
   67.8691   45.8939   51.6884 C   0  0  0  0  0  0  0  0  0  0  0  0
   67.4875   45.5245   52.9793 C   0  0  0  0  0  0  0  0  0  0  0  0
   67.9343   46.2409   54.0652 C   0  0  0  0  0  0  0  0  0  0  0  0
   68.7699   47.3429   53.8878 C   0  0  0  0  0  0  0  0  0  0  0  0
 12 13  3  0
 13 11  1  0
 11  1  1  0
  1  2  1  0
  1 10  1  0
  2  3  2  0
  3 14  1  0
  3  4  1  0
 14 15  1  0
 15 16  2  0
 15 24  1  0
 16 17  1  0
 17 18  2  0
 18 19  1  0
 19 20  1  0
 19 24  2  0
 20 21  2  0
 21 22  1  0
 22 23  2  0
 23 24  1  0
  4  5  1  0
  4 10  2  0
  5  6  1  0
  5  7  2  0
  7  8  1  0
  8  9  2  0
  9 10  1  0
M  END
>  <minimizedAffinity>  (856) 
-8.81795

$$$$
data/200k_reference_output/data/smiles/72716.pdb
     RDKit          3D

 28 30  0  0  0  0  0  0  0  0999 V2000
   69.9482   50.5158   58.5075 C   0  0  0  0  0  0  0  0  0  0  0  0
   71.1627   49.9024   58.0471 N   0  0  0  0  0  0  0  0  0  0  0  0
   71.5209   49.9365   56.7002 C   0  0  0  0  0  0  0  0  0  0  0  0
   72.6075   49.3552   56.3525 O   0  0  0  0  0  0  0  0  0  0  0  0
   72.0024   49.2462   59.0427 C   0  0  0  0  0  0  0  0  0  0  0  0
   71.6827   47.8007   59.1482 C   0  0  0  0  0  0  0  0  0  0  0  0
   71.4218   47.3254   60.2812 O   0  0  0  0  0  0  0  0  0  0  0  0
   71.6645   46.9595   58.0239 N   0  0  0  0  0  0  0  0  0  0  0  0
   71.3657   45.5742   58.0643 C   0  0  0  0  0  0  0  0  0  0  0  0
   72.2726   44.6806   58.5849 C   0  0  0  0  0  0  0  0  0  0  0  0
   71.9989   43.3067   58.6325 C   0  0  0  0  0  0  0  0  0  0  0  0
   70.8038   42.8135   58.1551 C   0  0  0  0  0  0  0  0  0  0  0  0
   70.4459   41.0852   58.2037 Cl  0  0  0  0  0  0  0  0  0  0  0  0
   69.8985   43.7148   57.6340 C   0  0  0  0  0  0  0  0  0  0  0  0
   70.1752   45.0497   57.5924 C   0  0  0  0  0  0  0  0  0  0  0  0
   70.7736   50.5787   55.6092 C   0  0  0  0  0  0  0  0  0  0  0  0
   70.2486   49.6006   54.6663 N   0  0  0  0  0  0  0  0  0  0  0  0
   70.5641   49.7118   53.3641 N   0  0  0  0  0  0  0  0  0  0  0  0
   70.1189   48.8556   52.4291 C   0  0  0  0  0  0  0  0  0  0  0  0
   70.4350   48.9873   51.2037 O   0  0  0  0  0  0  0  0  0  0  0  0
   69.3004   47.7977   52.7572 C   0  0  0  0  0  0  0  0  0  0  0  0
   68.8237   46.8899   51.8068 C   0  0  0  0  0  0  0  0  0  0  0  0
   68.0061   45.8353   52.1560 C   0  0  0  0  0  0  0  0  0  0  0  0
   67.6788   45.7210   53.5050 C   0  0  0  0  0  0  0  0  0  0  0  0
   68.1479   46.6185   54.4583 C   0  0  0  0  0  0  0  0  0  0  0  0
   68.9613   47.6585   54.0845 C   0  0  0  0  0  0  0  0  0  0  0  0
   69.4565   48.5810   55.0041 C   0  0  0  0  0  0  0  0  0  0  0  0
   69.1281   48.4229   56.1969 O   0  0  0  0  0  0  0  0  0  0  0  0
  1  2  1  0
  2  5  1  0
  2  3  1  0
  5  6  1  0
  6  7  2  0
  6  8  1  0
  8  9  1  0
  9 10  2  0
  9 15  1  0
 10 11  1  0
 11 12  2  0
 12 13  1  0
 12 14  1  0
 14 15  2  0
  3  4  2  0
  3 16  1  0
 16 17  1  0
 17 18  1  0
 17 27  1  0
 18 19  1  0
 19 20  2  0
 19 21  1  0
 21 22  2  0
 21 26  1  0
 22 23  1  0
 23 24  2  0
 24 25  1  0
 25 26  2  0
 26 27  1  0
 27 28  2  0
M  END
>  <minimizedAffinity>  (857) 
-8.59513

$$$$
data/200k_reference_output/data/smiles/73060.pdb
     RDKit          3D

 28 31  0  0  0  0  0  0  0  0999 V2000
   71.0817   45.8764   58.4451 C   0  0  0  0  0  0  0  0  0  0  0  0
   72.2364   46.5592   58.8648 C   0  0  0  0  0  0  0  0  0  0  0  0
   72.4833   47.8718   58.5364 C   0  0  0  0  0  0  0  0  0  0  0  0
   71.5563   48.5362   57.7668 C   0  0  0  0  0  0  0  0  0  0  0  0
   70.3884   47.9303   57.3119 C   0  0  0  0  0  0  0  0  0  0  0  0
   70.2090   46.6120   57.6801 C   0  0  0  0  0  0  0  0  0  0  0  0
   71.9055   43.7534   58.9184 O   0  0  0  0  0  0  0  0  0  0  0  0
   70.8999   44.4922   58.8320 C   0  0  0  0  0  0  0  0  0  0  0  0
   69.6370   43.9565   59.1142 N   0  0  0  0  0  0  0  0  0  0  0  0
   69.3926   42.5571   59.5157 C   0  0  0  0  0  0  0  0  0  0  0  0
   68.8215   41.8480   58.3668 C   0  0  0  0  0  0  0  0  0  0  0  0
   68.7358   40.4492   58.3481 C   0  0  0  0  0  0  0  0  0  0  0  0
   68.1895   39.7957   57.2765 C   0  0  0  0  0  0  0  0  0  0  0  0
   67.7142   40.4549   56.2062 N   0  0  0  0  0  0  0  0  0  0  0  0
   67.7704   41.7857   56.1717 C   0  0  0  0  0  0  0  0  0  0  0  0
   68.3211   42.4787   57.2480 C   0  0  0  0  0  0  0  0  0  0  0  0
   69.4169   48.6855   56.4659 C   0  0  0  0  0  0  0  0  0  0  0  0
   69.6693   48.5791   55.0206 C   0  0  0  0  0  0  0  0  0  0  0  0
   70.6780   49.3550   54.5191 N   0  0  0  0  0  0  0  0  0  0  0  0
   71.0090   49.3650   53.2413 N   0  0  0  0  0  0  0  0  0  0  0  0
   70.3608   48.6014   52.3503 C   0  0  0  0  0  0  0  0  0  0  0  0
   70.6576   48.5908   51.1150 O   0  0  0  0  0  0  0  0  0  0  0  0
   69.3479   47.8130   52.8093 C   0  0  0  0  0  0  0  0  0  0  0  0
   68.9898   47.7889   54.1356 C   0  0  0  0  0  0  0  0  0  0  0  0
   67.9099   46.9358   54.6143 C   0  0  0  0  0  0  0  0  0  0  0  0
   67.6128   45.7377   53.7807 C   0  0  0  0  0  0  0  0  0  0  0  0
   68.3427   45.6475   52.4904 C   0  0  0  0  0  0  0  0  0  0  0  0
   68.6173   46.9567   51.8281 C   0  0  0  0  0  0  0  0  0  0  0  0
  7  8  2  0
  8  9  1  0
  8  1  1  0
  9 10  1  0
 10 11  1  0
 11 12  2  0
 11 16  1  0
 12 13  1  0
 13 14  2  0
 14 15  1  0
 15 16  2  0
  1  2  2  0
  1  6  1  0
  2  3  1  0
  3  4  2  0
  4  5  1  0
  5 17  1  0
  5  6  2  0
 17 18  1  0
 18 19  2  0
 18 24  1  0
 19 20  1  0
 20 21  1  0
 21 22  2  0
 21 23  1  0
 23 24  2  0
 23 28  1  0
 24 25  1  0
 25 26  1  0
 26 27  1  0
 27 28  1  0
M  END
>  <minimizedAffinity>  (858) 
-9.25846

$$$$
data/200k_reference_output/data/smiles/73082.pdb
     RDKit          3D

 29 32  0  0  0  0  0  0  0  0999 V2000
   69.2625   52.0423   57.3832 C   0  0  0  0  0  0  0  0  0  0  0  0
   70.4145   51.5056   56.5799 C   0  0  2  0  0  0  0  0  0  0  0  0
   69.8863   50.5099   55.5083 C   0  0  0  0  0  0  0  0  0  0  0  0
   69.2949   49.3453   56.1371 C   0  0  2  0  0  0  0  0  0  0  0  0
   70.3856   48.7816   57.0890 C   0  0  0  0  0  0  0  0  0  0  0  0
   71.6411   49.5730   56.9262 C   0  0  0  0  0  0  0  0  0  0  0  0
   71.4947   50.9701   57.3517 N   0  0  1  0  0  0  0  0  0  0  0  0
   68.8298   48.2420   55.3925 N   0  0  0  0  0  0  0  0  0  0  0  0
   68.0059   47.3234   55.9991 C   0  0  0  0  0  0  0  0  0  0  0  0
   67.6133   47.3637   57.1855 O   0  0  0  0  0  0  0  0  0  0  0  0
   67.6870   46.3757   55.1265 N   0  0  0  0  0  0  0  0  0  0  0  0
   68.3083   46.6892   53.9586 C   0  0  0  0  0  0  0  0  0  0  0  0
   68.3486   46.0924   52.7229 C   0  0  0  0  0  0  0  0  0  0  0  0
   69.0723   46.6273   51.6776 C   0  0  0  0  0  0  0  0  0  0  0  0
   69.7735   47.7949   51.8818 C   0  0  0  0  0  0  0  0  0  0  0  0
   69.7586   48.4283   53.1100 C   0  0  0  0  0  0  0  0  0  0  0  0
   69.0324   47.8747   54.1295 C   0  0  0  0  0  0  0  0  0  0  0  0
   72.7276   51.6407   57.0013 C   0  0  0  0  0  0  0  0  0  0  0  0
   73.6324   50.9465   56.0633 C   0  0  0  0  0  0  0  0  0  0  0  0
   75.0353   50.9219   56.3005 N   0  0  0  0  0  0  0  0  0  0  0  0
   75.8625   50.1252   55.4329 C   0  0  0  0  0  0  0  0  0  0  0  0
   75.3063   49.4913   54.5008 O   0  0  0  0  0  0  0  0  0  0  0  0
   77.2988   50.0815   55.6605 C   0  0  0  0  0  0  0  0  0  0  0  0
   78.0145   51.0430   56.3246 C   0  0  0  0  0  0  0  0  0  0  0  0
   79.3978   50.9342   56.4903 C   0  0  0  0  0  0  0  0  0  0  0  0
   80.0675   49.8427   55.9823 C   0  0  0  0  0  0  0  0  0  0  0  0
   81.4165   49.7005   56.1246 F   0  0  0  0  0  0  0  0  0  0  0  0
   79.3733   48.8436   55.3013 C   0  0  0  0  0  0  0  0  0  0  0  0
   78.0238   48.9902   55.1613 C   0  0  0  0  0  0  0  0  0  0  0  0
  2  1  1  1
  2  3  1  0
  2  7  1  0
  3  4  1  0
  4  8  1  6
  4  5  1  0
  8  9  1  0
  8 17  1  0
  9 10  2  0
  9 11  1  0
 11 12  1  0
 12 13  1  0
 12 17  2  0
 13 14  2  0
 14 15  1  0
 15 16  2  0
 16 17  1  0
  5  6  1  0
  6  7  1  0
  7 18  1  6
 18 19  1  0
 19 20  1  0
 20 21  1  0
 21 22  2  0
 21 23  1  0
 23 24  2  0
 23 29  1  0
 24 25  1  0
 25 26  2  0
 26 27  1  0
 26 28  1  0
 28 29  2  0
M  CHG  1   7   1
M  END
>  <minimizedAffinity>  (859) 
-8.94207

$$$$
data/200k_reference_output/data/smiles/73098.pdb
     RDKit          3D

 26 29  0  0  0  0  0  0  0  0999 V2000
   71.3298   52.2273   55.0808 N   0  0  0  0  0  0  0  0  0  0  0  0
   71.1828   52.1950   56.5262 C   0  0  0  0  0  0  0  0  0  0  0  0
   69.7314   51.9947   56.7980 C   0  0  0  0  0  0  0  0  0  0  0  0
   69.0332   52.3627   55.5368 C   0  0  0  0  0  0  0  0  0  0  0  0
   70.1226   52.1471   54.4622 C   0  0  2  0  0  0  0  0  0  0  0  0
   69.8292   50.7583   53.9432 C   0  0  0  0  0  0  0  0  0  0  0  0
   69.0640   49.8158   54.5539 N   0  0  0  0  0  0  0  0  0  0  0  0
   69.0148   48.6971   53.8140 C   0  0  0  0  0  0  0  0  0  0  0  0
   68.4121   47.4622   53.9319 C   0  0  0  0  0  0  0  0  0  0  0  0
   68.5517   46.4772   52.9706 C   0  0  0  0  0  0  0  0  0  0  0  0
   67.9519   45.2564   53.0958 F   0  0  0  0  0  0  0  0  0  0  0  0
   69.3206   46.7144   51.8334 C   0  0  0  0  0  0  0  0  0  0  0  0
   69.9192   47.9529   51.7258 C   0  0  0  0  0  0  0  0  0  0  0  0
   69.7896   48.9446   52.6749 C   0  0  0  0  0  0  0  0  0  0  0  0
   70.2614   50.2130   52.8037 N   0  0  0  0  0  0  0  0  0  0  0  0
   72.6116   52.2849   54.6436 C   0  0  0  0  0  0  0  0  0  0  0  0
   73.5422   50.2735   53.9044 O   0  0  0  0  0  0  0  0  0  0  0  0
   73.6183   51.2616   54.7490 C   0  0  0  0  0  0  0  0  0  0  0  0
   74.6845   51.1713   55.6419 N   0  0  0  0  0  0  0  0  0  0  0  0
   75.6258   50.0360   55.5911 C   0  0  0  0  0  0  0  0  0  0  0  0
   76.8208   50.2949   56.4235 C   0  0  0  0  0  0  0  0  0  0  0  0
   78.1086   50.4162   55.9709 C   0  0  0  0  0  0  0  0  0  0  0  0
   79.1936   50.6803   56.8058 C   0  0  0  0  0  0  0  0  0  0  0  0
   78.9859   50.8299   58.1590 C   0  0  0  0  0  0  0  0  0  0  0  0
   77.6787   50.7023   58.5922 C   0  0  0  0  0  0  0  0  0  0  0  0
   76.6514   50.4484   57.7703 N   0  0  0  0  0  0  0  0  0  0  0  0
 17 18  2  0
 18 16  1  0
 18 19  1  0
 16  1  1  0
  1  2  1  0
  1  5  1  0
  2  3  1  0
  3  4  1  0
  4  5  1  0
  5  6  1  1
  6  7  2  0
  6 15  1  0
  7  8  1  0
  8  9  2  0
  8 14  1  0
  9 10  1  0
 10 11  1  0
 10 12  2  0
 12 13  1  0
 13 14  2  0
 14 15  1  0
 19 20  1  0
 20 21  1  0
 21 22  2  0
 21 26  1  0
 22 23  1  0
 23 24  2  0
 24 25  1  0
 25 26  2  0
M  CHG  2   1   1   7   1
M  END
>  <minimizedAffinity>  (860) 
-8.64811

$$$$
data/200k_reference_output/data/smiles/73120.pdb
     RDKit          3D

 27 30  0  0  0  0  0  0  0  0999 V2000
   70.0960   49.0147   53.2711 C   0  0  0  0  0  0  0  0  0  0  0  0
   69.9451   49.1004   51.8796 C   0  0  0  0  0  0  0  0  0  0  0  0
   69.1963   48.0838   51.4253 N   0  0  0  0  0  0  0  0  0  0  0  0
   68.8291   47.3035   52.4560 C   0  0  0  0  0  0  0  0  0  0  0  0
   68.0793   46.1470   52.4881 C   0  0  0  0  0  0  0  0  0  0  0  0
   67.8501   45.4987   53.7008 C   0  0  0  0  0  0  0  0  0  0  0  0
   68.3868   46.0369   54.8588 C   0  0  0  0  0  0  0  0  0  0  0  0
   69.1169   47.1791   54.7693 C   0  0  0  0  0  0  0  0  0  0  0  0
   69.3788   47.8660   53.6038 C   0  0  0  0  0  0  0  0  0  0  0  0
   69.3513   54.4400   56.8185 O   0  0  0  0  0  0  0  0  0  0  0  0
   69.6958   53.3813   56.2000 C   0  0  0  0  0  0  0  0  0  0  0  0
   71.0075   52.8756   56.2866 N   0  0  0  0  0  0  0  0  0  0  0  0
   71.4072   51.7052   55.6105 C   0  0  0  0  0  0  0  0  0  0  0  0
   72.5908   51.2885   55.7148 O   0  0  0  0  0  0  0  0  0  0  0  0
   70.4599   50.9322   54.7628 C   0  0  0  0  0  0  0  0  0  0  0  0
   70.8711   49.8719   54.1182 C   0  0  0  0  0  0  0  0  0  0  0  0
   69.1180   51.4932   54.7032 C   0  0  0  0  0  0  0  0  0  0  0  0
   68.2282   50.9355   54.0162 O   0  0  0  0  0  0  0  0  0  0  0  0
   68.7570   52.6904   55.4113 N   0  0  0  0  0  0  0  0  0  0  0  0
   68.1383   45.3636   56.0517 O   0  0  0  0  0  0  0  0  0  0  0  0
   69.1979   44.5747   56.5828 C   0  0  0  0  0  0  0  0  0  0  0  0
   68.8179   43.1698   56.7501 C   0  0  0  0  0  0  0  0  0  0  0  0
   67.7403   42.6307   56.0748 C   0  0  0  0  0  0  0  0  0  0  0  0
   67.3695   41.3029   56.2236 C   0  0  0  0  0  0  0  0  0  0  0  0
   68.1002   40.4959   57.0737 C   0  0  0  0  0  0  0  0  0  0  0  0
   69.1693   41.0024   57.7526 C   0  0  0  0  0  0  0  0  0  0  0  0
   69.5315   42.3432   57.5920 C   0  0  0  0  0  0  0  0  0  0  0  0
 10 11  2  0
 11 12  1  0
 11 19  1  0
 12 13  1  0
 13 14  2  0
 13 15  1  0
 15 16  2  0
 15 17  1  0
 16  1  1  0
  1  2  2  0
  1  9  1  0
  2  3  1  0
  3  4  1  0
  4  5  1  0
  4  9  2  0
  5  6  2  0
  6  7  1  0
  7 20  1  0
  7  8  2  0
 20 21  1  0
 21 22  1  0
 22 23  2  0
 22 27  1  0
 23 24  1  0
 24 25  2  0
 25 26  1  0
 26 27  2  0
  8  9  1  0
 17 18  2  0
 17 19  1  0
M  END
>  <minimizedAffinity>  (861) 
-8.72732

$$$$
data/200k_reference_output/data/smiles/73226.pdb
     RDKit          3D

 24 26  0  0  0  0  0  0  0  0999 V2000
   70.5528   44.8254   58.0772 C   0  0  0  0  0  0  0  0  0  0  0  0
   71.8379   45.1058   58.4722 C   0  0  0  0  0  0  0  0  0  0  0  0
   72.3424   46.3992   58.5440 C   0  0  0  0  0  0  0  0  0  0  0  0
   71.4612   47.4169   58.1878 C   0  0  0  0  0  0  0  0  0  0  0  0
   70.2059   47.1470   57.8012 N   0  0  0  0  0  0  0  0  0  0  0  0
   69.7848   45.8950   57.7539 N   0  0  0  0  0  0  0  0  0  0  0  0
   68.2360   39.5512   57.6458 C   0  0  0  0  0  0  0  0  0  0  0  0
   68.8491   40.9119   57.7759 C   0  0  0  0  0  0  0  0  0  0  0  0
   68.4952   41.9178   56.9024 C   0  0  0  0  0  0  0  0  0  0  0  0
   69.0527   43.1731   57.0106 C   0  0  0  0  0  0  0  0  0  0  0  0
   69.9819   43.4877   57.9868 C   0  0  0  0  0  0  0  0  0  0  0  0
   70.3330   42.4851   58.8559 C   0  0  0  0  0  0  0  0  0  0  0  0
   69.7698   41.2070   58.7507 C   0  0  0  0  0  0  0  0  0  0  0  0
   69.3248   48.2605   57.4421 C   0  0  0  0  0  0  0  0  0  0  0  0
   68.3601   47.7822   56.4276 C   0  0  0  0  0  0  0  0  0  0  0  0
   67.1660   47.5494   56.8320 O   0  0  0  0  0  0  0  0  0  0  0  0
   68.6608   47.5587   55.0210 C   0  0  0  0  0  0  0  0  0  0  0  0
   68.1783   46.5059   54.2914 C   0  0  0  0  0  0  0  0  0  0  0  0
   68.5028   46.3456   52.9728 C   0  0  0  0  0  0  0  0  0  0  0  0
   69.3316   47.2225   52.2880 C   0  0  0  0  0  0  0  0  0  0  0  0
   69.6488   47.0421   50.9525 O   0  0  0  0  0  0  0  0  0  0  0  0
   69.8162   48.2838   53.0318 C   0  0  0  0  0  0  0  0  0  0  0  0
   70.6508   49.1870   52.3804 O   0  0  0  0  0  0  0  0  0  0  0  0
   69.4982   48.4586   54.3587 C   0  0  0  0  0  0  0  0  0  0  0  0
  7  8  1  0
  8  9  2  0
  8 13  1  0
  9 10  1  0
 10 11  2  0
 11  1  1  0
 11 12  1  0
  1  2  2  0
  1  6  1  0
  2  3  1  0
  3  4  2  0
  4  5  1  0
  5 14  1  0
  5  6  2  0
 14 15  1  0
 15 16  2  0
 15 17  1  0
 17 18  2  0
 17 24  1  0
 18 19  1  0
 19 20  2  0
 20 21  1  0
 20 22  1  0
 22 23  1  0
 22 24  2  0
 12 13  2  0
M  CHG  1   5   1
M  END
>  <minimizedAffinity>  (862) 
-8.60006

$$$$
data/200k_reference_output/data/smiles/73346.pdb
     RDKit          3D

 24 26  0  0  0  0  0  0  0  0999 V2000
   69.4977   42.6427   57.2946 C   0  0  0  0  0  0  0  0  0  0  0  0
   68.9739   43.5958   56.4311 C   0  0  0  0  0  0  0  0  0  0  0  0
   67.8298   43.3829   55.7006 C   0  0  0  0  0  0  0  0  0  0  0  0
   67.2231   42.1771   55.8661 N   0  0  0  0  0  0  0  0  0  0  0  0
   67.7072   41.2446   56.6921 C   0  0  0  0  0  0  0  0  0  0  0  0
   68.8331   41.4823   57.3950 N   0  0  0  0  0  0  0  0  0  0  0  0
   71.5086   44.4838   61.3525 N   0  0  0  0  0  0  0  0  0  0  0  0
   71.6426   43.7894   60.1168 C   0  0  0  0  0  0  0  0  0  0  0  0
   72.8981   43.3506   59.7249 C   0  0  0  0  0  0  0  0  0  0  0  0
   73.0415   42.6784   58.5335 C   0  0  0  0  0  0  0  0  0  0  0  0
   71.9585   42.4212   57.7010 C   0  0  0  0  0  0  0  0  0  0  0  0
   70.7040   42.8493   58.0728 C   0  0  0  0  0  0  0  0  0  0  0  0
   70.5999   43.5246   59.2828 C   0  0  0  0  0  0  0  0  0  0  0  0
   67.3095   44.3387   54.8066 N   0  0  0  0  0  0  0  0  0  0  0  0
   67.9607   45.5191   54.3679 C   0  0  0  0  0  0  0  0  0  0  0  0
   68.4126   46.5221   55.1957 C   0  0  0  0  0  0  0  0  0  0  0  0
   69.0258   47.6738   54.7187 C   0  0  0  0  0  0  0  0  0  0  0  0
   69.2138   47.8668   53.3697 C   0  0  0  0  0  0  0  0  0  0  0  0
   68.7687   46.8741   52.5221 C   0  0  0  0  0  0  0  0  0  0  0  0
   68.1603   45.7319   52.9950 C   0  0  0  0  0  0  0  0  0  0  0  0
   70.0026   49.3464   52.7339 P   0  0  0  0  0  0  0  0  0  0  0  0
   69.2878   50.5992   53.1940 O   0  0  0  0  0  0  0  0  0  0  0  0
   69.9796   49.2863   51.0512 O   0  0  0  0  0  0  0  0  0  0  0  0
   71.6157   49.4296   53.2270 O   0  0  0  0  0  0  0  0  0  0  0  0
  7  8  1  0
  8  9  2  0
  8 13  1  0
  9 10  1  0
 10 11  2  0
 11 12  1  0
 12  1  1  0
 12 13  2  0
  1  2  2  0
  1  6  1  0
  2  3  1  0
  3 14  1  0
  3  4  2  0
 14 15  1  0
 15 16  2  0
 15 20  1  0
 16 17  1  0
 17 18  2  0
 18 21  1  0
 18 19  1  0
 21 22  2  0
 21 23  1  0
 21 24  1  0
 19 20  2  0
  4  5  1  0
  5  6  2  0
M  END
>  <minimizedAffinity>  (863) 
-8.54035

$$$$
data/200k_reference_output/data/smiles/73495.pdb
     RDKit          3D

 24 26  0  0  0  0  0  0  0  0999 V2000
   72.1875   50.9666   54.7827 S   0  0  0  0  0  0  0  0  0  0  0  0
   73.2071   50.2538   55.6168 O   0  0  0  0  0  0  0  0  0  0  0  0
   72.6625   52.3664   54.4607 O   0  0  0  0  0  0  0  0  0  0  0  0
   70.6258   51.0070   55.5856 C   0  0  0  0  0  0  0  0  0  0  0  0
   69.9362   52.1890   55.7555 C   0  0  0  0  0  0  0  0  0  0  0  0
   68.7091   52.2136   56.3883 C   0  0  0  0  0  0  0  0  0  0  0  0
   68.1175   51.0664   56.8779 C   0  0  0  0  0  0  0  0  0  0  0  0
   66.8881   51.0792   57.5144 C   0  0  0  0  0  0  0  0  0  0  0  0
   66.2941   49.9344   58.0054 C   0  0  0  0  0  0  0  0  0  0  0  0
   66.9819   48.7504   57.8373 C   0  0  0  0  0  0  0  0  0  0  0  0
   68.2082   48.7351   57.2030 C   0  0  0  0  0  0  0  0  0  0  0  0
   68.8021   49.8807   56.7127 C   0  0  0  0  0  0  0  0  0  0  0  0
   70.0328   49.8621   56.0769 C   0  0  0  0  0  0  0  0  0  0  0  0
   72.0764   50.1188   53.2753 N   0  0  0  0  0  0  0  0  0  0  0  0
   69.8852   49.6980   51.6249 O   0  0  0  0  0  0  0  0  0  0  0  0
   70.1346   48.8194   52.5211 C   0  0  0  0  0  0  0  0  0  0  0  0
   71.2422   48.9865   53.3908 N   0  0  0  0  0  0  0  0  0  0  0  0
   69.2333   47.6711   52.5885 C   0  0  0  0  0  0  0  0  0  0  0  0
   68.6494   47.1281   51.4636 C   0  0  0  0  0  0  0  0  0  0  0  0
   67.8075   46.0446   51.5901 C   0  0  0  0  0  0  0  0  0  0  0  0
   67.5095   45.4628   52.7971 C   0  0  0  0  0  0  0  0  0  0  0  0
   68.1013   46.0169   53.9117 C   0  0  0  0  0  0  0  0  0  0  0  0
   67.8380   45.4745   55.1356 F   0  0  0  0  0  0  0  0  0  0  0  0
   68.9395   47.0921   53.8019 C   0  0  0  0  0  0  0  0  0  0  0  0
 15 16  2  0
 16 17  1  0
 16 18  1  0
 17 14  1  0
 14  1  1  0
  1  2  2  0
  1  3  2  0
  1  4  1  0
  4  5  2  0
  4 13  1  0
  5  6  1  0
  6  7  2  0
  7  8  1  0
  7 12  1  0
  8  9  2  0
  9 10  1  0
 10 11  2  0
 11 12  1  0
 12 13  2  0
 18 19  2  0
 18 24  1  0
 19 20  1  0
 20 21  2  0
 21 22  1  0
 22 23  1  0
 22 24  2  0
M  END
>  <minimizedAffinity>  (864) 
-8.59977

$$$$
data/200k_reference_output/data/smiles/73698.pdb
     RDKit          3D

 25 27  0  0  0  0  0  0  0  0999 V2000
   68.7429   45.3975   56.0963 C   0  0  0  0  0  0  0  0  0  0  0  0
   68.0924   44.2799   55.6408 C   0  0  0  0  0  0  0  0  0  0  0  0
   68.3804   43.0100   56.1570 C   0  0  0  0  0  0  0  0  0  0  0  0
   69.3218   42.8053   57.1374 C   0  0  0  0  0  0  0  0  0  0  0  0
   69.9818   43.9255   57.6003 C   0  0  0  0  0  0  0  0  0  0  0  0
   69.7024   45.1718   57.0994 C   0  0  0  0  0  0  0  0  0  0  0  0
   69.6196   41.4764   57.6706 C   0  0  0  0  0  0  0  0  0  0  0  0
   70.8808   41.1294   58.1234 C   0  0  0  0  0  0  0  0  0  0  0  0
   71.1416   39.8687   58.6287 C   0  0  0  0  0  0  0  0  0  0  0  0
   70.1492   38.9148   58.6974 C   0  0  0  0  0  0  0  0  0  0  0  0
   70.5159   37.3199   59.3495 Cl  0  0  0  0  0  0  0  0  0  0  0  0
   68.8973   39.2493   58.2505 C   0  0  0  0  0  0  0  0  0  0  0  0
   67.9337   38.3105   58.3212 F   0  0  0  0  0  0  0  0  0  0  0  0
   68.6382   40.5262   57.7406 C   0  0  0  0  0  0  0  0  0  0  0  0
   67.6806   47.4577   56.3575 O   0  0  0  0  0  0  0  0  0  0  0  0
   68.4828   46.7545   55.6409 C   0  0  0  0  0  0  0  0  0  0  0  0
   69.0412   47.3780   54.4623 C   0  0  0  0  0  0  0  0  0  0  0  0
   68.5854   46.8952   53.2212 C   0  0  0  0  0  0  0  0  0  0  0  0
   69.0872   47.4082   52.0501 C   0  0  0  0  0  0  0  0  0  0  0  0
   68.6747   46.9709   50.9216 O   0  0  0  0  0  0  0  0  0  0  0  0
   70.0128   48.3696   52.0713 N   0  0  0  0  0  0  0  0  0  0  0  0
   70.5051   48.8725   50.8978 O   0  0  0  0  0  0  0  0  0  0  0  0
   70.4307   48.8123   53.2543 C   0  0  0  0  0  0  0  0  0  0  0  0
   71.3065   49.7226   53.2712 O   0  0  0  0  0  0  0  0  0  0  0  0
   69.9608   48.3313   54.4308 N   0  0  0  0  0  0  0  0  0  0  0  0
 15 16  2  0
 16  1  1  0
 16 17  1  0
  1  2  2  0
  1  6  1  0
  2  3  1  0
  3  4  2  0
  4  7  1  0
  4  5  1  0
  7  8  2  0
  7 14  1  0
  8  9  1  0
  9 10  2  0
 10 11  1  0
 10 12  1  0
 12 13  1  0
 12 14  2  0
  5  6  2  0
 17 18  2  0
 17 25  1  0
 18 19  1  0
 19 20  2  0
 19 21  1  0
 21 22  1  0
 21 23  1  0
 23 24  2  0
 23 25  1  0
M  END
>  <minimizedAffinity>  (865) 
-8.79376

$$$$
data/200k_reference_output/data/smiles/73827.pdb
     RDKit          3D

 25 27  0  0  0  0  0  0  0  0999 V2000
   69.8365   44.7370   57.1592 N   0  0  0  0  0  0  0  0  0  0  0  0
   68.8740   43.8785   56.8975 N   0  0  0  0  0  0  0  0  0  0  0  0
   68.9697   42.5375   57.1531 C   0  0  0  0  0  0  0  0  0  0  0  0
   70.0978   41.9952   57.7102 C   0  0  0  0  0  0  0  0  0  0  0  0
   70.2650   40.6572   57.9957 C   0  0  0  0  0  0  0  0  0  0  0  0
   71.4532   40.1709   58.5675 C   0  0  0  0  0  0  0  0  0  0  0  0
   72.4771   41.0474   58.8526 C   0  0  0  0  0  0  0  0  0  0  0  0
   72.2895   42.3771   58.5594 C   0  0  0  0  0  0  0  0  0  0  0  0
   71.1265   42.8750   57.9953 C   0  0  0  0  0  0  0  0  0  0  0  0
   70.9648   44.2019   57.7148 C   0  0  0  0  0  0  0  0  0  0  0  0
   71.9019   44.9948   57.9756 O   0  0  0  0  0  0  0  0  0  0  0  0
   67.8397   41.6853   56.8215 C   0  0  0  0  0  0  0  0  0  0  0  0
   67.6990   40.9561   55.8408 O   0  0  0  0  0  0  0  0  0  0  0  0
   66.7275   41.6552   57.7129 O   0  0  0  0  0  0  0  0  0  0  0  0
   69.6990   46.1455   56.9634 C   0  0  0  0  0  0  0  0  0  0  0  0
   67.7678   47.2958   56.6065 O   0  0  0  0  0  0  0  0  0  0  0  0
   68.7799   46.6672   55.9963 C   0  0  0  0  0  0  0  0  0  0  0  0
   68.6559   46.7038   54.5587 C   0  0  0  0  0  0  0  0  0  0  0  0
   69.1950   47.8031   53.8591 C   0  0  0  0  0  0  0  0  0  0  0  0
   69.1566   47.8967   52.5173 C   0  0  0  0  0  0  0  0  0  0  0  0
   69.6842   48.9687   51.8441 F   0  0  0  0  0  0  0  0  0  0  0  0
   68.5800   46.9080   51.7569 C   0  0  0  0  0  0  0  0  0  0  0  0
   68.0406   45.8214   52.3730 C   0  0  0  0  0  0  0  0  0  0  0  0
   68.0900   45.7432   53.7630 C   0  0  0  0  0  0  0  0  0  0  0  0
   67.5069   44.6459   54.2749 F   0  0  0  0  0  0  0  0  0  0  0  0
 16 17  2  0
 17 15  1  0
 17 18  1  0
 15  1  1  0
  1  2  1  0
  1 10  1  0
  2  3  2  0
  3 12  1  0
  3  4  1  0
 12 13  2  0
 12 14  1  0
  4  5  2  0
  4  9  1  0
  5  6  1  0
  6  7  2  0
  7  8  1  0
  8  9  2  0
  9 10  1  0
 10 11  2  0
 18 19  2  0
 18 24  1  0
 19 20  1  0
 20 21  1  0
 20 22  2  0
 22 23  1  0
 23 24  2  0
 24 25  1  0
M  END
>  <minimizedAffinity>  (866) 
-8.71207

$$$$
data/200k_reference_output/data/smiles/73906.pdb
     RDKit          3D

 27 29  0  0  0  0  0  0  0  0999 V2000
   68.0741   45.4708   54.4496 C   0  0  0  0  0  0  0  0  0  0  0  0
   68.1927   45.6504   53.0916 C   0  0  0  0  0  0  0  0  0  0  0  0
   68.7879   46.7744   52.5385 C   0  0  0  0  0  0  0  0  0  0  0  0
   69.2917   47.7708   53.3492 C   0  0  0  0  0  0  0  0  0  0  0  0
   69.1717   47.5899   54.7150 C   0  0  0  0  0  0  0  0  0  0  0  0
   68.5829   46.4779   55.2731 C   0  0  0  0  0  0  0  0  0  0  0  0
   67.4749   42.3306   56.5173 N   0  0  0  0  0  0  0  0  0  0  0  0
   68.0847   43.4729   55.9631 C   0  0  0  0  0  0  0  0  0  0  0  0
   69.2442   43.7825   56.3241 O   0  0  0  0  0  0  0  0  0  0  0  0
   67.4616   44.3158   55.0058 N   0  0  0  0  0  0  0  0  0  0  0  0
   68.0707   41.4430   57.4904 C   0  0  0  0  0  0  0  0  0  0  0  0
   67.9936   43.4983   62.8082 N   0  0  0  0  0  0  0  0  0  0  0  0
   67.9830   42.9732   61.4838 C   0  0  0  0  0  0  0  0  0  0  0  0
   66.8780   42.3351   60.9511 C   0  0  0  0  0  0  0  0  0  0  0  0
   66.8629   41.8261   59.6712 C   0  0  0  0  0  0  0  0  0  0  0  0
   67.9818   41.9524   58.8868 C   0  0  0  0  0  0  0  0  0  0  0  0
   69.0930   42.5936   59.4203 C   0  0  0  0  0  0  0  0  0  0  0  0
   69.0552   43.0700   60.6686 N   0  0  0  0  0  0  0  0  0  0  0  0
   70.0592   49.2216   52.7195 S   0  0  0  0  0  0  0  0  0  0  0  0
   69.6387   49.4785   51.3005 O   0  0  0  0  0  0  0  0  0  0  0  0
   71.5566   48.9930   52.7553 O   0  0  0  0  0  0  0  0  0  0  0  0
   69.7278   50.5838   53.7628 C   0  0  0  0  0  0  0  0  0  0  0  0
   68.4702   51.0581   54.0206 C   0  0  0  0  0  0  0  0  0  0  0  0
   68.2373   52.1519   54.8597 C   0  0  0  0  0  0  0  0  0  0  0  0
   69.3138   52.7728   55.4479 C   0  0  0  0  0  0  0  0  0  0  0  0
   70.5998   52.3224   55.2114 C   0  0  0  0  0  0  0  0  0  0  0  0
   70.7934   51.2403   54.3775 C   0  0  0  0  0  0  0  0  0  0  0  0
 12 13  1  0
 13 14  2  0
 13 18  1  0
 14 15  1  0
 15 16  2  0
 16 11  1  0
 16 17  1  0
 11  7  1  0
  7  8  1  0
  8  9  2  0
  8 10  1  0
 10  1  1  0
  1  2  2  0
  1  6  1  0
  2  3  1  0
  3  4  2  0
  4 19  1  0
  4  5  1  0
 19 20  2  0
 19 21  2  0
 19 22  1  0
 22 23  2  0
 22 27  1  0
 23 24  1  0
 24 25  2  0
 25 26  1  0
 26 27  2  0
  5  6  2  0
 17 18  2  0
M  END
>  <minimizedAffinity>  (867) 
-8.81794

$$$$
data/200k_reference_output/data/smiles/73930.pdb
     RDKit          3D

 26 28  0  0  0  0  0  0  0  0999 V2000
   69.0587   48.1958   55.4151 C   0  0  0  0  0  0  0  0  0  0  0  0
   69.9928   49.2056   55.1431 C   0  0  0  0  0  0  0  0  0  0  0  0
   70.5214   49.4512   53.9182 C   0  0  0  0  0  0  0  0  0  0  0  0
   70.1406   48.6826   52.8553 C   0  0  0  0  0  0  0  0  0  0  0  0
   70.6799   48.9349   51.6026 O   0  0  0  0  0  0  0  0  0  0  0  0
   69.2306   47.6771   53.0578 C   0  0  0  0  0  0  0  0  0  0  0  0
   68.8843   46.9039   51.9683 C   0  0  0  0  0  0  0  0  0  0  0  0
   67.9896   45.8683   52.1510 C   0  0  0  0  0  0  0  0  0  0  0  0
   67.4787   45.6465   53.4076 C   0  0  0  0  0  0  0  0  0  0  0  0
   67.8202   46.4149   54.4978 C   0  0  0  0  0  0  0  0  0  0  0  0
   68.7102   47.4502   54.3195 C   0  0  0  0  0  0  0  0  0  0  0  0
   68.4031   48.0887   57.0047 S   0  0  0  0  0  0  0  0  0  0  0  0
   69.0466   46.8854   57.6948 O   0  0  0  0  0  0  0  0  0  0  0  0
   66.9305   47.7075   56.9789 O   0  0  0  0  0  0  0  0  0  0  0  0
   68.6688   49.4449   58.0007 N   0  0  0  0  0  0  0  0  0  0  0  0
   71.1424   52.2037   57.6496 C   0  0  0  0  0  0  0  0  0  0  0  0
   70.3688   53.1789   57.0389 C   0  0  0  0  0  0  0  0  0  0  0  0
   69.0452   52.8864   56.7619 C   0  0  0  0  0  0  0  0  0  0  0  0
   68.4867   51.6854   57.0680 C   0  0  0  0  0  0  0  0  0  0  0  0
   69.2619   50.6909   57.6860 C   0  0  0  0  0  0  0  0  0  0  0  0
   70.5663   51.0045   57.9485 C   0  0  0  0  0  0  0  0  0  0  0  0
   73.6341   52.7520   58.1916 N   0  0  0  0  0  0  0  0  0  0  0  0
   72.5277   52.5044   57.9404 C   0  0  0  0  0  0  0  0  0  0  0  0
   71.5002   50.5275   53.6934 C   0  0  0  0  0  0  0  0  0  0  0  0
   72.7324   50.3138   53.8296 O   0  0  0  0  0  0  0  0  0  0  0  0
   70.9976   51.7680   53.3302 O   0  0  0  0  0  0  0  0  0  0  0  0
 22 23  3  0
 23 16  1  0
 16 17  2  0
 16 21  1  0
 17 18  1  0
 18 19  2  0
 19 20  1  0
 20 15  1  0
 20 21  2  0
 15 12  1  0
 12 13  2  0
 12 14  2  0
 12  1  1  0
  1  2  2  0
  1 11  1  0
  2  3  1  0
  3 24  1  0
  3  4  2  0
 24 25  2  0
 24 26  1  0
  4  5  1  0
  4  6  1  0
  6  7  1  0
  6 11  2  0
  7  8  2  0
  8  9  1  0
  9 10  2  0
 10 11  1  0
M  END
>  <minimizedAffinity>  (868) 
-8.89345

$$$$
data/200k_reference_output/data/smiles/73931.pdb
     RDKit          3D

 23 25  0  0  0  0  0  0  0  0999 V2000
   72.7688   50.5439   54.3169 N   0  0  0  0  0  0  0  0  0  0  0  0
   71.4161   50.5647   54.6994 C   0  0  0  0  0  0  0  0  0  0  0  0
   71.0813   51.2229   55.7378 O   0  0  0  0  0  0  0  0  0  0  0  0
   70.4093   49.8277   53.8945 C   0  0  2  0  0  0  0  0  0  0  0  0
   69.6463   48.8299   54.7337 C   0  0  0  0  0  0  0  0  0  0  0  0
   69.0469   47.7536   53.9042 C   0  0  0  0  0  0  0  0  0  0  0  0
   68.2624   46.8106   54.5145 C   0  0  0  0  0  0  0  0  0  0  0  0
   67.6620   45.7742   53.8331 C   0  0  0  0  0  0  0  0  0  0  0  0
   67.8576   45.6772   52.4688 C   0  0  0  0  0  0  0  0  0  0  0  0
   68.6563   46.6349   51.8334 C   0  0  0  0  0  0  0  0  0  0  0  0
   69.2333   47.6474   52.5521 C   0  0  0  0  0  0  0  0  0  0  0  0
   70.0732   48.6478   51.8664 C   0  0  0  0  0  0  0  0  0  0  0  0
   71.0670   49.1048   52.8293 N   0  0  0  0  0  0  0  0  0  0  0  0
   73.8129   51.2195   55.0407 C   0  0  0  0  0  0  0  0  0  0  0  0
   75.2717   49.5370   54.3748 O   0  0  0  0  0  0  0  0  0  0  0  0
   75.0270   50.4207   55.2675 C   0  0  0  0  0  0  0  0  0  0  0  0
   75.8732   50.6013   56.3862 N   0  0  0  0  0  0  0  0  0  0  0  0
   77.0531   49.7762   56.5348 C   0  0  0  0  0  0  0  0  0  0  0  0
   77.1030   49.0433   57.8347 C   0  0  0  0  0  0  0  0  0  0  0  0
   77.5898   49.8187   58.9975 C   0  0  0  0  0  0  0  0  0  0  0  0
   78.6027   50.8847   58.6461 C   0  0  0  0  0  0  0  0  0  0  0  0
   79.3080   50.3779   57.3807 C   0  0  0  0  0  0  0  0  0  0  0  0
   78.2747   50.6248   56.2722 C   0  0  0  0  0  0  0  0  0  0  0  0
 15 16  2  0
 16 14  1  0
 16 17  1  0
 14  1  1  0
  1  2  1  0
  2  3  2  0
  4  2  1  1
  4  5  1  0
  4 13  1  0
  5  6  1  0
  6  7  2  0
  6 11  1  0
  7  8  1  0
  8  9  2  0
  9 10  1  0
 10 11  2  0
 11 12  1  0
 12 13  1  0
 17 18  1  0
 18 19  1  0
 18 23  1  0
 19 20  1  0
 20 21  1  0
 21 22  1  0
 22 23  1  0
M  CHG  1  13   1
M  END
>  <minimizedAffinity>  (869) 
-8.96492

$$$$
data/200k_reference_output/data/smiles/74002.pdb
     RDKit          3D

 23 25  0  0  0  0  0  0  0  0999 V2000
   70.4291   49.9856   56.0180 C   0  0  0  0  0  0  0  0  0  0  0  0
   69.9979   49.1774   54.8522 C   0  0  0  0  0  0  0  0  0  0  0  0
   70.4234   49.4445   53.5779 C   0  0  0  0  0  0  0  0  0  0  0  0
   70.0298   48.7018   52.4958 C   0  0  0  0  0  0  0  0  0  0  0  0
   70.4147   48.9359   51.3114 O   0  0  0  0  0  0  0  0  0  0  0  0
   69.1668   47.6455   52.7235 C   0  0  0  0  0  0  0  0  0  0  0  0
   68.7381   46.8690   51.6525 C   0  0  0  0  0  0  0  0  0  0  0  0
   67.8752   45.8333   51.9292 C   0  0  0  0  0  0  0  0  0  0  0  0
   67.4415   45.5576   53.2039 C   0  0  0  0  0  0  0  0  0  0  0  0
   67.8708   46.3314   54.2581 C   0  0  0  0  0  0  0  0  0  0  0  0
   68.7405   47.3861   54.0330 C   0  0  0  0  0  0  0  0  0  0  0  0
   69.1443   48.1325   55.0803 N   0  0  0  0  0  0  0  0  0  0  0  0
   68.7559   47.9037   56.4376 C   0  0  0  0  0  0  0  0  0  0  0  0
   69.5995   46.7630   56.9603 C   0  0  0  0  0  0  0  0  0  0  0  0
   70.6831   46.9678   57.5335 O   0  0  0  0  0  0  0  0  0  0  0  0
   69.1613   45.4205   56.8024 N   0  0  0  0  0  0  0  0  0  0  0  0
   69.8847   44.2691   57.2585 C   0  0  0  0  0  0  0  0  0  0  0  0
   69.1625   42.9952   57.1042 C   0  0  0  0  0  0  0  0  0  0  0  0
   69.5891   41.8928   57.8477 C   0  0  0  0  0  0  0  0  0  0  0  0
   68.9602   40.6750   57.7388 C   0  0  0  0  0  0  0  0  0  0  0  0
   67.8943   40.5574   56.8774 C   0  0  0  0  0  0  0  0  0  0  0  0
   67.4386   41.6200   56.1232 C   0  0  0  0  0  0  0  0  0  0  0  0
   68.1010   42.8388   56.2605 C   0  0  0  0  0  0  0  0  0  0  0  0
  1  2  1  0
  2  3  2  0
  2 12  1  0
  3  4  1  0
  4  5  2  0
  4  6  1  0
  6  7  1  0
  6 11  2  0
  7  8  2  0
  8  9  1  0
  9 10  2  0
 10 11  1  0
 11 12  1  0
 12 13  1  0
 13 14  1  0
 14 15  2  0
 14 16  1  0
 16 17  1  0
 17 18  1  0
 18 19  2  0
 18 23  1  0
 19 20  1  0
 20 21  2  0
 21 22  1  0
 22 23  2  0
M  END
>  <minimizedAffinity>  (870) 
-8.67083

$$$$
data/200k_reference_output/data/smiles/74107.pdb
     RDKit          3D

 20 21  0  0  0  0  0  0  0  0999 V2000
   68.6181   45.9628   55.1200 N   0  0  0  0  0  0  0  0  0  0  0  0
   68.5676   46.4350   53.7909 C   0  0  0  0  0  0  0  0  0  0  0  0
   69.2739   47.5122   53.3318 C   0  0  0  0  0  0  0  0  0  0  0  0
   70.0508   48.2714   54.1052 F   0  0  0  0  0  0  0  0  0  0  0  0
   69.1947   47.8984   51.9903 C   0  0  0  0  0  0  0  0  0  0  0  0
   69.8946   48.9647   51.5293 F   0  0  0  0  0  0  0  0  0  0  0  0
   68.4295   47.2316   51.1209 N   0  0  0  0  0  0  0  0  0  0  0  0
   67.7205   46.1715   51.5265 C   0  0  0  0  0  0  0  0  0  0  0  0
   66.9561   45.5254   50.6040 F   0  0  0  0  0  0  0  0  0  0  0  0
   67.7859   45.7783   52.8391 C   0  0  0  0  0  0  0  0  0  0  0  0
   67.0530   44.7055   53.2104 F   0  0  0  0  0  0  0  0  0  0  0  0
   68.1056   46.5240   56.2597 N   0  0  0  0  0  0  0  0  0  0  0  0
   69.9454   47.2792   57.5326 C   0  0  0  0  0  0  0  0  0  0  0  0
   68.7723   47.5554   56.9606 C   0  0  0  0  0  0  0  0  0  0  0  0
   68.2097   48.8848   57.0860 C   0  0  0  0  0  0  0  0  0  0  0  0
   67.0137   49.0550   57.7300 C   0  0  0  0  0  0  0  0  0  0  0  0
   66.4518   50.3183   57.9056 C   0  0  0  0  0  0  0  0  0  0  0  0
   67.0800   51.4018   57.4403 N   0  0  0  0  0  0  0  0  0  0  0  0
   68.2493   51.3033   56.8025 C   0  0  0  0  0  0  0  0  0  0  0  0
   68.8216   50.0405   56.6213 C   0  0  0  0  0  0  0  0  0  0  0  0
 13 14  2  0
 14 12  1  0
 14 15  1  0
 12  1  1  0
  1  2  1  0
  2  3  2  0
  2 10  1  0
  3  4  1  0
  3  5  1  0
  5  6  1  0
  5  7  2  0
  7  8  1  0
  8  9  1  0
  8 10  2  0
 10 11  1  0
 15 16  2  0
 15 20  1  0
 16 17  1  0
 17 18  2  0
 18 19  1  0
 19 20  2  0
M  END
>  <minimizedAffinity>  (871) 
-8.51146

$$$$
data/200k_reference_output/data/smiles/74199.pdb
     RDKit          3D

 25 27  0  0  0  0  0  0  0  0999 V2000
   71.9206   51.5625   54.5647 C   0  0  0  0  0  0  0  0  0  0  0  0
   73.9423   50.8377   53.4500 O   0  0  0  0  0  0  0  0  0  0  0  0
   73.3700   51.2795   54.4929 C   0  0  0  0  0  0  0  0  0  0  0  0
   74.2073   51.4937   55.6124 N   0  0  0  0  0  0  0  0  0  0  0  0
   75.5751   51.2306   55.5574 N   0  0  0  0  0  0  0  0  0  0  0  0
   76.1651   50.3199   56.2263 C   0  0  0  0  0  0  0  0  0  0  0  0
   77.6126   50.0686   56.1444 C   0  0  0  0  0  0  0  0  0  0  0  0
   78.1156   49.0819   55.3227 C   0  0  0  0  0  0  0  0  0  0  0  0
   79.4662   48.8226   55.2246 C   0  0  0  0  0  0  0  0  0  0  0  0
   80.3777   49.5550   55.9579 C   0  0  0  0  0  0  0  0  0  0  0  0
   82.1060   49.2735   55.8758 Cl  0  0  0  0  0  0  0  0  0  0  0  0
   79.8722   50.5471   56.7832 C   0  0  0  0  0  0  0  0  0  0  0  0
   78.5169   50.7988   56.8735 C   0  0  0  0  0  0  0  0  0  0  0  0
   71.1874   50.4593   55.3184 C   0  0  0  0  0  0  0  0  0  0  0  0
   70.5281   49.5158   54.4109 C   0  0  0  0  0  0  0  0  0  0  0  0
   69.6675   48.5515   54.8333 N   0  0  0  0  0  0  0  0  0  0  0  0
   69.0771   47.7006   53.9805 C   0  0  0  0  0  0  0  0  0  0  0  0
   68.2003   46.7167   54.4071 C   0  0  0  0  0  0  0  0  0  0  0  0
   67.5988   45.8475   53.5191 C   0  0  0  0  0  0  0  0  0  0  0  0
   67.8602   45.9396   52.1753 C   0  0  0  0  0  0  0  0  0  0  0  0
   68.7263   46.9057   51.7237 C   0  0  0  0  0  0  0  0  0  0  0  0
   69.3235   47.7739   52.6296 C   0  0  0  0  0  0  0  0  0  0  0  0
   70.2006   48.7575   52.2050 C   0  0  0  0  0  0  0  0  0  0  0  0
   70.4259   48.8271   50.9818 O   0  0  0  0  0  0  0  0  0  0  0  0
   70.7660   49.5869   53.1102 N   0  0  0  0  0  0  0  0  0  0  0  0
  2  3  2  0
  3  1  1  0
  3  4  1  0
  1 14  1  0
 14 15  1  0
 15 16  2  0
 15 25  1  0
 16 17  1  0
 17 18  2  0
 17 22  1  0
 18 19  1  0
 19 20  2  0
 20 21  1  0
 21 22  2  0
 22 23  1  0
 23 24  2  0
 23 25  1  0
  4  5  1  0
  5  6  2  0
  6  7  1  0
  7  8  2  0
  7 13  1  0
  8  9  1  0
  9 10  2  0
 10 11  1  0
 10 12  1  0
 12 13  2  0
M  END
>  <minimizedAffinity>  (872) 
-9.15327

$$$$
data/200k_reference_output/data/smiles/74269.pdb
     RDKit          3D

 26 28  0  0  0  0  0  0  0  0999 V2000
   70.2549   48.6306   51.3667 C   0  0  0  0  0  0  0  0  0  0  0  0
   69.5786   48.3319   52.6533 C   0  0  0  0  0  0  0  0  0  0  0  0
   69.1091   47.0894   52.9001 N   0  0  0  0  0  0  0  0  0  0  0  0
   68.4874   46.7628   54.0476 C   0  0  0  0  0  0  0  0  0  0  0  0
   68.3496   47.7692   54.9736 C   0  0  0  0  0  0  0  0  0  0  0  0
   68.8133   49.0548   54.7651 C   0  0  0  0  0  0  0  0  0  0  0  0
   69.4427   49.3426   53.5766 C   0  0  0  0  0  0  0  0  0  0  0  0
   69.8008   50.6615   53.6195 N   0  0  0  0  0  0  0  0  0  0  0  0
   69.4202   51.2070   54.7856 C   0  0  0  0  0  0  0  0  0  0  0  0
   69.5469   52.4852   55.3047 C   0  0  0  0  0  0  0  0  0  0  0  0
   69.0606   52.8078   56.5622 C   0  0  0  0  0  0  0  0  0  0  0  0
   68.4380   51.8076   57.2947 C   0  0  0  0  0  0  0  0  0  0  0  0
   68.3222   50.5435   56.7592 C   0  0  0  0  0  0  0  0  0  0  0  0
   68.8010   50.2142   55.5143 C   0  0  0  0  0  0  0  0  0  0  0  0
   67.9883   45.4023   54.2856 C   0  0  0  0  0  0  0  0  0  0  0  0
   67.4036   44.7817   53.3637 O   0  0  0  0  0  0  0  0  0  0  0  0
   68.1289   44.7302   55.5216 N   0  0  0  0  0  0  0  0  0  0  0  0
   67.6561   43.4301   55.7607 N   0  0  0  0  0  0  0  0  0  0  0  0
   68.3445   42.5985   56.6879 C   0  0  0  0  0  0  0  0  0  0  0  0
   69.3591   43.0944   57.2505 O   0  0  0  0  0  0  0  0  0  0  0  0
   67.9238   41.2102   57.0085 C   0  0  1  0  0  0  0  0  0  0  0  0
   67.8469   40.3872   55.8276 N   0  0  0  0  0  0  0  0  0  0  0  0
   68.8034   40.5933   58.0745 C   0  0  0  0  0  0  0  0  0  0  0  0
   68.6041   39.1279   58.2173 C   0  0  0  0  0  0  0  0  0  0  0  0
   67.4602   38.7548   59.1190 C   0  0  0  0  0  0  0  0  0  0  0  0
   69.9116   38.5109   58.6650 C   0  0  0  0  0  0  0  0  0  0  0  0
  1  2  1  0
  2  3  2  0
  2  7  1  0
  3  4  1  0
  4 15  1  0
  4  5  2  0
 15 16  2  0
 15 17  1  0
 17 18  1  0
 18 19  1  0
 19 20  2  0
 19 21  1  0
 21 22  1  6
 21 23  1  0
 23 24  1  0
 24 25  1  0
 24 26  1  0
  5  6  1  0
  6  7  2  0
  6 14  1  0
  7  8  1  0
  8  9  1  0
  9 10  1  0
  9 14  2  0
 10 11  2  0
 11 12  1  0
 12 13  2  0
 13 14  1  0
M  CHG  1  22   1
M  END
>  <minimizedAffinity>  (873) 
-8.59742

$$$$
data/200k_reference_output/data/smiles/74373.pdb
     RDKit          3D

 31 36  0  0  0  0  0  0  0  0999 V2000
   72.5316   43.3155   60.9968 C   0  0  0  0  0  0  0  0  0  0  0  0
   72.2606   44.6743   60.6409 N   0  0  0  0  0  0  0  0  0  0  0  0
   71.4008   44.8811   59.5791 C   0  0  0  0  0  0  0  0  0  0  0  0
   71.1161   46.1094   59.0561 C   0  0  0  0  0  0  0  0  0  0  0  0
   70.2326   46.2208   57.9818 C   0  0  0  0  0  0  0  0  0  0  0  0
   69.6473   45.0811   57.4466 O   0  0  0  0  0  0  0  0  0  0  0  0
   69.9208   47.4364   57.4304 C   0  0  0  0  0  0  0  0  0  0  0  0
   70.5147   48.5429   57.9799 C   0  0  0  0  0  0  0  0  0  0  0  0
   71.4119   48.4414   59.0697 C   0  0  0  0  0  0  0  0  0  0  0  0
   71.7094   47.2098   59.6064 C   0  0  0  0  0  0  0  0  0  0  0  0
   72.5738   47.0581   60.6697 C   0  0  0  0  0  0  0  0  0  0  0  0
   73.1808   48.1652   61.2124 C   0  0  0  0  0  0  0  0  0  0  0  0
   74.0431   48.0366   62.2513 C   0  0  0  0  0  0  0  0  0  0  0  0
   74.3162   46.7962   62.7770 C   0  0  0  0  0  0  0  0  0  0  0  0
   75.1642   46.6798   63.8536 C   0  0  0  0  0  0  0  0  0  0  0  0
   75.4165   45.4503   64.4118 C   0  0  0  0  0  0  0  0  0  0  0  0
   74.8250   44.3319   63.9020 C   0  0  0  0  0  0  0  0  0  0  0  0
   73.9541   44.4350   62.7977 C   0  0  0  0  0  0  0  0  0  0  0  0
   73.7066   45.6450   62.2397 C   0  0  0  0  0  0  0  0  0  0  0  0
   72.8229   45.7577   61.1647 C   0  0  0  0  0  0  0  0  0  0  0  0
   75.2708   43.2685   64.6706 O   0  0  0  0  0  0  0  0  0  0  0  0
   76.4306   43.6743   65.3792 C   0  0  0  0  0  0  0  0  0  0  0  0
   76.2246   45.0678   65.4897 O   0  0  0  0  0  0  0  0  0  0  0  0
   69.0474   47.5790   56.3627 O   0  0  0  0  0  0  0  0  0  0  0  0
   69.4137   48.2380   55.1683 C   0  0  0  0  0  0  0  0  0  0  0  0
   68.9581   47.5156   53.9713 C   0  0  0  0  0  0  0  0  0  0  0  0
   69.4136   47.8771   52.7270 C   0  0  0  0  0  0  0  0  0  0  0  0
   68.9590   47.1706   51.6355 C   0  0  0  0  0  0  0  0  0  0  0  0
   68.0695   46.1244   51.7575 C   0  0  0  0  0  0  0  0  0  0  0  0
   67.6348   45.7933   53.0294 C   0  0  0  0  0  0  0  0  0  0  0  0
   68.0733   46.4809   54.1296 C   0  0  0  0  0  0  0  0  0  0  0  0
  1  2  1  0
  2  3  2  0
  2 20  1  0
  3  4  1  0
  4  5  2  0
  4 10  1  0
  5  6  1  0
  5  7  1  0
  7 24  1  0
  7  8  2  0
 24 25  1  0
 25 26  1  0
 26 27  2  0
 26 31  1  0
 27 28  1  0
 28 29  2  0
 29 30  1  0
 30 31  2  0
  8  9  1  0
  9 10  2  0
 10 11  1  0
 11 12  1  0
 11 20  2  0
 12 13  2  0
 13 14  1  0
 14 15  1  0
 14 19  2  0
 15 16  2  0
 16 17  1  0
 16 23  1  0
 17 18  2  0
 17 21  1  0
 18 19  1  0
 19 20  1  0
 21 22  1  0
 22 23  1  0
M  CHG  1   2   1
M  END
>  <minimizedAffinity>  (874) 
-8.57680

$$$$
data/200k_reference_output/data/smiles/74382.pdb
     RDKit          3D

 23 26  0  0  0  0  0  0  0  0999 V2000
   72.5071   52.0799   54.1497 N   0  0  0  0  0  0  0  0  0  0  0  0
   71.5899   51.0212   54.3754 C   0  0  0  0  0  0  0  0  0  0  0  0
   71.1612   50.7179   55.6109 N   0  0  0  0  0  0  0  0  0  0  0  0
   70.2779   49.6950   55.8072 C   0  0  0  0  0  0  0  0  0  0  0  0
   69.7799   48.9321   54.7969 C   0  0  0  0  0  0  0  0  0  0  0  0
   68.9058   47.9021   55.0313 C   0  0  0  0  0  0  0  0  0  0  0  0
   68.4974   47.1885   53.9162 C   0  0  0  0  0  0  0  0  0  0  0  0
   67.6494   46.1373   54.0447 C   0  0  0  0  0  0  0  0  0  0  0  0
   67.2340   45.3983   52.9774 N   0  0  0  0  0  0  0  0  0  0  0  0
   67.6540   45.6854   51.7321 C   0  0  0  0  0  0  0  0  0  0  0  0
   68.5168   46.7495   51.5746 C   0  0  0  0  0  0  0  0  0  0  0  0
   68.9496   47.5086   52.6335 C   0  0  0  0  0  0  0  0  0  0  0  0
   69.8213   48.5494   52.4441 C   0  0  0  0  0  0  0  0  0  0  0  0
   70.2742   48.8687   51.1386 N   0  0  0  0  0  0  0  0  0  0  0  0
   70.2451   49.2713   53.5236 C   0  0  0  0  0  0  0  0  0  0  0  0
   71.1116   50.2756   53.3381 N   0  0  0  0  0  0  0  0  0  0  0  0
   68.4235   47.5878   56.3376 C   0  0  0  0  0  0  0  0  0  0  0  0
   69.4127   46.6715   57.0300 C   0  0  0  0  0  0  0  0  0  0  0  0
   69.4498   45.3144   56.7907 C   0  0  0  0  0  0  0  0  0  0  0  0
   70.3625   44.5312   57.4262 C   0  0  0  0  0  0  0  0  0  0  0  0
   71.2728   45.0513   58.3202 C   0  0  0  0  0  0  0  0  0  0  0  0
   71.2538   46.3993   58.5747 C   0  0  0  0  0  0  0  0  0  0  0  0
   70.3227   47.1848   57.9245 C   0  0  0  0  0  0  0  0  0  0  0  0
  1  2  1  0
  2  3  2  0
  2 16  1  0
  3  4  1  0
  4  5  2  0
  5  6  1  0
  5 15  1  0
  6 17  1  0
  6  7  2  0
 17 18  1  0
 18 19  2  0
 18 23  1  0
 19 20  1  0
 20 21  2  0
 21 22  1  0
 22 23  2  0
  7  8  1  0
  7 12  1  0
  8  9  2  0
  9 10  1  0
 10 11  2  0
 11 12  1  0
 12 13  2  0
 13 14  1  0
 13 15  1  0
 15 16  2  0
M  END
>  <minimizedAffinity>  (875) 
-8.51904

$$$$
data/200k_reference_output/data/smiles/74570.pdb
     RDKit          3D

 25 26  0  0  0  0  0  0  0  0999 V2000
   68.2086   43.6164   55.9018 C   0  0  0  0  0  0  0  0  0  0  0  0
   69.2462   44.0693   56.4432 O   0  0  0  0  0  0  0  0  0  0  0  0
   67.6413   44.4132   54.9092 N   0  0  0  0  0  0  0  0  0  0  0  0
   68.1879   45.6865   54.5043 C   0  0  0  0  0  0  0  0  0  0  0  0
   68.5420   46.6578   55.4137 C   0  0  0  0  0  0  0  0  0  0  0  0
   69.0654   47.8762   55.0291 C   0  0  0  0  0  0  0  0  0  0  0  0
   69.2600   48.1830   53.6996 C   0  0  0  0  0  0  0  0  0  0  0  0
   68.9084   47.2199   52.7807 C   0  0  0  0  0  0  0  0  0  0  0  0
   68.3821   45.9941   53.1760 C   0  0  0  0  0  0  0  0  0  0  0  0
   69.9228   49.7233   53.1820 S   0  0  0  0  0  0  0  0  0  0  0  0
   71.5547   49.8636   53.7178 N   0  0  0  0  0  0  0  0  0  0  0  0
   69.8366   49.8858   51.6958 O   0  0  0  0  0  0  0  0  0  0  0  0
   69.1629   50.8719   53.7953 O   0  0  0  0  0  0  0  0  0  0  0  0
   67.7086   42.2939   56.3759 C   0  0  0  0  0  0  0  0  0  0  0  0
   67.9867   41.9475   57.6172 C   0  0  0  0  0  0  0  0  0  0  0  0
   67.6453   40.7706   58.3437 C   0  0  0  0  0  0  0  0  0  0  0  0
   68.4980   39.6613   58.2468 C   0  0  0  0  0  0  0  0  0  0  0  0
   68.3033   38.5112   58.9786 C   0  0  0  0  0  0  0  0  0  0  0  0
   67.2423   38.4173   59.8435 C   0  0  0  0  0  0  0  0  0  0  0  0
   67.0423   36.9318   60.7489 Cl  0  0  0  0  0  0  0  0  0  0  0  0
   66.3844   39.4721   59.9702 C   0  0  0  0  0  0  0  0  0  0  0  0
   66.6042   40.5990   59.2317 C   0  0  0  0  0  0  0  0  0  0  0  0
   65.6357   41.6671   54.9741 C   0  0  0  0  0  0  0  0  0  0  0  0
   66.9657   41.4278   55.5355 C   0  0  0  0  0  0  0  0  0  0  0  0
   67.4786   40.2986   55.2128 O   0  0  0  0  0  0  0  0  0  0  0  0
 23 24  1  0
 24 25  2  0
 24 14  1  0
 14 15  2  0
 14  1  1  0
 15 16  1  0
 16 17  2  0
 16 22  1  0
 17 18  1  0
 18 19  2  0
 19 20  1  0
 19 21  1  0
 21 22  2  0
  1  2  2  0
  1  3  1  0
  3  4  1  0
  4  5  2  0
  4  9  1  0
  5  6  1  0
  6  7  2  0
  7 10  1  0
  7  8  1  0
 10 11  1  0
 10 12  2  0
 10 13  2  0
  8  9  2  0
M  END
>  <minimizedAffinity>  (876) 
-8.68247

$$$$
data/200k_reference_output/data/smiles/74706.pdb
     RDKit          3D

 25 27  0  0  0  0  0  0  0  0999 V2000
   68.3071   42.9573   56.3856 C   0  0  0  0  0  0  0  0  0  0  0  0
   68.7828   41.9979   57.2520 C   0  0  0  0  0  0  0  0  0  0  0  0
   68.3737   40.6922   57.2194 C   0  0  0  0  0  0  0  0  0  0  0  0
   67.4505   40.3844   56.2614 N   0  0  0  0  0  0  0  0  0  0  0  0
   66.9642   41.2941   55.3981 C   0  0  0  0  0  0  0  0  0  0  0  0
   66.0024   40.9319   54.4136 N   0  0  0  0  0  0  0  0  0  0  0  0
   67.4050   42.5884   55.4716 N   0  0  0  0  0  0  0  0  0  0  0  0
   68.8399   39.6470   58.1048 C   0  0  0  0  0  0  0  0  0  0  0  0
   70.1819   39.4110   58.2491 C   0  0  0  0  0  0  0  0  0  0  0  0
   70.6058   38.3934   59.1137 C   0  0  0  0  0  0  0  0  0  0  0  0
   69.6981   37.6342   59.8131 C   0  0  0  0  0  0  0  0  0  0  0  0
   68.3629   37.8667   59.6705 C   0  0  0  0  0  0  0  0  0  0  0  0
   67.4876   37.1065   60.3707 F   0  0  0  0  0  0  0  0  0  0  0  0
   67.9498   38.8732   58.8158 C   0  0  0  0  0  0  0  0  0  0  0  0
   68.1975   45.3559   55.6642 N   0  0  0  0  0  0  0  0  0  0  0  0
   68.7816   44.3590   56.4593 C   0  0  0  0  0  0  0  0  0  0  0  0
   69.7094   44.6687   57.2322 O   0  0  0  0  0  0  0  0  0  0  0  0
   68.4780   46.7494   55.5635 C   0  0  0  0  0  0  0  0  0  0  0  0
   67.7190   45.6468   52.8155 C   0  0  0  0  0  0  0  0  0  0  0  0
   68.6571   46.7754   53.0257 C   0  0  0  0  0  0  0  0  0  0  0  0
   69.1886   47.3214   51.8521 C   0  0  0  0  0  0  0  0  0  0  0  0
   70.0129   48.4216   51.9239 C   0  0  0  0  0  0  0  0  0  0  0  0
   70.2617   48.9190   53.1835 C   0  0  0  0  0  0  0  0  0  0  0  0
   69.7417   48.3747   54.2852 N   0  0  0  0  0  0  0  0  0  0  0  0
   68.9140   47.2767   54.2689 C   0  0  0  0  0  0  0  0  0  0  0  0
 19 20  1  0
 20 21  2  0
 20 25  1  0
 21 22  1  0
 22 23  2  0
 23 24  1  0
 24 25  2  0
 25 18  1  0
 18 15  1  0
 15 16  1  0
 16 17  2  0
 16  1  1  0
  1  2  2  0
  1  7  1  0
  2  3  1  0
  3  8  1  0
  3  4  2  0
  8  9  2  0
  8 14  1  0
  9 10  1  0
 10 11  2  0
 11 12  1  0
 12 13  1  0
 12 14  2  0
  4  5  1  0
  5  6  1  0
  5  7  2  0
M  END
>  <minimizedAffinity>  (877) 
-8.76106

$$$$
data/200k_reference_output/data/smiles/74784.pdb
     RDKit          3D

 25 28  0  0  0  0  0  0  0  0999 V2000
   72.9627   51.2185   54.7903 C   0  0  0  0  0  0  0  0  0  0  0  0
   71.8223   50.4983   55.0785 C   0  0  0  0  0  0  0  0  0  0  0  0
   70.7777   50.9599   54.3070 C   0  0  0  0  0  0  0  0  0  0  0  0
   71.3007   51.9495   53.5683 N   0  0  0  0  0  0  0  0  0  0  0  0
   72.5794   52.1148   53.8376 N   0  0  0  0  0  0  0  0  0  0  0  0
   75.0577   52.0354   55.4197 O   0  0  0  0  0  0  0  0  0  0  0  0
   74.2886   51.0600   55.3743 C   0  0  0  0  0  0  0  0  0  0  0  0
   74.6884   49.7957   55.8849 N   0  0  0  0  0  0  0  0  0  0  0  0
   75.9825   49.5566   56.4770 C   0  0  0  0  0  0  0  0  0  0  0  0
   77.1244   50.1190   55.6632 C   0  0  2  0  0  0  0  0  0  0  0  0
   78.1166   49.0864   55.2582 C   0  0  0  0  0  0  0  0  0  0  0  0
   79.5475   49.4118   55.5978 C   0  0  0  0  0  0  0  0  0  0  0  0
   79.7007   49.9451   57.0014 C   0  0  0  0  0  0  0  0  0  0  0  0
   78.4905   50.7450   57.4339 C   0  0  0  0  0  0  0  0  0  0  0  0
   77.7083   51.1352   56.3710 O   0  0  0  0  0  0  0  0  0  0  0  0
   69.3566   50.4610   54.2979 C   0  0  0  0  0  0  0  0  0  0  0  0
   69.3162   49.3817   53.3088 N   0  0  0  0  0  0  0  0  0  0  0  0
   69.7229   49.4273   52.0354 C   0  0  0  0  0  0  0  0  0  0  0  0
   69.5365   48.2512   51.4208 N   0  0  0  0  0  0  0  0  0  0  0  0
   68.9899   47.3988   52.3101 C   0  0  0  0  0  0  0  0  0  0  0  0
   68.6014   46.0790   52.2018 C   0  0  0  0  0  0  0  0  0  0  0  0
   68.0592   45.4394   53.3004 C   0  0  0  0  0  0  0  0  0  0  0  0
   67.9208   46.1440   54.4789 C   0  0  0  0  0  0  0  0  0  0  0  0
   68.3204   47.4792   54.5690 C   0  0  0  0  0  0  0  0  0  0  0  0
   68.8568   48.1149   53.4860 C   0  0  0  0  0  0  0  0  0  0  0  0
  6  7  2  0
  7  8  1  0
  7  1  1  0
  8  9  1  0
 10  9  1  1
 10 11  1  0
 10 15  1  0
 11 12  1  0
 12 13  1  0
 13 14  1  0
 14 15  1  0
  1  2  1  0
  1  5  2  0
  2  3  2  0
  3 16  1  0
  3  4  1  0
 16 17  1  0
 17 18  1  0
 17 25  1  0
 18 19  2  0
 19 20  1  0
 20 21  1  0
 20 25  2  0
 21 22  2  0
 22 23  1  0
 23 24  2  0
 24 25  1  0
  4  5  1  0
M  END
>  <minimizedAffinity>  (878) 
-8.53078

$$$$
data/200k_reference_output/data/smiles/74793.pdb
     RDKit          3D

 23 24  0  0  0  0  0  0  0  0999 V2000
   69.1400   45.5313   56.5483 C   0  0  0  0  0  0  0  0  0  0  0  0
   68.9467   44.3804   56.6781 N   0  0  0  0  0  0  0  0  0  0  0  0
   68.7483   43.0776   56.8357 C   0  0  0  0  0  0  0  0  0  0  0  0
   69.4782   42.2595   57.7175 C   0  0  0  0  0  0  0  0  0  0  0  0
   69.2815   40.9353   57.9175 C   0  0  0  0  0  0  0  0  0  0  0  0
   68.2693   40.3246   57.1876 C   0  0  0  0  0  0  0  0  0  0  0  0
   68.0554   39.0150   57.3639 F   0  0  0  0  0  0  0  0  0  0  0  0
   67.5149   41.0611   56.3069 C   0  0  0  0  0  0  0  0  0  0  0  0
   67.7396   42.3915   56.1288 C   0  0  0  0  0  0  0  0  0  0  0  0
   66.9506   43.0455   55.2212 F   0  0  0  0  0  0  0  0  0  0  0  0
   71.8139   47.0158   58.8220 C   0  0  0  0  0  0  0  0  0  0  0  0
   70.6501   46.2202   58.3571 C   0  0  0  0  0  0  0  0  0  0  0  0
   70.0168   45.5073   59.1421 O   0  0  0  0  0  0  0  0  0  0  0  0
   70.2844   46.2972   57.0018 N   0  0  0  0  0  0  0  0  0  0  0  0
   68.1508   46.3534   55.8602 N   0  0  0  0  0  0  0  0  0  0  0  0
   68.2305   46.4129   54.4531 C   0  0  0  0  0  0  0  0  0  0  0  0
   67.5722   45.6172   53.6180 N   0  0  0  0  0  0  0  0  0  0  0  0
   67.7426   45.8162   52.2898 C   0  0  0  0  0  0  0  0  0  0  0  0
   67.0510   44.9845   51.2621 C   0  0  0  0  0  0  0  0  0  0  0  0
   68.5709   46.8073   51.8041 C   0  0  0  0  0  0  0  0  0  0  0  0
   69.2509   47.6279   52.6866 C   0  0  0  0  0  0  0  0  0  0  0  0
   70.1453   48.7172   52.2265 C   0  0  0  0  0  0  0  0  0  0  0  0
   69.0523   47.3956   53.9787 N   0  0  0  0  0  0  0  0  0  0  0  0
 11 12  1  0
 12 13  2  0
 12 14  1  0
 14  1  1  0
  1  2  2  3
  1 15  1  0
  2  3  1  0
  3  4  2  0
  3  9  1  0
  4  5  1  0
  5  6  2  0
  6  7  1  0
  6  8  1  0
  8  9  2  0
  9 10  1  0
 15 16  1  0
 16 17  2  0
 16 23  1  0
 17 18  1  0
 18 19  1  0
 18 20  2  0
 20 21  1  0
 21 22  1  0
 21 23  2  0
M  CHG  1   2   1
M  END
>  <minimizedAffinity>  (879) 
-8.68230

$$$$
data/200k_reference_output/data/smiles/74795.pdb
     RDKit          3D

 29 31  0  0  0  0  0  0  0  0999 V2000
   68.4213   45.9881   54.2183 C   0  0  0  0  0  0  0  0  0  0  0  0
   67.7891   45.4949   53.0958 C   0  0  0  0  0  0  0  0  0  0  0  0
   67.8398   46.1668   51.8702 C   0  0  0  0  0  0  0  0  0  0  0  0
   68.5377   47.3520   51.7750 C   0  0  0  0  0  0  0  0  0  0  0  0
   69.1793   47.8707   52.8782 C   0  0  0  0  0  0  0  0  0  0  0  0
   69.1049   47.1685   54.0890 C   0  0  0  0  0  0  0  0  0  0  0  0
   68.0470   43.8654   55.5810 N   0  0  0  0  0  0  0  0  0  0  0  0
   68.3332   45.2459   55.4682 C   0  0  0  0  0  0  0  0  0  0  0  0
   68.5203   45.8507   56.5630 O   0  0  0  0  0  0  0  0  0  0  0  0
   66.7580   41.5194   55.5672 C   0  0  0  0  0  0  0  0  0  0  0  0
   67.3527   42.0516   56.8186 C   0  0  0  0  0  0  0  0  0  0  0  0
   67.9693   43.1846   56.7996 N   0  0  0  0  0  0  0  0  0  0  0  0
   67.2191   41.2682   58.0384 C   0  0  0  0  0  0  0  0  0  0  0  0
   66.3986   41.6834   59.0631 C   0  0  0  0  0  0  0  0  0  0  0  0
   66.2616   40.9452   60.2338 C   0  0  0  0  0  0  0  0  0  0  0  0
   66.9521   39.7565   60.4094 C   0  0  0  0  0  0  0  0  0  0  0  0
   67.7741   39.3388   59.3842 C   0  0  0  0  0  0  0  0  0  0  0  0
   68.6549   37.8422   59.5844 Cl  0  0  0  0  0  0  0  0  0  0  0  0
   67.9060   40.0749   58.2256 C   0  0  0  0  0  0  0  0  0  0  0  0
   68.7138   39.6807   57.1999 F   0  0  0  0  0  0  0  0  0  0  0  0
   70.0796   49.3676   52.8242 S   0  0  0  0  0  0  0  0  0  0  0  0
   71.5512   48.9893   52.7297 O   0  0  0  0  0  0  0  0  0  0  0  0
   69.7469   50.0539   51.5322 O   0  0  0  0  0  0  0  0  0  0  0  0
   69.8592   50.3647   54.1451 N   0  0  0  0  0  0  0  0  0  0  0  0
   68.7853   51.2557   54.1256 C   0  0  0  0  0  0  0  0  0  0  0  0
   68.9461   52.5044   54.9349 C   0  0  0  0  0  0  0  0  0  0  0  0
   69.6712   52.2778   56.1201 O   0  0  0  0  0  0  0  0  0  0  0  0
   70.9590   51.9066   55.6924 C   0  0  0  0  0  0  0  0  0  0  0  0
   70.9235   50.5627   55.0246 C   0  0  0  0  0  0  0  0  0  0  0  0
 10 11  1  0
 11 12  2  0
 11 13  1  0
 12  7  1  0
  7  8  1  0
  8  9  2  0
  8  1  1  0
  1  2  2  0
  1  6  1  0
  2  3  1  0
  3  4  2  0
  4  5  1  0
  5 21  1  0
  5  6  2  0
 21 22  2  0
 21 23  2  0
 21 24  1  0
 24 25  1  0
 24 29  1  0
 25 26  1  0
 26 27  1  0
 27 28  1  0
 28 29  1  0
 13 14  2  0
 13 19  1  0
 14 15  1  0
 15 16  2  0
 16 17  1  0
 17 18  1  0
 17 19  2  0
 19 20  1  0
M  END
>  <minimizedAffinity>  (880) 
-8.92995

$$$$
data/200k_reference_output/data/smiles/74802.pdb
     RDKit          3D

 26 29  0  0  0  0  0  0  0  0999 V2000
   70.4604   45.4308   57.8908 C   0  0  0  0  0  0  0  0  0  0  0  0
   69.7357   46.3397   57.1102 C   0  0  0  0  0  0  0  0  0  0  0  0
   69.8660   47.7005   57.2040 C   0  0  0  0  0  0  0  0  0  0  0  0
   70.7685   48.2160   58.1255 C   0  0  0  0  0  0  0  0  0  0  0  0
   71.4934   47.3593   58.9047 C   0  0  0  0  0  0  0  0  0  0  0  0
   71.3441   45.9667   58.7921 C   0  0  0  0  0  0  0  0  0  0  0  0
   72.0695   45.1589   59.5756 F   0  0  0  0  0  0  0  0  0  0  0  0
   71.2141   43.2113   57.6823 O   0  0  0  0  0  0  0  0  0  0  0  0
   70.2181   44.0182   57.6710 C   0  0  0  0  0  0  0  0  0  0  0  0
   68.9767   43.4031   57.4388 N   0  0  0  0  0  0  0  0  0  0  0  0
   68.8522   41.9506   57.2254 C   0  0  0  0  0  0  0  0  0  0  0  0
   68.1771   41.3455   58.4413 C   0  0  0  0  0  0  0  0  0  0  0  0
   66.8513   41.5996   57.7428 C   0  0  0  0  0  0  0  0  0  0  0  0
   67.6399   41.5999   56.4343 C   0  0  0  0  0  0  0  0  0  0  0  0
   69.1146   48.6853   56.3805 C   0  0  0  0  0  0  0  0  0  0  0  0
   69.4744   48.6671   54.9539 C   0  0  0  0  0  0  0  0  0  0  0  0
   70.4233   49.5052   54.4415 N   0  0  0  0  0  0  0  0  0  0  0  0
   70.7840   49.4927   53.1749 N   0  0  0  0  0  0  0  0  0  0  0  0
   70.2115   48.6178   52.3003 C   0  0  0  0  0  0  0  0  0  0  0  0
   70.5723   48.6225   51.0940 O   0  0  0  0  0  0  0  0  0  0  0  0
   69.2438   47.7350   52.7293 C   0  0  0  0  0  0  0  0  0  0  0  0
   68.9033   47.7908   54.0612 C   0  0  0  0  0  0  0  0  0  0  0  0
   67.8708   46.8792   54.4808 N   0  0  0  0  0  0  0  0  0  0  0  0
   67.7543   45.6357   53.7928 C   0  0  0  0  0  0  0  0  0  0  0  0
   67.8094   45.7275   52.3061 C   0  0  0  0  0  0  0  0  0  0  0  0
   68.6582   46.8116   51.7460 C   0  0  0  0  0  0  0  0  0  0  0  0
  8  9  2  0
  9 10  1  0
  9  1  1  0
 10 11  1  0
 11 12  1  0
 11 14  1  0
 12 13  1  0
 13 14  1  0
  1  2  2  0
  1  6  1  0
  2  3  1  0
  3 15  1  0
  3  4  2  0
 15 16  1  0
 16 17  2  0
 16 22  1  0
 17 18  1  0
 18 19  1  0
 19 20  2  0
 19 21  1  0
 21 22  2  0
 21 26  1  0
 22 23  1  0
 23 24  1  0
 24 25  1  0
 25 26  1  0
  4  5  1  0
  5  6  2  0
  6  7  1  0
M  END
>  <minimizedAffinity>  (881) 
-8.94634

$$$$
data/200k_reference_output/data/smiles/74847.pdb
     RDKit          3D

 24 26  0  0  0  0  0  0  0  0999 V2000
   69.0644   46.3705   56.8407 N   0  0  0  0  0  0  0  0  0  0  0  0
   68.6009   47.2451   56.0855 C   0  0  0  0  0  0  0  0  0  0  0  0
   68.4880   47.0419   54.6553 C   0  0  0  0  0  0  0  0  0  0  0  0
   67.7557   45.9629   54.1438 C   0  0  0  0  0  0  0  0  0  0  0  0
   67.7857   45.7019   52.7975 C   0  0  0  0  0  0  0  0  0  0  0  0
   68.4991   46.4411   51.8902 C   0  0  0  0  0  0  0  0  0  0  0  0
   69.2218   47.4991   52.3638 C   0  0  0  0  0  0  0  0  0  0  0  0
   69.2066   47.7811   53.7395 C   0  0  0  0  0  0  0  0  0  0  0  0
   68.1372   48.4962   56.7521 C   0  0  0  0  0  0  0  0  0  0  0  0
   67.0833   48.6395   57.5721 C   0  0  0  0  0  0  0  0  0  0  0  0
   66.6632   49.8774   58.0538 C   0  0  0  0  0  0  0  0  0  0  0  0
   67.3286   51.0263   57.7024 C   0  0  0  0  0  0  0  0  0  0  0  0
   68.4102   50.9108   56.8697 C   0  0  0  0  0  0  0  0  0  0  0  0
   68.8074   49.6832   56.4054 C   0  0  0  0  0  0  0  0  0  0  0  0
   69.7821   44.9980   59.0444 O   0  0  0  0  0  0  0  0  0  0  0  0
   69.9263   44.4085   57.9373 C   0  0  0  0  0  0  0  0  0  0  0  0
   69.5610   45.1429   56.7748 N   0  0  0  0  0  0  0  0  0  0  0  0
   70.4367   43.0472   57.8842 C   0  0  0  0  0  0  0  0  0  0  0  0
   69.5845   42.0514   57.3758 N   0  0  0  0  0  0  0  0  0  0  0  0
   68.5129   42.4020   56.5409 C   0  0  0  0  0  0  0  0  0  0  0  0
   67.3026   41.5100   56.6529 C   0  0  0  0  0  0  0  0  0  0  0  0
   67.7554   40.1987   56.6194 O   0  0  0  0  0  0  0  0  0  0  0  0
   68.4789   39.8676   57.7589 C   0  0  0  0  0  0  0  0  0  0  0  0
   69.4769   40.8835   58.1772 C   0  0  0  0  0  0  0  0  0  0  0  0
 15 16  2  0
 16 18  1  0
 16 17  1  0
 18 19  1  0
 19 20  1  0
 19 24  1  0
 20 21  1  0
 21 22  1  0
 22 23  1  0
 23 24  1  0
 17  1  1  0
  1  2  2  0
  2  3  1  0
  2  9  1  0
  3  4  2  0
  3  8  1  0
  4  5  1  0
  5  6  2  0
  6  7  1  0
  7  8  2  0
  9 10  2  0
  9 14  1  0
 10 11  1  0
 11 12  2  0
 12 13  1  0
 13 14  2  0
M  CHG  1  19   1
M  END
>  <minimizedAffinity>  (882) 
-8.99036

$$$$
data/200k_reference_output/data/smiles/74863.pdb
     RDKit          3D

 22 23  0  0  0  0  0  0  0  0999 V2000
   69.2780   47.9015   52.6607 C   0  0  0  0  0  0  0  0  0  0  0  0
   69.3575   48.0857   54.0349 C   0  0  0  0  0  0  0  0  0  0  0  0
   68.6739   47.2399   54.8163 N   0  0  0  0  0  0  0  0  0  0  0  0
   67.9426   46.2550   54.3008 C   0  0  0  0  0  0  0  0  0  0  0  0
   67.8409   46.0419   52.9210 C   0  0  0  0  0  0  0  0  0  0  0  0
   67.0794   45.0169   52.3767 O   0  0  0  0  0  0  0  0  0  0  0  0
   68.5288   46.8911   52.0834 C   0  0  0  0  0  0  0  0  0  0  0  0
   68.4835   46.7591   50.8313 O   0  0  0  0  0  0  0  0  0  0  0  0
   70.7123   48.3657   50.8311 O   0  0  0  0  0  0  0  0  0  0  0  0
   70.0044   48.7968   51.7732 C   0  0  0  0  0  0  0  0  0  0  0  0
   69.9202   50.1616   51.9609 O   0  0  0  0  0  0  0  0  0  0  0  0
   68.7427   47.4124   56.2469 C   0  0  0  0  0  0  0  0  0  0  0  0
   68.2423   48.7282   56.6957 C   0  0  0  0  0  0  0  0  0  0  0  0
   67.2158   48.7965   57.6022 C   0  0  0  0  0  0  0  0  0  0  0  0
   66.7106   50.0199   58.0562 C   0  0  0  0  0  0  0  0  0  0  0  0
   67.2943   51.1566   57.5497 C   0  0  0  0  0  0  0  0  0  0  0  0
   68.3218   51.1165   56.6428 C   0  0  0  0  0  0  0  0  0  0  0  0
   68.7880   49.8947   56.2238 C   0  0  0  0  0  0  0  0  0  0  0  0
   68.9493   52.3524   56.0978 C   0  0  0  0  0  0  0  0  0  0  0  0
   68.4047   52.6390   54.8789 F   0  0  0  0  0  0  0  0  0  0  0  0
   68.7716   53.3917   56.9944 F   0  0  0  0  0  0  0  0  0  0  0  0
   70.3007   52.1364   55.9499 F   0  0  0  0  0  0  0  0  0  0  0  0
  9 10  2  0
 10 11  1  0
 10  1  1  0
  1  2  2  0
  1  7  1  0
  2  3  1  0
  3 12  1  0
  3  4  1  0
 12 13  1  0
 13 14  2  0
 13 18  1  0
 14 15  1  0
 15 16  2  0
 16 17  1  0
 17 19  1  0
 17 18  2  0
 19 20  1  0
 19 21  1  0
 19 22  1  0
  4  5  2  0
  5  6  1  0
  5  7  1  0
  7  8  2  0
M  END
>  <minimizedAffinity>  (883) 
-9.24307

$$$$
data/200k_reference_output/data/smiles/74885.pdb
     RDKit          3D

 24 27  0  0  0  0  0  0  0  0999 V2000
   68.1824   45.5492   55.1121 C   0  0  0  0  0  0  0  0  0  0  0  0
   68.4739   46.1810   56.2617 N   0  0  0  0  0  0  0  0  0  0  0  0
   68.9864   47.4304   56.2972 C   0  0  0  0  0  0  0  0  0  0  0  0
   69.2883   48.0707   57.4811 C   0  0  0  0  0  0  0  0  0  0  0  0
   69.8102   49.3302   57.4990 C   0  0  0  0  0  0  0  0  0  0  0  0
   70.0817   49.8885   58.6926 F   0  0  0  0  0  0  0  0  0  0  0  0
   70.0422   49.9792   56.3114 C   0  0  0  0  0  0  0  0  0  0  0  0
   69.7490   49.3604   55.1200 C   0  0  0  0  0  0  0  0  0  0  0  0
   69.2167   48.0775   55.0872 C   0  0  0  0  0  0  0  0  0  0  0  0
   68.9376   47.4771   53.9252 N   0  0  0  0  0  0  0  0  0  0  0  0
   69.0678   47.8962   52.6620 C   0  0  0  0  0  0  0  0  0  0  0  0
   68.6332   46.9073   51.7873 C   0  0  0  0  0  0  0  0  0  0  0  0
   68.2336   45.8669   52.6163 C   0  0  0  0  0  0  0  0  0  0  0  0
   68.4213   46.2157   53.9369 C   0  0  0  0  0  0  0  0  0  0  0  0
   67.6556   44.2384   55.1159 N   0  0  0  0  0  0  0  0  0  0  0  0
   66.5488   41.8105   55.2561 O   0  0  0  0  0  0  0  0  0  0  0  0
   67.2747   42.1240   56.2606 C   0  0  0  0  0  0  0  0  0  0  0  0
   67.8709   43.3957   56.2042 N   0  0  0  0  0  0  0  0  0  0  0  0
   67.4342   41.1841   57.3544 C   0  0  0  0  0  0  0  0  0  0  0  0
   68.1519   40.0244   57.1630 C   0  0  0  0  0  0  0  0  0  0  0  0
   68.2573   39.1491   58.2212 C   0  0  0  0  0  0  0  0  0  0  0  0
   67.6826   39.3794   59.4575 C   0  0  0  0  0  0  0  0  0  0  0  0
   66.9966   40.5292   59.5728 N   0  0  0  0  0  0  0  0  0  0  0  0
   66.8613   41.4160   58.5770 C   0  0  0  0  0  0  0  0  0  0  0  0
 16 17  2  0
 17 18  1  0
 17 19  1  0
 18 15  1  0
 15  1  1  0
  1  2  2  0
  1 14  1  0
  2  3  1  0
  3  4  2  0
  3  9  1  0
  4  5  1  0
  5  6  1  0
  5  7  2  0
  7  8  1  0
  8  9  2  0
  9 10  1  0
 10 11  1  0
 10 14  1  0
 11 12  2  0
 12 13  1  0
 13 14  2  0
 19 20  2  0
 19 24  1  0
 20 21  1  0
 21 22  2  0
 22 23  1  0
 23 24  2  0
M  END
>  <minimizedAffinity>  (884) 
-8.90798

$$$$
data/200k_reference_output/data/smiles/74911.pdb
     RDKit          3D

 26 28  0  0  0  0  0  0  0  0999 V2000
   69.1848   47.6625   55.2924 C   0  0  0  0  0  0  0  0  0  0  0  0
   68.6921   46.5135   55.9367 C   0  0  0  0  0  0  0  0  0  0  0  0
   68.1666   45.4845   55.2513 C   0  0  0  0  0  0  0  0  0  0  0  0
   68.1063   45.5501   53.8916 C   0  0  0  0  0  0  0  0  0  0  0  0
   68.5824   46.6569   53.2358 C   0  0  0  0  0  0  0  0  0  0  0  0
   68.5157   46.7454   51.8684 C   0  0  0  0  0  0  0  0  0  0  0  0
   67.9580   45.6663   51.1686 O   0  0  0  0  0  0  0  0  0  0  0  0
   68.9526   47.7920   51.2277 O   0  0  0  0  0  0  0  0  0  0  0  0
   69.4787   48.8107   51.8428 C   0  0  0  0  0  0  0  0  0  0  0  0
   69.9020   49.8198   51.2376 O   0  0  0  0  0  0  0  0  0  0  0  0
   69.6064   48.8408   53.2605 C   0  0  0  0  0  0  0  0  0  0  0  0
   69.1453   47.7545   53.9349 C   0  0  0  0  0  0  0  0  0  0  0  0
   68.2558   52.0595   57.4415 C   0  0  0  0  0  0  0  0  0  0  0  0
   69.1149   50.8553   57.2719 C   0  0  0  0  0  0  0  0  0  0  0  0
   70.2517   50.6687   58.0310 C   0  0  0  0  0  0  0  0  0  0  0  0
   71.0529   49.5570   57.8797 C   0  0  0  0  0  0  0  0  0  0  0  0
   70.6990   48.6104   56.9404 C   0  0  0  0  0  0  0  0  0  0  0  0
   69.5728   48.7562   56.1621 C   0  0  0  0  0  0  0  0  0  0  0  0
   68.8004   49.8691   56.3362 C   0  0  0  0  0  0  0  0  0  0  0  0
   70.2699   49.9972   53.8005 C   0  0  0  0  0  0  0  0  0  0  0  0
   69.6920   51.0660   53.9986 O   0  0  0  0  0  0  0  0  0  0  0  0
   71.6666   49.9295   54.1368 N   0  0  0  0  0  0  0  0  0  0  0  0
   72.3741   51.0628   54.6875 C   0  0  0  0  0  0  0  0  0  0  0  0
   73.8196   50.8697   54.4866 C   0  0  0  0  0  0  0  0  0  0  0  0
   74.2487   50.1284   53.5975 O   0  0  0  0  0  0  0  0  0  0  0  0
   74.7424   51.5220   55.2993 O   0  0  0  0  0  0  0  0  0  0  0  0
 13 14  1  0
 14 15  2  0
 14 19  1  0
 15 16  1  0
 16 17  2  0
 17 18  1  0
 18  1  1  0
 18 19  2  0
  1  2  2  0
  1 12  1  0
  2  3  1  0
  3  4  2  0
  4  5  1  0
  5  6  2  0
  5 12  1  0
  6  7  1  0
  6  8  1  0
  8  9  1  0
  9 10  2  0
  9 11  1  0
 11 20  1  0
 11 12  2  0
 20 21  2  0
 20 22  1  0
 22 23  1  0
 23 24  1  0
 24 25  2  0
 24 26  1  0
M  END
>  <minimizedAffinity>  (885) 
-8.74126

$$$$
data/200k_reference_output/data/smiles/75099.pdb
     RDKit          3D

 31 33  0  0  0  0  0  0  0  0999 V2000
   69.7573   47.3702   57.4540 C   0  0  0  0  0  0  0  0  0  0  0  0
   68.5654   47.2576   57.8246 O   0  0  0  0  0  0  0  0  0  0  0  0
   70.0002   48.0618   56.2409 N   0  0  0  0  0  0  0  0  0  0  0  0
   68.9151   48.6096   55.4757 C   0  0  1  0  0  0  0  0  0  0  0  0
   69.1397   50.0379   55.1265 C   0  0  0  0  0  0  0  0  0  0  0  0
   68.4376   50.8795   55.7351 O   0  0  0  0  0  0  0  0  0  0  0  0
   70.0424   50.6124   54.1918 N   0  0  0  0  0  0  0  0  0  0  0  0
   70.3236   52.0178   54.3230 C   0  0  0  0  0  0  0  0  0  0  0  0
   70.7186   49.9845   53.1295 N   0  0  0  0  0  0  0  0  0  0  0  0
   70.4537   48.8037   52.6450 C   0  0  0  0  0  0  0  0  0  0  0  0
   69.4294   47.8543   53.0540 C   0  0  0  0  0  0  0  0  0  0  0  0
   69.1571   46.9651   52.0189 C   0  0  0  0  0  0  0  0  0  0  0  0
   68.2093   45.9923   52.2273 C   0  0  0  0  0  0  0  0  0  0  0  0
   67.5447   45.9015   53.4383 C   0  0  0  0  0  0  0  0  0  0  0  0
   67.8250   46.7951   54.4650 C   0  0  0  0  0  0  0  0  0  0  0  0
   68.7728   47.7712   54.2620 C   0  0  0  0  0  0  0  0  0  0  0  0
   72.0959   47.7197   57.9685 C   0  0  0  0  0  0  0  0  0  0  0  0
   70.8809   46.8165   58.2233 C   0  0  2  0  0  0  0  0  0  0  0  0
   71.1803   45.4462   57.8677 N   0  0  0  0  0  0  0  0  0  0  0  0
   70.5360   44.3337   58.4921 C   0  0  0  0  0  0  0  0  0  0  0  0
   69.6856   44.6112   59.3776 O   0  0  0  0  0  0  0  0  0  0  0  0
   70.8515   42.9318   58.1183 C   0  0  1  0  0  0  0  0  0  0  0  0
   71.2379   42.2540   59.2766 O   0  0  0  0  0  0  0  0  0  0  0  0
   69.6914   42.2209   57.5571 C   0  0  0  0  0  0  0  0  0  0  0  0
   68.8298   42.8645   56.7069 C   0  0  0  0  0  0  0  0  0  0  0  0
   67.7222   42.2285   56.1551 C   0  0  0  0  0  0  0  0  0  0  0  0
   66.8931   42.9015   55.3180 F   0  0  0  0  0  0  0  0  0  0  0  0
   67.4752   40.9244   56.4635 C   0  0  0  0  0  0  0  0  0  0  0  0
   68.3411   40.2595   57.3242 C   0  0  0  0  0  0  0  0  0  0  0  0
   68.0788   38.9779   57.6132 F   0  0  0  0  0  0  0  0  0  0  0  0
   69.4434   40.9037   57.8698 C   0  0  0  0  0  0  0  0  0  0  0  0
 18 17  1  6
 18 19  1  0
 18  1  1  0
 19 20  1  0
 20 21  2  0
 20 22  1  0
 22 23  1  1
 22 24  1  0
 24 25  2  0
 24 31  1  0
 25 26  1  0
 26 27  1  0
 26 28  2  0
 28 29  1  0
 29 30  1  0
 29 31  2  0
  1  2  2  0
  1  3  1  0
  4  3  1  6
  4  5  1  0
  4 16  1  0
  5  6  2  0
  5  7  1  0
  7  8  1  0
  7  9  1  0
  9 10  2  0
 10 11  1  0
 11 12  1  0
 11 16  2  0
 12 13  2  0
 13 14  1  0
 14 15  2  0
 15 16  1  0
M  END
>  <minimizedAffinity>  (886) 
-8.99981

$$$$
data/200k_reference_output/data/smiles/75118.pdb
     RDKit          3D

 21 23  0  0  0  0  0  0  0  0999 V2000
   66.6713   44.9861   50.7500 O   0  0  0  0  0  0  0  0  0  0  0  0
   67.3157   45.7526   51.5382 C   0  0  0  0  0  0  0  0  0  0  0  0
   68.1443   46.6451   50.9803 N   0  0  0  0  0  0  0  0  0  0  0  0
   68.8364   47.4698   51.8224 C   0  0  0  0  0  0  0  0  0  0  0  0
   69.6162   48.3019   51.3068 O   0  0  0  0  0  0  0  0  0  0  0  0
   68.7303   47.4333   53.1769 C   0  0  0  0  0  0  0  0  0  0  0  0
   69.4410   48.2727   54.0013 C   0  0  0  0  0  0  0  0  0  0  0  0
   69.1897   48.0637   55.3760 C   0  0  0  0  0  0  0  0  0  0  0  0
   68.3276   47.1258   55.8377 C   0  0  0  0  0  0  0  0  0  0  0  0
   68.1462   46.9872   57.0623 O   0  0  0  0  0  0  0  0  0  0  0  0
   67.6866   46.3660   55.0027 O   0  0  0  0  0  0  0  0  0  0  0  0
   67.8485   46.4771   53.6953 C   0  0  0  0  0  0  0  0  0  0  0  0
   67.1661   45.6649   52.8686 N   0  0  0  0  0  0  0  0  0  0  0  0
   70.3132   49.2970   53.5073 C   0  0  0  0  0  0  0  0  0  0  0  0
   69.8338   50.6510   53.1518 C   0  0  0  0  0  0  0  0  0  0  0  0
   69.7167   51.6698   54.1916 C   0  0  0  0  0  0  0  0  0  0  0  0
   69.1766   51.4698   55.4693 C   0  0  0  0  0  0  0  0  0  0  0  0
   68.0338   51.4267   56.1683 C   0  0  0  0  0  0  0  0  0  0  0  0
   68.0417   51.2200   57.5003 C   0  0  0  0  0  0  0  0  0  0  0  0
   69.1739   51.0508   58.1771 C   0  0  0  0  0  0  0  0  0  0  0  0
   70.3985   51.1981   56.7795 S   0  0  0  0  0  0  0  0  0  0  0  0
  1  2  2  0
  2  3  1  0
  2 13  1  0
  3  4  1  0
  4  5  2  0
  4  6  1  0
  6  7  1  0
  6 12  2  0
  7 14  1  0
  7  8  2  0
 14 15  1  0
 15 16  1  0
 16 17  1  0
 17 18  2  0
 17 21  1  0
 18 19  1  0
 19 20  2  0
 20 21  1  0
  8  9  1  0
  9 10  2  0
  9 11  1  0
 11 12  1  0
 12 13  1  0
M  END
>  <minimizedAffinity>  (887) 
-8.93415

$$$$
data/200k_reference_output/data/smiles/75154.pdb
     RDKit          3D

 27 29  0  0  0  0  0  0  0  0999 V2000
   69.6747   49.0406   53.4426 C   0  0  0  0  0  0  0  0  0  0  0  0
   69.5501   49.0892   52.0341 C   0  0  0  0  0  0  0  0  0  0  0  0
   69.9766   50.1367   51.4781 O   0  0  0  0  0  0  0  0  0  0  0  0
   69.0336   48.1260   51.3438 O   0  0  0  0  0  0  0  0  0  0  0  0
   68.5838   47.0340   51.8833 C   0  0  0  0  0  0  0  0  0  0  0  0
   68.0383   46.0155   51.1187 O   0  0  0  0  0  0  0  0  0  0  0  0
   68.6719   46.9236   53.2530 C   0  0  0  0  0  0  0  0  0  0  0  0
   68.1940   45.7676   53.8268 C   0  0  0  0  0  0  0  0  0  0  0  0
   68.2323   45.5691   55.1843 C   0  0  0  0  0  0  0  0  0  0  0  0
   68.7556   46.5547   55.9623 C   0  0  0  0  0  0  0  0  0  0  0  0
   69.2568   47.7547   55.4278 C   0  0  0  0  0  0  0  0  0  0  0  0
   69.2202   47.9306   54.0788 C   0  0  0  0  0  0  0  0  0  0  0  0
   69.6145   48.7824   56.3771 C   0  0  0  0  0  0  0  0  0  0  0  0
   68.6507   49.6632   56.8043 C   0  0  0  0  0  0  0  0  0  0  0  0
   68.9040   50.6194   57.7814 C   0  0  0  0  0  0  0  0  0  0  0  0
   70.1605   50.6939   58.3455 C   0  0  0  0  0  0  0  0  0  0  0  0
   70.4235   51.6201   59.2987 F   0  0  0  0  0  0  0  0  0  0  0  0
   71.1196   49.8026   57.9057 C   0  0  0  0  0  0  0  0  0  0  0  0
   72.3647   49.9047   58.4900 F   0  0  0  0  0  0  0  0  0  0  0  0
   70.8701   48.8561   56.9399 C   0  0  0  0  0  0  0  0  0  0  0  0
   71.7882   50.1098   54.1157 N   0  0  0  0  0  0  0  0  0  0  0  0
   70.3476   50.1403   54.0651 C   0  0  0  0  0  0  0  0  0  0  0  0
   69.7661   51.1004   54.5620 O   0  0  0  0  0  0  0  0  0  0  0  0
   72.4709   51.1941   54.7460 C   0  0  0  0  0  0  0  0  0  0  0  0
   74.5144   50.0499   54.1437 O   0  0  0  0  0  0  0  0  0  0  0  0
   73.9011   50.7900   54.9496 C   0  0  0  0  0  0  0  0  0  0  0  0
   74.6214   51.2270   56.0618 O   0  0  0  0  0  0  0  0  0  0  0  0
 25 26  2  0
 26 27  1  0
 26 24  1  0
 24 21  1  0
 21 22  1  0
 22 23  2  0
 22  1  1  0
  1  2  1  0
  1 12  2  0
  2  3  2  0
  2  4  1  0
  4  5  1  0
  5  6  1  0
  5  7  2  0
  7  8  1  0
  7 12  1  0
  8  9  2  0
  9 10  1  0
 10 11  2  0
 11 13  1  0
 11 12  1  0
 13 14  2  0
 13 20  1  0
 14 15  1  0
 15 16  2  0
 16 17  1  0
 16 18  1  0
 18 19  1  0
 18 20  2  0
M  END
>  <minimizedAffinity>  (888) 
-8.95414

$$$$
data/200k_reference_output/data/smiles/75214.pdb
     RDKit          3D

 29 32  0  0  0  0  0  0  0  0999 V2000
   72.6639   35.1117   57.4179 C   0  0  0  0  0  0  0  0  0  0  0  0
   72.6631   36.4771   57.0362 C   0  0  0  0  0  0  0  0  0  0  0  0
   71.9750   37.4159   57.7563 C   0  0  0  0  0  0  0  0  0  0  0  0
   71.2578   37.0927   58.8776 C   0  0  0  0  0  0  0  0  0  0  0  0
   71.2396   35.7613   59.2849 C   0  0  0  0  0  0  0  0  0  0  0  0
   70.5513   35.4358   60.4303 C   0  0  0  0  0  0  0  0  0  0  0  0
   70.5568   34.1368   60.8704 C   0  0  0  0  0  0  0  0  0  0  0  0
   71.2479   33.1770   60.1637 C   0  0  0  0  0  0  0  0  0  0  0  0
   71.9347   33.4948   59.0180 C   0  0  0  0  0  0  0  0  0  0  0  0
   71.9396   34.7925   58.5566 C   0  0  0  0  0  0  0  0  0  0  0  0
   73.3116   34.1363   56.5402 C   0  0  0  0  0  0  0  0  0  0  0  0
   76.6767   36.3477   52.5222 N   0  0  0  0  0  0  0  0  0  0  0  0
   75.8197   35.7884   53.5312 C   0  0  0  0  0  0  0  0  0  0  0  0
   76.3197   35.2669   54.7001 C   0  0  0  0  0  0  0  0  0  0  0  0
   75.4615   34.7482   55.6204 C   0  0  0  0  0  0  0  0  0  0  0  0
   74.0956   34.7135   55.4478 N   0  0  0  0  0  0  0  0  0  0  0  0
   73.6496   35.2156   54.3236 C   0  0  0  0  0  0  0  0  0  0  0  0
   72.4408   35.2437   54.0328 O   0  0  0  0  0  0  0  0  0  0  0  0
   74.4946   35.7412   53.3870 N   0  0  0  0  0  0  0  0  0  0  0  0
   70.5120   38.0844   59.6690 C   0  0  0  0  0  0  0  0  0  0  0  0
   70.2242   39.3152   58.9514 N   0  0  0  0  0  0  0  0  0  0  0  0
   69.0159   39.5267   58.2846 C   0  0  0  0  0  0  0  0  0  0  0  0
   68.1374   38.6126   58.3051 O   0  0  0  0  0  0  0  0  0  0  0  0
   68.7231   40.7583   57.5662 C   0  0  0  0  0  0  0  0  0  0  0  0
   67.6553   40.8432   56.7035 C   0  0  0  0  0  0  0  0  0  0  0  0
   67.3767   42.0361   56.0225 C   0  0  0  0  0  0  0  0  0  0  0  0
   68.2024   43.1183   56.2420 C   0  0  0  0  0  0  0  0  0  0  0  0
   69.2780   43.0592   57.1021 C   0  0  0  0  0  0  0  0  0  0  0  0
   69.5408   41.8848   57.7628 C   0  0  0  0  0  0  0  0  0  0  0  0
 12 13  1  0
 13 14  1  0
 13 19  2  0
 14 15  2  0
 15 16  1  0
 16 11  1  0
 16 17  1  0
 11  1  1  0
  1  2  2  0
  1 10  1  0
  2  3  1  0
  3  4  2  0
  4 20  1  0
  4  5  1  0
 20 21  1  0
 21 22  1  0
 22 23  2  0
 22 24  1  0
 24 25  2  0
 24 29  1  0
 25 26  1  0
 26 27  2  0
 27 28  1  0
 28 29  2  0
  5  6  1  0
  5 10  2  0
  6  7  2  0
  7  8  1  0
  8  9  2  0
  9 10  1  0
 17 18  2  0
 17 19  1  0
M  END
>  <minimizedAffinity>  (889) 
-8.67473

$$$$
data/200k_reference_output/data/smiles/75230.pdb
     RDKit          3D

 28 31  0  0  0  0  0  0  0  0999 V2000
   68.7411   44.9140   56.3110 N   0  0  0  0  0  0  0  0  0  0  0  0
   68.9898   46.2479   56.7379 C   0  0  0  0  0  0  0  0  0  0  0  0
   69.7489   46.4281   57.7231 O   0  0  0  0  0  0  0  0  0  0  0  0
   66.9192   43.0690   55.6146 O   0  0  0  0  0  0  0  0  0  0  0  0
   67.6388   42.2770   56.3068 C   0  0  0  0  0  0  0  0  0  0  0  0
   67.4548   40.8967   56.5631 N   0  0  0  0  0  0  0  0  0  0  0  0
   68.4947   40.3887   57.3892 C   0  0  0  0  0  0  0  0  0  0  0  0
   68.7529   39.1326   57.9041 C   0  0  0  0  0  0  0  0  0  0  0  0
   69.8671   38.8915   58.7056 C   0  0  0  0  0  0  0  0  0  0  0  0
   70.6983   39.9624   58.9609 C   0  0  0  0  0  0  0  0  0  0  0  0
   70.4421   41.2211   58.4456 C   0  0  0  0  0  0  0  0  0  0  0  0
   69.3347   41.4514   57.6520 C   0  0  0  0  0  0  0  0  0  0  0  0
   68.8591   42.6672   57.0048 C   0  0  0  0  0  0  0  0  0  0  0  0
   69.3490   43.8550   57.0026 N   0  0  0  0  0  0  0  0  0  0  0  0
   68.4107   47.4448   56.0937 C   0  0  0  0  0  0  0  0  0  0  0  0
   67.0383   47.5504   56.3154 O   0  0  0  0  0  0  0  0  0  0  0  0
   68.9922   48.7200   56.6146 C   0  0  0  0  0  0  0  0  0  0  0  0
   68.1592   49.6874   57.1552 C   0  0  0  0  0  0  0  0  0  0  0  0
   68.6420   50.8804   57.6507 C   0  0  0  0  0  0  0  0  0  0  0  0
   70.0018   51.1403   57.6168 C   0  0  0  0  0  0  0  0  0  0  0  0
   70.8386   50.2064   57.0926 C   0  0  0  0  0  0  0  0  0  0  0  0
   70.3289   49.0136   56.5996 C   0  0  0  0  0  0  0  0  0  0  0  0
   68.6324   47.3073   54.6219 C   0  0  0  0  0  0  0  0  0  0  0  0
   67.9902   46.3079   53.8959 C   0  0  0  0  0  0  0  0  0  0  0  0
   68.1675   46.1506   52.5357 C   0  0  0  0  0  0  0  0  0  0  0  0
   69.0156   47.0165   51.8563 C   0  0  0  0  0  0  0  0  0  0  0  0
   69.6683   48.0200   52.5462 C   0  0  0  0  0  0  0  0  0  0  0  0
   69.4594   48.1377   53.9068 C   0  0  0  0  0  0  0  0  0  0  0  0
  4  5  2  0
  5  6  1  0
  5 13  1  0
  6  7  1  0
  7  8  2  0
  7 12  1  0
  8  9  1  0
  9 10  2  0
 10 11  1  0
 11 12  2  0
 12 13  1  0
 13 14  2  0
 14  1  1  0
  1  2  1  0
  2  3  2  0
  2 15  1  0
 15 16  1  0
 15 17  1  0
 15 23  1  0
 17 18  2  0
 17 22  1  0
 18 19  1  0
 19 20  2  0
 20 21  1  0
 21 22  2  0
 23 24  2  0
 23 28  1  0
 24 25  1  0
 25 26  2  0
 26 27  1  0
 27 28  2  0
M  END
>  <minimizedAffinity>  (890) 
-9.34644

$$$$
data/200k_reference_output/data/smiles/75342.pdb
     RDKit          3D

 30 33  0  0  0  0  0  0  0  0999 V2000
   69.3730   43.0061   57.3813 C   0  0  0  0  0  0  0  0  0  0  0  0
   68.7054   43.1166   56.2717 O   0  0  0  0  0  0  0  0  0  0  0  0
   69.8116   44.2063   57.9014 N   0  0  0  0  0  0  0  0  0  0  0  0
   67.3233   38.8373   59.0171 C   0  0  0  0  0  0  0  0  0  0  0  0
   68.5041   39.6172   58.6604 N   0  0  0  0  0  0  0  0  0  0  0  0
   68.4420   40.8642   58.2218 C   0  0  0  0  0  0  0  0  0  0  0  0
   67.3033   41.4076   58.1037 O   0  0  0  0  0  0  0  0  0  0  0  0
   69.5365   41.6539   57.8700 C   0  0  0  0  0  0  0  0  0  0  0  0
   70.7499   41.0293   58.0118 C   0  0  0  0  0  0  0  0  0  0  0  0
   71.9293   41.6941   57.6968 O   0  0  0  0  0  0  0  0  0  0  0  0
   70.8346   39.7226   58.4701 C   0  0  0  0  0  0  0  0  0  0  0  0
   72.0560   39.0999   58.6087 C   0  0  0  0  0  0  0  0  0  0  0  0
   72.1332   37.7990   59.0630 C   0  0  0  0  0  0  0  0  0  0  0  0
   70.9728   37.1041   59.3855 C   0  0  0  0  0  0  0  0  0  0  0  0
   69.7682   37.7044   59.2537 C   0  0  0  0  0  0  0  0  0  0  0  0
   69.7038   39.0103   58.7969 C   0  0  0  0  0  0  0  0  0  0  0  0
   69.6271   45.4835   57.3703 N   0  0  0  0  0  0  0  0  0  0  0  0
   70.1798   46.6085   58.1040 C   0  0  0  0  0  0  0  0  0  0  0  0
   70.7595   46.3161   59.1521 O   0  0  0  0  0  0  0  0  0  0  0  0
   69.9936   47.9238   57.5404 C   0  0  0  0  0  0  0  0  0  0  0  0
   68.9184   48.2330   56.5972 C   0  0  0  0  0  0  0  0  0  0  0  0
   69.1551   48.2412   55.1670 C   0  0  0  0  0  0  0  0  0  0  0  0
   69.8779   49.1969   54.4560 C   0  0  0  0  0  0  0  0  0  0  0  0
   69.8356   48.8973   53.1466 N   0  0  0  0  0  0  0  0  0  0  0  0
   69.1190   47.7880   52.9571 C   0  0  0  0  0  0  0  0  0  0  0  0
   68.8205   47.0909   51.8097 C   0  0  0  0  0  0  0  0  0  0  0  0
   68.0658   45.9305   51.9265 C   0  0  0  0  0  0  0  0  0  0  0  0
   67.6103   45.4566   53.1274 C   0  0  0  0  0  0  0  0  0  0  0  0
   67.9365   46.1933   54.2451 C   0  0  0  0  0  0  0  0  0  0  0  0
   68.6871   47.3606   54.1896 C   0  0  0  0  0  0  0  0  0  0  0  0
  4  5  1  0
  5  6  1  0
  5 16  1  0
  6  7  2  0
  6  8  1  0
  8  1  1  0
  8  9  2  0
  1  2  2  0
  1  3  1  0
  3 17  1  0
 17 18  1  0
 18 19  2  0
 18 20  1  0
 20 21  1  0
 21 22  1  0
 22 23  2  0
 22 30  1  0
 23 24  1  0
 24 25  1  0
 25 26  1  0
 25 30  2  0
 26 27  2  0
 27 28  1  0
 28 29  2  0
 29 30  1  0
  9 10  1  0
  9 11  1  0
 11 12  1  0
 11 16  2  0
 12 13  2  0
 13 14  1  0
 14 15  2  0
 15 16  1  0
M  END
>  <minimizedAffinity>  (891) 
-9.33709

$$$$
data/200k_reference_output/data/smiles/75356.pdb
     RDKit          3D

 23 24  0  0  0  0  0  0  0  0999 V2000
   69.4046   48.1376   54.7938 C   0  0  0  0  0  0  0  0  0  0  0  0
   68.7980   47.4310   53.6833 C   0  0  0  0  0  0  0  0  0  0  0  0
   69.0848   47.6960   52.3716 C   0  0  0  0  0  0  0  0  0  0  0  0
   68.4635   47.0440   51.3596 N   0  0  0  0  0  0  0  0  0  0  0  0
   67.5465   46.1164   51.6248 C   0  0  0  0  0  0  0  0  0  0  0  0
   66.9805   45.5220   50.6630 O   0  0  0  0  0  0  0  0  0  0  0  0
   67.2239   45.8118   52.9149 N   0  0  0  0  0  0  0  0  0  0  0  0
   67.8282   46.4470   53.9305 C   0  0  0  0  0  0  0  0  0  0  0  0
   67.4995   46.1352   55.0975 O   0  0  0  0  0  0  0  0  0  0  0  0
   70.0943   48.6747   52.0341 C   0  0  0  0  0  0  0  0  0  0  0  0
   71.2392   48.7744   52.5071 O   0  0  0  0  0  0  0  0  0  0  0  0
   69.7700   49.6420   51.0536 O   0  0  0  0  0  0  0  0  0  0  0  0
   68.7832   47.9027   56.1471 C   0  0  0  0  0  0  0  0  0  0  0  0
   71.7464   46.7102   59.0514 C   0  0  0  0  0  0  0  0  0  0  0  0
   71.0153   45.7827   58.3304 C   0  0  0  0  0  0  0  0  0  0  0  0
   70.0673   46.1481   57.4007 C   0  0  0  0  0  0  0  0  0  0  0  0
   69.8052   47.4789   57.1489 C   0  0  0  0  0  0  0  0  0  0  0  0
   70.5287   48.4116   57.8623 C   0  0  0  0  0  0  0  0  0  0  0  0
   71.4755   48.0357   58.7908 C   0  0  0  0  0  0  0  0  0  0  0  0
   72.9958   47.2599   61.1212 C   0  0  0  0  0  0  0  0  0  0  0  0
   72.7541   46.2404   60.0372 C   0  0  0  0  0  0  0  0  0  0  0  0
   72.2259   44.9703   60.6587 C   0  0  0  0  0  0  0  0  0  0  0  0
   74.0292   45.9271   59.2747 C   0  0  0  0  0  0  0  0  0  0  0  0
 20 21  1  0
 21 22  1  0
 21 23  1  0
 21 14  1  0
 14 15  2  0
 14 19  1  0
 15 16  1  0
 16 17  2  0
 17 13  1  0
 17 18  1  0
 13  1  1  0
  1  2  1  0
  2  3  2  0
  2  8  1  0
  3 10  1  0
  3  4  1  0
 10 11  2  0
 10 12  1  0
  4  5  1  0
  5  6  2  0
  5  7  1  0
  7  8  1  0
  8  9  2  0
 18 19  2  0
M  END
>  <minimizedAffinity>  (892) 
-8.68223

$$$$
data/200k_reference_output/data/smiles/75382.pdb
     RDKit          3D

 30 34  0  0  0  0  0  0  0  0999 V2000
   68.8115   40.6750   57.7051 C   0  0  0  0  0  0  0  0  0  0  0  0
   67.7967   40.4607   56.7677 C   0  0  0  0  0  0  0  0  0  0  0  0
   67.3526   41.4978   55.9775 C   0  0  0  0  0  0  0  0  0  0  0  0
   67.8757   42.7610   56.0723 C   0  0  0  0  0  0  0  0  0  0  0  0
   67.6805   43.9382   55.4016 N   0  0  0  0  0  0  0  0  0  0  0  0
   68.4910   44.8681   55.8509 C   0  0  0  0  0  0  0  0  0  0  0  0
   69.2262   44.2862   56.8335 N   0  0  0  0  0  0  0  0  0  0  0  0
   68.8730   42.9877   56.9932 C   0  0  0  0  0  0  0  0  0  0  0  0
   69.3480   41.9576   57.8148 C   0  0  0  0  0  0  0  0  0  0  0  0
   68.6626   46.2455   55.3430 C   0  0  0  0  0  0  0  0  0  0  0  0
   68.7876   46.5362   54.0168 C   0  0  0  0  0  0  0  0  0  0  0  0
   68.5809   45.5494   53.0254 N   0  0  0  0  0  0  0  0  0  0  0  0
   69.0611   47.8418   53.5830 C   0  0  0  0  0  0  0  0  0  0  0  0
   69.2512   48.1503   52.2531 C   0  0  0  0  0  0  0  0  0  0  0  0
   69.5780   49.4313   51.8434 C   0  0  0  0  0  0  0  0  0  0  0  0
   69.7266   50.4707   52.7458 C   0  0  0  0  0  0  0  0  0  0  0  0
   69.5308   50.1452   54.0767 C   0  0  0  0  0  0  0  0  0  0  0  0
   69.2008   48.8468   54.4965 C   0  0  0  0  0  0  0  0  0  0  0  0
   69.0690   48.5504   55.7901 N   0  0  0  0  0  0  0  0  0  0  0  0
   68.8035   47.2706   56.2490 C   0  0  0  0  0  0  0  0  0  0  0  0
   68.6897   47.0407   57.4680 O   0  0  0  0  0  0  0  0  0  0  0  0
   67.7283   38.5300   63.3826 C   0  0  0  0  0  0  0  0  0  0  0  0
   68.1230   38.6691   62.0044 N   0  0  0  0  0  0  0  0  0  0  0  0
   68.8896   37.6198   61.5014 C   0  0  0  0  0  0  0  0  0  0  0  0
   69.2172   37.6364   60.0637 C   0  0  0  0  0  0  0  0  0  0  0  0
   68.6258   38.7817   59.3737 N   0  0  0  0  0  0  0  0  0  0  0  0
   69.3295   39.5263   58.4372 C   0  0  0  0  0  0  0  0  0  0  0  0
   70.5531   39.1713   58.1924 O   0  0  0  0  0  0  0  0  0  0  0  0
   67.2604   39.0802   59.7405 C   0  0  0  0  0  0  0  0  0  0  0  0
   67.2776   39.4448   61.1953 C   0  0  0  0  0  0  0  0  0  0  0  0
 22 23  1  0
 23 24  1  0
 23 30  1  0
 24 25  1  0
 25 26  1  0
 26 27  1  0
 26 29  1  0
 27 28  2  0
 27  1  1  0
  1  2  2  0
  1  9  1  0
  2  3  1  0
  3  4  2  0
  4  5  1  0
  4  8  1  0
  5  6  1  0
  6 10  1  0
  6  7  2  0
 10 11  2  0
 10 20  1  0
 11 12  1  0
 11 13  1  0
 13 14  2  0
 13 18  1  0
 14 15  1  0
 15 16  2  0
 16 17  1  0
 17 18  2  0
 18 19  1  0
 19 20  1  0
 20 21  2  0
  7  8  1  0
  8  9  2  0
 29 30  1  0
M  CHG  2   7   1  23   1
M  END
>  <minimizedAffinity>  (893) 
-8.55368

$$$$
data/200k_reference_output/data/smiles/75830.pdb
     RDKit          3D

 25 27  0  0  0  0  0  0  0  0999 V2000
   68.1076   45.4033   54.5917 C   0  0  0  0  0  0  0  0  0  0  0  0
   68.6603   46.3925   55.3693 C   0  0  0  0  0  0  0  0  0  0  0  0
   69.2313   47.5437   54.8011 C   0  0  0  0  0  0  0  0  0  0  0  0
   69.2677   47.7423   53.4434 C   0  0  0  0  0  0  0  0  0  0  0  0
   68.7175   46.7569   52.6545 C   0  0  0  0  0  0  0  0  0  0  0  0
   68.1579   45.6301   53.2113 C   0  0  0  0  0  0  0  0  0  0  0  0
   69.1472   43.4824   56.4877 O   0  0  0  0  0  0  0  0  0  0  0  0
   68.0416   43.3035   55.9933 C   0  0  0  0  0  0  0  0  0  0  0  0
   67.3184   42.1252   56.3981 N   0  0  0  0  0  0  0  0  0  0  0  0
   67.5110   44.2135   55.0727 N   0  0  0  0  0  0  0  0  0  0  0  0
   67.8885   41.2029   57.3479 C   0  0  0  0  0  0  0  0  0  0  0  0
   67.5229   41.6992   58.7043 C   0  0  0  0  0  0  0  0  0  0  0  0
   66.4496   41.2963   59.4830 C   0  0  0  0  0  0  0  0  0  0  0  0
   66.4580   41.9952   60.6733 C   0  0  0  0  0  0  0  0  0  0  0  0
   67.5246   42.8022   60.6020 N   0  0  0  0  0  0  0  0  0  0  0  0
   68.1617   42.6308   59.4329 N   0  0  0  0  0  0  0  0  0  0  0  0
   69.9828   49.1864   52.7369 S   0  0  0  0  0  0  0  0  0  0  0  0
   69.4720   49.3944   51.3312 O   0  0  0  0  0  0  0  0  0  0  0  0
   71.4616   48.9450   52.6118 O   0  0  0  0  0  0  0  0  0  0  0  0
   69.7221   50.5661   53.7499 C   0  0  0  0  0  0  0  0  0  0  0  0
   70.7782   51.2464   54.3005 C   0  0  0  0  0  0  0  0  0  0  0  0
   70.5852   52.3578   55.1169 C   0  0  0  0  0  0  0  0  0  0  0  0
   69.3129   52.8054   55.3947 C   0  0  0  0  0  0  0  0  0  0  0  0
   68.2460   52.1262   54.8439 C   0  0  0  0  0  0  0  0  0  0  0  0
   68.4626   51.0224   54.0343 C   0  0  0  0  0  0  0  0  0  0  0  0
  7  8  2  0
  8  9  1  0
  8 10  1  0
  9 11  1  0
 11 12  1  0
 12 13  1  0
 12 16  2  0
 13 14  2  0
 14 15  1  0
 15 16  1  0
 10  1  1  0
  1  2  2  0
  1  6  1  0
  2  3  1  0
  3  4  2  0
  4 17  1  0
  4  5  1  0
 17 18  2  0
 17 19  2  0
 17 20  1  0
 20 21  2  0
 20 25  1  0
 21 22  1  0
 22 23  2  0
 23 24  1  0
 24 25  2  0
  5  6  2  0
M  END
>  <minimizedAffinity>  (894) 
-8.74201

$$$$
data/200k_reference_output/data/smiles/75920.pdb
     RDKit          3D

 29 32  0  0  0  0  0  0  0  0999 V2000
   67.9284   40.5198   58.0882 C   0  0  0  0  0  0  0  0  0  0  0  0
   67.3879   40.5455   59.2198 O   0  0  0  0  0  0  0  0  0  0  0  0
   68.8705   39.4863   57.8280 N   0  0  0  0  0  0  0  0  0  0  0  0
   67.7506   43.4095   55.8529 N   0  0  0  0  0  0  0  0  0  0  0  0
   66.7945   42.6498   55.3610 N   0  0  0  0  0  0  0  0  0  0  0  0
   66.6723   41.4856   56.0559 C   0  0  0  0  0  0  0  0  0  0  0  0
   67.6122   41.5077   57.0540 C   0  0  0  0  0  0  0  0  0  0  0  0
   68.2673   42.7198   56.9007 C   0  0  0  0  0  0  0  0  0  0  0  0
   69.3734   43.2255   57.7300 C   0  0  0  0  0  0  0  0  0  0  0  0
   68.3591   46.5694   52.1641 C   0  0  0  0  0  0  0  0  0  0  0  0
   68.4559   46.2071   53.6020 C   0  0  0  0  0  0  0  0  0  0  0  0
   68.9680   47.1817   54.4603 C   0  0  0  0  0  0  0  0  0  0  0  0
   69.0547   46.8477   55.7867 C   0  0  0  0  0  0  0  0  0  0  0  0
   69.5170   47.7264   56.5662 O   0  0  0  0  0  0  0  0  0  0  0  0
   68.6611   45.6373   56.2097 N   0  0  0  0  0  0  0  0  0  0  0  0
   68.1689   44.6966   55.3929 C   0  0  0  0  0  0  0  0  0  0  0  0
   68.0806   45.0167   54.0921 N   0  0  0  0  0  0  0  0  0  0  0  0
   69.2540   38.4574   58.7415 C   0  0  0  0  0  0  0  0  0  0  0  0
   70.7510   38.5251   59.0273 C   0  0  0  0  0  0  0  0  0  0  0  0
   71.3614   39.7443   58.3726 C   0  0  0  0  0  0  0  0  0  0  0  0
   72.6923   39.9490   59.0755 C   0  0  0  0  0  0  0  0  0  0  0  0
   72.4454   39.3774   60.4502 C   0  0  0  0  0  0  0  0  0  0  0  0
   71.0293   38.8391   60.4755 C   0  0  0  0  0  0  0  0  0  0  0  0
   71.3796   37.2558   58.6743 C   0  0  0  0  0  0  0  0  0  0  0  0
   72.0796   37.1373   57.5009 C   0  0  0  0  0  0  0  0  0  0  0  0
   72.6993   35.9484   57.0912 C   0  0  0  0  0  0  0  0  0  0  0  0
   72.6092   34.8575   57.8858 C   0  0  0  0  0  0  0  0  0  0  0  0
   71.9139   34.9424   59.0708 C   0  0  0  0  0  0  0  0  0  0  0  0
   71.3141   36.1147   59.4553 C   0  0  0  0  0  0  0  0  0  0  0  0
 10 11  1  0
 11 12  2  0
 11 17  1  0
 12 13  1  0
 13 14  2  0
 13 15  1  0
 15 16  1  0
 16  4  1  0
 16 17  2  0
  4  5  1  0
  4  8  1  0
  5  6  2  0
  6  7  1  0
  7  1  1  0
  7  8  2  0
  1  2  2  0
  1  3  1  0
  3 18  1  0
 18 19  1  0
 19 24  1  0
 19 20  1  0
 19 23  1  0
 24 25  2  0
 24 29  1  0
 25 26  1  0
 26 27  2  0
 27 28  1  0
 28 29  2  0
 20 21  1  0
 21 22  1  0
 22 23  1  0
  8  9  1  0
M  END
>  <minimizedAffinity>  (895) 
-8.79855

$$$$
data/200k_reference_output/data/smiles/76176.pdb
     RDKit          3D

 30 32  0  0  0  0  0  0  0  0999 V2000
   69.0355   48.8519   57.9497 C   0  0  0  0  0  0  0  0  0  0  0  0
   70.3924   49.3236   57.6439 C   0  0  0  0  0  0  0  0  0  0  0  0
   70.4943   50.4696   57.1326 O   0  0  0  0  0  0  0  0  0  0  0  0
   71.5574   48.5618   57.8943 N   0  0  0  0  0  0  0  0  0  0  0  0
   72.8903   49.0616   57.5379 C   0  0  0  0  0  0  0  0  0  0  0  0
   73.9551   48.4339   58.4063 C   0  0  0  0  0  0  0  0  0  0  0  0
   73.4734   48.1341   59.7608 N   0  0  0  0  0  0  0  0  0  0  0  0
   72.2688   47.5279   59.8473 C   0  0  0  0  0  0  0  0  0  0  0  0
   72.0252   47.3374   61.1450 N   0  0  0  0  0  0  0  0  0  0  0  0
   73.0459   47.8127   61.8410 N   0  0  0  0  0  0  0  0  0  0  0  0
   73.9667   48.3172   60.9919 C   0  0  0  0  0  0  0  0  0  0  0  0
   71.5653   47.2666   58.5416 C   0  0  0  0  0  0  0  0  0  0  0  0
   75.2611   48.9501   61.3435 C   0  0  0  0  0  0  0  0  0  0  0  0
   76.3148   48.3967   60.7148 F   0  0  0  0  0  0  0  0  0  0  0  0
   75.4732   48.8661   62.7216 F   0  0  0  0  0  0  0  0  0  0  0  0
   75.2369   50.3089   61.0614 F   0  0  0  0  0  0  0  0  0  0  0  0
   67.0203   47.7558   57.1105 N   0  0  0  0  0  0  0  0  0  0  0  0
   68.3095   48.2608   56.7477 C   0  0  2  0  0  0  0  0  0  0  0  0
   69.1372   47.1291   56.1570 C   0  0  0  0  0  0  0  0  0  0  0  0
   68.8742   46.9895   54.7007 C   0  0  0  0  0  0  0  0  0  0  0  0
   69.3219   47.9244   53.7998 C   0  0  0  0  0  0  0  0  0  0  0  0
   70.0468   49.0102   54.1539 F   0  0  0  0  0  0  0  0  0  0  0  0
   69.0377   47.7711   52.4405 C   0  0  0  0  0  0  0  0  0  0  0  0
   69.4867   48.7118   51.5477 F   0  0  0  0  0  0  0  0  0  0  0  0
   68.3167   46.7058   51.9693 C   0  0  0  0  0  0  0  0  0  0  0  0
   68.0316   46.5550   50.6349 F   0  0  0  0  0  0  0  0  0  0  0  0
   67.8681   45.7667   52.8730 C   0  0  0  0  0  0  0  0  0  0  0  0
   67.1573   44.7187   52.3880 F   0  0  0  0  0  0  0  0  0  0  0  0
   68.1496   45.9179   54.2152 C   0  0  0  0  0  0  0  0  0  0  0  0
   67.6907   44.9748   55.0527 F   0  0  0  0  0  0  0  0  0  0  0  0
 18 17  1  1
 18  1  1  0
 18 19  1  0
  1  2  1  0
  2  3  2  0
  2  4  1  0
  4  5  1  0
  4 12  1  0
  5  6  1  0
  6  7  1  0
  7  8  1  0
  7 11  1  0
  8  9  2  0
  8 12  1  0
  9 10  1  0
 10 11  2  0
 11 13  1  0
 13 14  1  0
 13 15  1  0
 13 16  1  0
 19 20  1  0
 20 21  2  0
 20 29  1  0
 21 22  1  0
 21 23  1  0
 23 24  1  0
 23 25  2  0
 25 26  1  0
 25 27  1  0
 27 28  1  0
 27 29  2  0
 29 30  1  0
M  CHG  1  17   1
M  END
>  <minimizedAffinity>  (896) 
-8.55090

$$$$
data/200k_reference_output/data/smiles/76256.pdb
     RDKit          3D

 29 31  0  0  0  0  0  0  0  0999 V2000
   71.3425   44.7384   58.2940 C   0  0  0  0  0  0  0  0  0  0  0  0
   72.3149   43.9790   57.7339 C   0  0  0  0  0  0  0  0  0  0  0  0
   72.4452   42.6288   57.7054 C   0  0  0  0  0  0  0  0  0  0  0  0
   71.4643   41.8149   58.3202 C   0  0  0  0  0  0  0  0  0  0  0  0
   70.4485   42.6152   58.8966 C   0  0  0  0  0  0  0  0  0  0  0  0
   70.3272   43.8293   58.9304 C   0  0  0  0  0  0  0  0  0  0  0  0
   71.1053   46.4107   58.5068 S   0  0  0  0  0  0  0  0  0  0  0  0
   72.0536   47.2322   57.7442 O   0  0  0  0  0  0  0  0  0  0  0  0
   71.1624   46.7546   59.9899 O   0  0  0  0  0  0  0  0  0  0  0  0
   69.4349   46.7957   58.0829 N   0  0  0  0  0  0  0  0  0  0  0  0
   69.6031   48.9622   56.2032 C   0  0  0  0  0  0  0  0  0  0  0  0
   69.1105   47.6498   55.7966 C   0  0  0  0  0  0  0  0  0  0  0  0
   68.7274   47.4455   54.4702 C   0  0  0  0  0  0  0  0  0  0  0  0
   68.3040   46.1048   54.1349 C   0  0  0  0  0  0  0  0  0  0  0  0
   68.3131   45.1389   55.0955 C   0  0  0  0  0  0  0  0  0  0  0  0
   68.6934   45.4664   56.2904 N   0  0  0  0  0  0  0  0  0  0  0  0
   69.0812   46.6122   56.7207 C   0  0  0  0  0  0  0  0  0  0  0  0
   71.5496   40.4156   58.4384 C   0  0  0  0  0  0  0  0  0  0  0  0
   71.6473   39.1456   58.5534 C   0  0  0  0  0  0  0  0  0  0  0  0
   71.7460   37.8202   58.6783 C   0  0  0  0  0  0  0  0  0  0  0  0
   71.0627   37.0184   59.6459 C   0  0  0  0  0  0  0  0  0  0  0  0
   71.1589   35.6722   59.5107 C   0  0  0  0  0  0  0  0  0  0  0  0
   71.7945   34.9075   58.6011 C   0  0  0  0  0  0  0  0  0  0  0  0
   71.8701   33.5837   58.4823 O   0  0  0  0  0  0  0  0  0  0  0  0
   72.4980   35.7083   57.5972 C   0  0  0  0  0  0  0  0  0  0  0  0
   72.4249   37.0607   57.7006 C   0  0  0  0  0  0  0  0  0  0  0  0
   73.2142   35.0574   56.5551 C   0  0  0  0  0  0  0  0  0  0  0  0
   72.7983   35.2966   55.3438 O   0  0  0  0  0  0  0  0  0  0  0  0
   74.2607   34.2454   56.6667 O   0  0  0  0  0  0  0  0  0  0  0  0
 11 12  1  0
 12 13  2  0
 12 17  1  0
 13 14  1  0
 14 15  2  0
 15 16  1  0
 16 17  2  0
 17 10  1  0
 10  7  1  0
  7  8  2  0
  7  9  2  0
  7  1  1  0
  1  2  2  0
  1  6  1  0
  2  3  1  0
  3  4  2  0
  4 18  1  0
  4  5  1  0
 18 19  3  0
 19 20  1  0
 20 21  2  0
 20 26  1  0
 21 22  1  0
 22 23  2  0
 23 24  1  0
 23 25  1  0
 25 27  1  0
 25 26  2  0
 27 28  2  0
 27 29  1  0
  5  6  2  0
M  END
>  <minimizedAffinity>  (897) 
-8.69920

$$$$
data/200k_reference_output/data/smiles/76414.pdb
     RDKit          3D

 30 32  0  0  0  0  0  0  0  0999 V2000
   69.7464   47.3253   57.3938 C   0  0  0  0  0  0  0  0  0  0  0  0
   68.5558   47.2216   57.7625 O   0  0  0  0  0  0  0  0  0  0  0  0
   70.0777   47.9728   56.1751 N   0  0  0  0  0  0  0  0  0  0  0  0
   69.0460   48.5486   55.2989 C   0  0  1  0  0  0  0  0  0  0  0  0
   69.3920   49.9328   54.9316 C   0  0  0  0  0  0  0  0  0  0  0  0
   69.2579   50.7533   55.8936 O   0  0  0  0  0  0  0  0  0  0  0  0
   69.8407   50.5792   53.7559 N   0  0  0  0  0  0  0  0  0  0  0  0
   70.5319   51.8736   53.9000 C   0  0  0  0  0  0  0  0  0  0  0  0
   69.6970   50.1152   52.4459 N   0  0  0  0  0  0  0  0  0  0  0  0
   70.3324   48.8136   52.3656 C   0  0  0  0  0  0  0  0  0  0  0  0
   69.3614   47.7978   52.8700 C   0  0  0  0  0  0  0  0  0  0  0  0
   69.0655   46.9175   51.8265 C   0  0  0  0  0  0  0  0  0  0  0  0
   68.1786   45.8861   52.0529 C   0  0  0  0  0  0  0  0  0  0  0  0
   67.6227   45.7683   53.2997 C   0  0  0  0  0  0  0  0  0  0  0  0
   67.9204   46.6429   54.3289 C   0  0  0  0  0  0  0  0  0  0  0  0
   68.8151   47.6920   54.1163 C   0  0  0  0  0  0  0  0  0  0  0  0
   72.0593   47.5582   58.3412 C   0  0  0  0  0  0  0  0  0  0  0  0
   70.8143   46.7448   58.2672 C   0  0  2  0  0  0  0  0  0  0  0  0
   71.1199   45.3981   57.9127 N   0  0  0  0  0  0  0  0  0  0  0  0
   70.5163   44.2973   58.5431 C   0  0  0  0  0  0  0  0  0  0  0  0
   69.6729   44.4962   59.4448 O   0  0  0  0  0  0  0  0  0  0  0  0
   70.8494   42.9003   58.1686 C   0  0  0  0  0  0  0  0  0  0  0  0
   69.6764   42.1919   57.5702 C   0  0  0  0  0  0  0  0  0  0  0  0
   68.8408   42.8959   56.6951 C   0  0  0  0  0  0  0  0  0  0  0  0
   67.7348   42.3255   56.1117 C   0  0  0  0  0  0  0  0  0  0  0  0
   66.9462   43.0547   55.2604 F   0  0  0  0  0  0  0  0  0  0  0  0
   67.4227   41.0064   56.3903 C   0  0  0  0  0  0  0  0  0  0  0  0
   68.2291   40.2819   57.2531 C   0  0  0  0  0  0  0  0  0  0  0  0
   67.9543   39.0161   57.5472 F   0  0  0  0  0  0  0  0  0  0  0  0
   69.3521   40.8887   57.8337 C   0  0  0  0  0  0  0  0  0  0  0  0
 18 17  1  6
 18 19  1  0
 18  1  1  0
 19 20  1  0
 20 21  2  0
 20 22  1  0
 22 23  1  0
 23 24  2  0
 23 30  1  0
 24 25  1  0
 25 26  1  0
 25 27  2  0
 27 28  1  0
 28 29  1  0
 28 30  2  0
  1  2  2  0
  1  3  1  0
  4  3  1  6
  4  5  1  0
  4 16  1  0
  5  6  2  0
  5  7  1  0
  7  8  1  0
  7  9  1  0
  9 10  1  0
 10 11  1  0
 11 12  1  0
 11 16  2  0
 12 13  2  0
 13 14  1  0
 14 15  2  0
 15 16  1  0
M  END
>  <minimizedAffinity>  (898) 
-9.39670

$$$$
data/200k_reference_output/data/smiles/76467.pdb
     RDKit          3D

 30 32  0  0  0  0  0  0  0  0999 V2000
   67.3492   39.1377   59.6384 C   0  0  0  0  0  0  0  0  0  0  0  0
   68.0290   38.8767   58.4673 C   0  0  0  0  0  0  0  0  0  0  0  0
   68.0651   39.8182   57.4374 C   0  0  0  0  0  0  0  0  0  0  0  0
   67.4278   41.0347   57.5547 C   0  0  0  0  0  0  0  0  0  0  0  0
   66.7546   41.2814   58.7273 C   0  0  0  0  0  0  0  0  0  0  0  0
   66.7082   40.3532   59.7648 C   0  0  0  0  0  0  0  0  0  0  0  0
   67.2595   38.0132   60.9668 S   0  0  0  0  0  0  0  0  0  0  0  0
   66.5635   36.7449   60.5140 O   0  0  0  0  0  0  0  0  0  0  0  0
   66.4348   38.6262   62.0436 O   0  0  0  0  0  0  0  0  0  0  0  0
   69.2549   38.0618   62.8055 C   0  0  0  0  0  0  0  0  0  0  0  0
   68.8273   37.5533   61.5175 N   0  0  0  0  0  0  0  0  0  0  0  0
   69.7055   36.7147   60.7826 C   0  0  0  0  0  0  0  0  0  0  0  0
   70.4952   37.2222   59.7439 C   0  0  0  0  0  0  0  0  0  0  0  0
   71.3528   36.4219   59.0217 C   0  0  0  0  0  0  0  0  0  0  0  0
   71.4497   35.0779   59.3136 C   0  0  0  0  0  0  0  0  0  0  0  0
   70.6689   34.5900   60.3359 C   0  0  0  0  0  0  0  0  0  0  0  0
   69.8054   35.3665   61.0729 C   0  0  0  0  0  0  0  0  0  0  0  0
   67.4974   41.9811   56.4489 C   0  0  0  0  0  0  0  0  0  0  0  0
   67.2132   41.6271   55.2579 O   0  0  0  0  0  0  0  0  0  0  0  0
   67.8777   43.3382   56.6043 N   0  0  0  0  0  0  0  0  0  0  0  0
   67.9255   44.2100   55.4802 N   0  0  0  0  0  0  0  0  0  0  0  0
   68.5587   45.4581   55.5295 C   0  0  0  0  0  0  0  0  0  0  0  0
   69.0834   45.7436   56.6595 O   0  0  0  0  0  0  0  0  0  0  0  0
   68.6805   46.4371   54.4657 C   0  0  0  0  0  0  0  0  0  0  0  0
   69.0953   47.7372   54.7405 C   0  0  0  0  0  0  0  0  0  0  0  0
   69.2241   48.6931   53.7685 C   0  0  0  0  0  0  0  0  0  0  0  0
   68.9460   48.4143   52.4481 C   0  0  0  0  0  0  0  0  0  0  0  0
   68.5389   47.1580   52.1397 C   0  0  0  0  0  0  0  0  0  0  0  0
   68.4113   46.1894   53.1457 C   0  0  0  0  0  0  0  0  0  0  0  0
   68.0005   44.9693   52.7458 F   0  0  0  0  0  0  0  0  0  0  0  0
 10 11  1  0
 11 12  1  0
 11  7  1  0
 12 13  2  0
 12 17  1  0
 13 14  1  0
 14 15  2  0
 15 16  1  0
 16 17  2  0
  7  8  2  0
  7  9  2  0
  7  1  1  0
  1  2  2  0
  1  6  1  0
  2  3  1  0
  3  4  2  0
  4 18  1  0
  4  5  1  0
 18 19  2  0
 18 20  1  0
 20 21  1  0
 21 22  1  0
 22 23  2  0
 22 24  1  0
 24 25  2  0
 24 29  1  0
 25 26  1  0
 26 27  2  0
 27 28  1  0
 28 29  2  0
 29 30  1  0
  5  6  2  0
M  END
>  <minimizedAffinity>  (899) 
-8.67314

$$$$
data/200k_reference_output/data/smiles/76586.pdb
     RDKit          3D

 29 32  0  0  0  0  0  0  0  0999 V2000
   67.6343   42.3800   56.9438 C   0  0  0  0  0  0  0  0  0  0  0  0
   66.3774   42.2737   56.9721 O   0  0  0  0  0  0  0  0  0  0  0  0
   68.3958   41.4362   57.6217 N   0  0  0  0  0  0  0  0  0  0  0  0
   69.8289   41.5297   57.6231 C   0  0  0  0  0  0  0  0  0  0  0  0
   70.4754   40.4866   58.5069 C   0  0  0  0  0  0  0  0  0  0  0  0
   69.8875   39.1975   58.3883 N   0  0  0  0  0  0  0  0  0  0  0  0
   68.5132   39.0296   58.0059 C   0  0  0  0  0  0  0  0  0  0  0  0
   67.7847   40.3403   58.3263 C   0  0  0  0  0  0  0  0  0  0  0  0
   70.6352   37.9984   58.6542 C   0  0  0  0  0  0  0  0  0  0  0  0
   70.2305   37.1362   59.6220 C   0  0  0  0  0  0  0  0  0  0  0  0
   70.9348   35.9606   59.9165 C   0  0  0  0  0  0  0  0  0  0  0  0
   72.0604   35.6935   59.1942 C   0  0  0  0  0  0  0  0  0  0  0  0
   72.9416   34.2052   59.5755 Cl  0  0  0  0  0  0  0  0  0  0  0  0
   72.5026   36.5310   58.2125 C   0  0  0  0  0  0  0  0  0  0  0  0
   71.7792   37.6795   57.9553 C   0  0  0  0  0  0  0  0  0  0  0  0
   67.5110   44.0670   55.0756 N   0  0  0  0  0  0  0  0  0  0  0  0
   68.1826   43.5122   56.1813 C   0  0  0  0  0  0  0  0  0  0  0  0
   69.2817   44.0074   56.5183 O   0  0  0  0  0  0  0  0  0  0  0  0
   69.8320   50.4707   51.4663 O   0  0  0  0  0  0  0  0  0  0  0  0
   69.7670   49.4390   52.1258 C   0  0  0  0  0  0  0  0  0  0  0  0
   70.3551   49.3797   53.5052 C   0  0  0  0  0  0  0  0  0  0  0  0
   69.5375   48.5554   54.4231 C   0  0  0  0  0  0  0  0  0  0  0  0
   68.9199   47.3427   53.8456 C   0  0  0  0  0  0  0  0  0  0  0  0
   68.5205   46.2971   54.6997 C   0  0  0  0  0  0  0  0  0  0  0  0
   67.9308   45.1526   54.2628 C   0  0  0  0  0  0  0  0  0  0  0  0
   67.7369   45.0737   52.8705 C   0  0  0  0  0  0  0  0  0  0  0  0
   68.1224   46.0892   52.0293 C   0  0  0  0  0  0  0  0  0  0  0  0
   68.7203   47.2407   52.4988 C   0  0  0  0  0  0  0  0  0  0  0  0
   69.1332   48.2787   51.5955 N   0  0  0  0  0  0  0  0  0  0  0  0
 19 20  2  0
 20 21  1  0
 20 29  1  0
 21 22  1  0
 22 23  1  0
 23 24  1  0
 23 28  2  0
 24 25  2  0
 25 16  1  0
 25 26  1  0
 16 17  1  0
 17 18  2  0
 17  1  1  0
  1  2  2  0
  1  3  1  0
  3  4  1  0
  3  8  1  0
  4  5  1  0
  5  6  1  0
  6  9  1  0
  6  7  1  0
  9 10  2  0
  9 15  1  0
 10 11  1  0
 11 12  2  0
 12 13  1  0
 12 14  1  0
 14 15  2  0
  7  8  1  0
 26 27  2  0
 27 28  1  0
 28 29  1  0
M  END
>  <minimizedAffinity>  (900) 
-8.91574

$$$$
data/200k_reference_output/data/smiles/76652.pdb
     RDKit          3D

 26 28  0  0  0  0  0  0  0  0999 V2000
   72.1334   45.7475   58.5187 O   0  0  0  0  0  0  0  0  0  0  0  0
   71.0511   46.3449   58.3675 C   0  0  0  0  0  0  0  0  0  0  0  0
   69.8438   45.6020   58.4158 N   0  0  0  0  0  0  0  0  0  0  0  0
   69.9428   44.2197   58.6344 N   0  0  0  0  0  0  0  0  0  0  0  0
   69.4449   43.2600   57.7182 C   0  0  0  0  0  0  0  0  0  0  0  0
   68.8966   43.7509   56.6722 O   0  0  0  0  0  0  0  0  0  0  0  0
   69.5147   41.8207   57.8844 C   0  0  0  0  0  0  0  0  0  0  0  0
   68.4222   41.0157   57.6762 C   0  0  0  0  0  0  0  0  0  0  0  0
   68.4995   39.6259   57.8398 C   0  0  0  0  0  0  0  0  0  0  0  0
   69.7004   39.0592   58.2168 C   0  0  0  0  0  0  0  0  0  0  0  0
   70.7977   39.8436   58.4276 C   0  0  0  0  0  0  0  0  0  0  0  0
   72.3059   39.0982   58.9043 Cl  0  0  0  0  0  0  0  0  0  0  0  0
   70.6980   41.2293   58.2594 C   0  0  0  0  0  0  0  0  0  0  0  0
   71.0804   47.8158   58.1415 C   0  0  0  0  0  0  0  0  0  0  0  0
   69.7707   48.3243   57.6196 C   0  0  0  0  0  0  0  0  0  0  0  0
   69.5774   48.1107   56.1857 C   0  0  0  0  0  0  0  0  0  0  0  0
   68.8267   47.1231   55.6569 N   0  0  0  0  0  0  0  0  0  0  0  0
   68.6693   46.9545   54.3313 C   0  0  0  0  0  0  0  0  0  0  0  0
   67.8977   45.9379   53.7981 C   0  0  0  0  0  0  0  0  0  0  0  0
   67.7346   45.7634   52.4374 C   0  0  0  0  0  0  0  0  0  0  0  0
   68.3592   46.6278   51.5495 C   0  0  0  0  0  0  0  0  0  0  0  0
   69.1263   47.6379   52.0923 C   0  0  0  0  0  0  0  0  0  0  0  0
   69.2901   47.8145   53.4484 C   0  0  0  0  0  0  0  0  0  0  0  0
   70.0560   48.8216   53.9991 C   0  0  0  0  0  0  0  0  0  0  0  0
   70.6249   49.6098   53.2075 O   0  0  0  0  0  0  0  0  0  0  0  0
   70.1849   48.9512   55.3315 N   0  0  0  0  0  0  0  0  0  0  0  0
  1  2  2  0
  2 14  1  0
  2  3  1  0
 14 15  1  0
 15 16  1  0
 16 17  2  0
 16 26  1  0
 17 18  1  0
 18 19  2  0
 18 23  1  0
 19 20  1  0
 20 21  2  0
 21 22  1  0
 22 23  2  0
 23 24  1  0
 24 25  2  0
 24 26  1  0
  3  4  1  0
  4  5  1  0
  5  6  2  0
  5  7  1  0
  7  8  2  0
  7 13  1  0
  8  9  1  0
  9 10  2  0
 10 11  1  0
 11 12  1  0
 11 13  2  0
M  END
>  <minimizedAffinity>  (901) 
-8.61252

$$$$
data/200k_reference_output/data/smiles/76769.pdb
     RDKit          3D

 23 25  0  0  0  0  0  0  0  0999 V2000
   69.7002   47.7891   57.3096 C   0  0  0  0  0  0  0  0  0  0  0  0
   70.0898   46.1603   58.9390 O   0  0  0  0  0  0  0  0  0  0  0  0
   69.7534   46.3836   57.7462 C   0  0  0  0  0  0  0  0  0  0  0  0
   69.4589   45.2732   56.9373 N   0  0  0  0  0  0  0  0  0  0  0  0
   69.5117   43.9440   57.3582 N   0  0  0  0  0  0  0  0  0  0  0  0
   68.6463   42.9545   56.8433 C   0  0  0  0  0  0  0  0  0  0  0  0
   67.8153   43.3052   55.9830 O   0  0  0  0  0  0  0  0  0  0  0  0
   68.7271   41.5485   57.3112 C   0  0  0  0  0  0  0  0  0  0  0  0
   67.9044   40.5082   57.0825 C   0  0  0  0  0  0  0  0  0  0  0  0
   68.2059   39.3252   57.6289 C   0  0  0  0  0  0  0  0  0  0  0  0
   69.3345   39.2131   58.3980 C   0  0  0  0  0  0  0  0  0  0  0  0
   69.9827   40.9223   58.3157 S   0  0  0  0  0  0  0  0  0  0  0  0
   68.8419   48.0050   56.2228 O   0  0  0  0  0  0  0  0  0  0  0  0
   69.2121   48.2729   54.9395 C   0  0  0  0  0  0  0  0  0  0  0  0
   70.0245   49.3328   54.5933 C   0  0  0  0  0  0  0  0  0  0  0  0
   70.3770   49.5682   53.2727 C   0  0  0  0  0  0  0  0  0  0  0  0
   69.9154   48.7352   52.2762 C   0  0  0  0  0  0  0  0  0  0  0  0
   69.1016   47.6681   52.5933 C   0  0  0  0  0  0  0  0  0  0  0  0
   68.6361   46.8284   51.5913 C   0  0  0  0  0  0  0  0  0  0  0  0
   67.8217   45.7601   51.9124 C   0  0  0  0  0  0  0  0  0  0  0  0
   67.4772   45.5357   53.2299 C   0  0  0  0  0  0  0  0  0  0  0  0
   67.9485   46.3805   54.2178 C   0  0  0  0  0  0  0  0  0  0  0  0
   68.7651   47.4562   53.9237 C   0  0  0  0  0  0  0  0  0  0  0  0
  2  3  2  0
  3  1  1  0
  3  4  1  0
  1 13  1  0
 13 14  1  0
 14 15  2  0
 14 23  1  0
 15 16  1  0
 16 17  2  0
 17 18  1  0
 18 19  1  0
 18 23  2  0
 19 20  2  0
 20 21  1  0
 21 22  2  0
 22 23  1  0
  4  5  1  0
  5  6  1  0
  6  7  2  0
  6  8  1  0
  8  9  2  0
  8 12  1  0
  9 10  1  0
 10 11  2  0
 11 12  1  0
M  END
>  <minimizedAffinity>  (902) 
-8.61173

$$$$
data/200k_reference_output/data/smiles/76801.pdb
     RDKit          3D

 26 28  0  0  0  0  0  0  0  0999 V2000
   70.1562   42.7928   57.6266 C   0  0  0  0  0  0  0  0  0  0  0  0
   70.8480   43.9233   58.0104 C   0  0  0  0  0  0  0  0  0  0  0  0
   70.4519   45.1689   57.5509 C   0  0  0  0  0  0  0  0  0  0  0  0
   69.3685   45.3265   56.7054 C   0  0  0  0  0  0  0  0  0  0  0  0
   68.7119   44.2241   56.3437 N   0  0  0  0  0  0  0  0  0  0  0  0
   67.6335   44.3224   55.5069 O   0  0  0  0  0  0  0  0  0  0  0  0
   69.0832   42.9833   56.7839 C   0  0  0  0  0  0  0  0  0  0  0  0
   71.7110   41.3597   58.6072 O   0  0  0  0  0  0  0  0  0  0  0  0
   70.5644   41.4796   58.1037 C   0  0  0  0  0  0  0  0  0  0  0  0
   69.7699   40.3291   58.0438 N   0  0  0  0  0  0  0  0  0  0  0  0
   70.1870   39.0533   58.5158 C   0  0  0  0  0  0  0  0  0  0  0  0
   71.3007   38.4309   57.9750 C   0  0  0  0  0  0  0  0  0  0  0  0
   71.7554   37.2029   58.3846 C   0  0  0  0  0  0  0  0  0  0  0  0
   71.0904   36.5370   59.3780 C   0  0  0  0  0  0  0  0  0  0  0  0
   71.5361   35.3162   59.7897 F   0  0  0  0  0  0  0  0  0  0  0  0
   69.9713   37.1296   59.9420 C   0  0  0  0  0  0  0  0  0  0  0  0
   69.5270   38.3678   59.5178 C   0  0  0  0  0  0  0  0  0  0  0  0
   68.8859   46.9052   56.1402 S   0  0  0  0  0  0  0  0  0  0  0  0
   67.5071   47.2308   56.6531 O   0  0  0  0  0  0  0  0  0  0  0  0
   69.8774   47.9344   56.6030 O   0  0  0  0  0  0  0  0  0  0  0  0
   68.8035   46.9122   54.4020 C   0  0  0  0  0  0  0  0  0  0  0  0
   69.5319   47.8406   53.6952 C   0  0  0  0  0  0  0  0  0  0  0  0
   69.4937   47.8670   52.3173 C   0  0  0  0  0  0  0  0  0  0  0  0
   68.7269   46.9668   51.6141 C   0  0  0  0  0  0  0  0  0  0  0  0
   67.9943   46.0323   52.3018 C   0  0  0  0  0  0  0  0  0  0  0  0
   68.0392   46.0127   53.7047 C   0  0  0  0  0  0  0  0  0  0  0  0
  8  9  2  0
  9 10  1  0
  9  1  1  0
 10 11  1  0
 11 12  2  0
 11 17  1  0
 12 13  1  0
 13 14  2  0
 14 15  1  0
 14 16  1  0
 16 17  2  0
  1  2  2  0
  1  7  1  0
  2  3  1  0
  3  4  2  0
  4 18  1  0
  4  5  1  0
 18 19  2  0
 18 20  2  0
 18 21  1  0
 21 22  2  0
 21 26  1  0
 22 23  1  0
 23 24  2  0
 24 25  1  0
 25 26  2  0
  5  6  1  0
  5  7  2  0
M  CHG  2   5   1   6  -1
M  END
>  <minimizedAffinity>  (903) 
-8.89052

$$$$
data/200k_reference_output/data/smiles/77069.pdb
     RDKit          3D

 23 25  0  0  0  0  0  0  0  0999 V2000
   70.2061   44.1077   57.9582 S   0  0  0  0  0  0  0  0  0  0  0  0
   71.6153   44.5667   57.7570 O   0  0  0  0  0  0  0  0  0  0  0  0
   69.7301   44.6852   59.2642 O   0  0  0  0  0  0  0  0  0  0  0  0
   70.1495   42.3563   58.1117 C   0  0  0  0  0  0  0  0  0  0  0  0
   68.9982   41.6379   57.9877 C   0  0  0  0  0  0  0  0  0  0  0  0
   69.0060   40.2664   58.1161 C   0  0  0  0  0  0  0  0  0  0  0  0
   70.1978   39.5834   58.3780 C   0  0  0  0  0  0  0  0  0  0  0  0
   70.2446   38.2139   58.5124 C   0  0  0  0  0  0  0  0  0  0  0  0
   71.4291   37.5517   58.7706 C   0  0  0  0  0  0  0  0  0  0  0  0
   72.6241   38.2624   58.9024 C   0  0  0  0  0  0  0  0  0  0  0  0
   72.5646   39.6243   58.7668 C   0  0  0  0  0  0  0  0  0  0  0  0
   71.3902   40.2983   58.5089 C   0  0  0  0  0  0  0  0  0  0  0  0
   71.3169   41.6683   58.3694 C   0  0  0  0  0  0  0  0  0  0  0  0
   69.1709   44.6148   56.7658 O   0  0  0  0  0  0  0  0  0  0  0  0
   69.4084   45.8468   56.3177 N   0  0  0  0  0  0  0  0  0  0  0  0
   67.5517   47.2510   56.2556 N   0  0  0  0  0  0  0  0  0  0  0  0
   68.4693   46.6439   55.6077 C   0  0  0  0  0  0  0  0  0  0  0  0
   68.5374   46.7773   54.1566 C   0  0  0  0  0  0  0  0  0  0  0  0
   69.3021   47.7528   53.5304 C   0  0  0  0  0  0  0  0  0  0  0  0
   69.3568   47.8683   52.1567 C   0  0  0  0  0  0  0  0  0  0  0  0
   68.6627   47.0274   51.3699 N   0  0  0  0  0  0  0  0  0  0  0  0
   67.9184   46.0780   51.9579 C   0  0  0  0  0  0  0  0  0  0  0  0
   67.8307   45.9235   53.3261 C   0  0  0  0  0  0  0  0  0  0  0  0
 16 17  2  0
 17 15  1  0
 17 18  1  0
 15 14  1  0
 14  1  1  0
  1  2  2  0
  1  3  2  0
  1  4  1  0
  4  5  2  0
  4 13  1  0
  5  6  1  0
  6  7  2  0
  7  8  1  0
  7 12  1  0
  8  9  2  0
  9 10  1  0
 10 11  2  0
 11 12  1  0
 12 13  2  0
 18 19  2  0
 18 23  1  0
 19 20  1  0
 20 21  2  0
 21 22  1  0
 22 23  2  0
M  CHG  1  16   1
M  END
>  <minimizedAffinity>  (904) 
-8.56845

$$$$
data/200k_reference_output/data/smiles/77215.pdb
     RDKit          3D

 26 28  0  0  0  0  0  0  0  0999 V2000
   72.2125   35.2331   52.7385 C   0  0  0  0  0  0  0  0  0  0  0  0
   73.2355   35.1356   53.8464 C   0  0  0  0  0  0  0  0  0  0  0  0
   72.8775   34.8414   55.1225 C   0  0  0  0  0  0  0  0  0  0  0  0
   73.8710   34.7606   56.1073 C   0  0  0  0  0  0  0  0  0  0  0  0
   75.1398   34.9983   55.6563 C   0  0  0  0  0  0  0  0  0  0  0  0
   76.0587   34.9299   56.5450 O   0  0  0  0  0  0  0  0  0  0  0  0
   75.4696   35.2891   54.3926 N   0  0  0  0  0  0  0  0  0  0  0  0
   74.5065   35.3561   53.4825 N   0  0  0  0  0  0  0  0  0  0  0  0
   73.5030   34.4247   57.5049 C   0  0  0  0  0  0  0  0  0  0  0  0
   72.5907   35.4857   58.0126 C   0  0  0  0  0  0  0  0  0  0  0  0
   72.7084   36.7805   57.6104 C   0  0  0  0  0  0  0  0  0  0  0  0
   71.8398   37.7372   58.0908 C   0  0  0  0  0  0  0  0  0  0  0  0
   70.8463   37.3866   58.9837 C   0  0  0  0  0  0  0  0  0  0  0  0
   70.7717   36.1010   59.3498 N   0  0  0  0  0  0  0  0  0  0  0  0
   71.5849   35.1551   58.9107 C   0  0  0  0  0  0  0  0  0  0  0  0
   76.8783   35.5437   54.0318 C   0  0  0  0  0  0  0  0  0  0  0  0
   77.0455   35.0331   52.6467 C   0  0  0  0  0  0  0  0  0  0  0  0
   77.2783   33.8169   52.4901 O   0  0  0  0  0  0  0  0  0  0  0  0
   76.9523   35.8703   51.5050 N   0  0  0  0  0  0  0  0  0  0  0  0
   77.1103   35.4439   50.1641 C   0  0  0  0  0  0  0  0  0  0  0  0
   76.2748   34.5011   49.6062 C   0  0  0  0  0  0  0  0  0  0  0  0
   76.3996   34.0728   48.2982 C   0  0  0  0  0  0  0  0  0  0  0  0
   77.3994   34.6007   47.4971 C   0  0  0  0  0  0  0  0  0  0  0  0
   77.6493   34.0743   45.6856 Br  0  0  0  0  0  0  0  0  0  0  0  0
   78.2414   35.5380   48.0276 C   0  0  0  0  0  0  0  0  0  0  0  0
   78.0940   35.9417   49.3241 C   0  0  0  0  0  0  0  0  0  0  0  0
  1  2  1  0
  2  3  1  0
  2  8  2  0
  3  4  2  0
  4  9  1  0
  4  5  1  0
  9 10  1  0
 10 11  2  0
 10 15  1  0
 11 12  1  0
 12 13  2  0
 13 14  1  0
 14 15  2  0
  5  6  2  0
  5  7  1  0
  7 16  1  0
  7  8  1  0
 16 17  1  0
 17 18  2  0
 17 19  1  0
 19 20  1  0
 20 21  2  0
 20 26  1  0
 21 22  1  0
 22 23  2  0
 23 24  1  0
 23 25  1  0
 25 26  2  0
M  END
>  <minimizedAffinity>  (905) 
-8.65748

$$$$
data/200k_reference_output/data/smiles/77359.pdb
     RDKit          3D

 26 29  0  0  0  0  0  0  0  0999 V2000
   69.2432   47.6913   52.5505 C   0  0  0  0  0  0  0  0  0  0  0  0
   68.8606   46.7071   51.6143 C   0  0  0  0  0  0  0  0  0  0  0  0
   68.0365   45.6995   52.0374 C   0  0  0  0  0  0  0  0  0  0  0  0
   67.5976   45.6534   53.3425 C   0  0  0  0  0  0  0  0  0  0  0  0
   67.9632   46.6024   54.2626 C   0  0  0  0  0  0  0  0  0  0  0  0
   67.7048   46.7943   55.5781 N   0  0  0  0  0  0  0  0  0  0  0  0
   68.3002   47.8444   56.0276 N   0  0  0  0  0  0  0  0  0  0  0  0
   68.9906   48.3913   54.9824 C   0  0  0  0  0  0  0  0  0  0  0  0
   69.6960   49.4357   55.0612 O   0  0  0  0  0  0  0  0  0  0  0  0
   68.8027   47.6358   53.8473 C   0  0  0  0  0  0  0  0  0  0  0  0
   68.3309   48.4496   57.3690 C   0  0  0  0  0  0  0  0  0  0  0  0
   67.1180   49.2390   57.6531 C   0  0  0  0  0  0  0  0  0  0  0  0
   67.2943   50.7381   57.6869 C   0  0  0  0  0  0  0  0  0  0  0  0
   68.5866   51.2269   57.6194 N   0  0  0  0  0  0  0  0  0  0  0  0
   69.5503   50.4691   58.2820 C   0  0  0  0  0  0  0  0  0  0  0  0
   69.6340   49.0885   57.6676 C   0  0  0  0  0  0  0  0  0  0  0  0
   68.9124   52.3536   56.9041 C   0  0  0  0  0  0  0  0  0  0  0  0
   70.2801   52.5286   56.3338 C   0  0  1  0  0  0  0  0  0  0  0  0
   70.3240   52.2602   54.8166 C   0  0  0  0  0  0  0  0  0  0  0  0
   71.7883   52.1011   54.5192 C   0  0  0  0  0  0  0  0  0  0  0  0
   72.6495   52.8846   55.0950 C   0  0  0  0  0  0  0  0  0  0  0  0
   72.3060   53.9440   56.0403 C   0  0  0  0  0  0  0  0  0  0  0  0
   70.8693   53.8808   56.5350 C   0  0  0  0  0  0  0  0  0  0  0  0
   69.7840   49.6213   51.0328 N   0  0  0  0  0  0  0  0  0  0  0  0
   70.1157   48.7050   52.0440 C   0  0  0  0  0  0  0  0  0  0  0  0
   71.3201   48.8143   52.5278 O   0  0  0  0  0  0  0  0  0  0  0  0
 24 25  1  0
 25 26  2  0
 25  1  1  0
  1  2  2  0
  1 10  1  0
  2  3  1  0
  3  4  2  0
  4  5  1  0
  5  6  1  0
  5 10  2  0
  6  7  1  0
  7 11  1  0
  7  8  1  0
 11 12  1  0
 11 16  1  0
 12 13  1  0
 13 14  1  0
 14 17  1  0
 14 15  1  0
 18 17  1  6
 18 19  1  0
 18 23  1  0
 19 20  1  0
 20 21  2  0
 21 22  1  0
 22 23  1  0
 15 16  1  0
  8  9  2  0
  8 10  1  0
M  CHG  1  14   1
M  END
>  <minimizedAffinity>  (906) 
-9.00840

$$$$
data/200k_reference_output/data/smiles/77385.pdb
     RDKit          3D

 27 30  0  0  0  0  0  0  0  0999 V2000
   68.6826   50.1360   57.6196 C   0  0  2  0  0  0  0  0  0  0  0  0
   68.4485   48.9577   56.7533 C   0  0  0  0  0  0  0  0  0  0  0  0
   68.9295   48.9626   55.5313 C   0  0  0  0  0  0  0  0  0  0  0  0
   68.7094   47.8001   54.6515 C   0  0  0  0  0  0  0  0  0  0  0  0
   68.1025   46.6420   55.0679 C   0  0  0  0  0  0  0  0  0  0  0  0
   67.9792   45.6328   54.1095 C   0  0  0  0  0  0  0  0  0  0  0  0
   68.4395   45.7843   52.8197 C   0  0  0  0  0  0  0  0  0  0  0  0
   69.0556   46.9577   52.3956 C   0  0  0  0  0  0  0  0  0  0  0  0
   69.6015   47.4281   51.2582 N   0  0  0  0  0  0  0  0  0  0  0  0
   70.0570   48.6773   51.4600 C   0  0  0  0  0  0  0  0  0  0  0  0
   69.7768   49.0065   52.8082 C   0  0  0  0  0  0  0  0  0  0  0  0
   69.1590   47.9286   53.3645 C   0  0  0  0  0  0  0  0  0  0  0  0
   70.0168   50.2027   53.6173 C   0  0  0  0  0  0  0  0  0  0  0  0
   69.6830   50.1430   55.0613 C   0  0  1  0  0  0  0  0  0  0  0  0
   68.8847   51.3011   55.4444 N   0  0  2  0  0  0  0  0  0  0  0  0
   69.5034   52.5320   54.9504 C   0  0  0  0  0  0  0  0  0  0  0  0
   68.5696   51.3820   56.8270 C   0  0  0  0  0  0  0  0  0  0  0  0
   70.6968   48.8452   58.4764 N   0  0  0  0  0  0  0  0  0  0  0  0
   69.9577   50.0320   58.3976 C   0  0  0  0  0  0  0  0  0  0  0  0
   70.3246   51.0640   58.9724 O   0  0  0  0  0  0  0  0  0  0  0  0
   71.9101   48.6445   59.1700 C   0  0  0  0  0  0  0  0  0  0  0  0
   72.4393   47.2819   59.3704 C   0  0  1  0  0  0  0  0  0  0  0  0
   71.3438   46.3245   58.7688 C   0  0  0  0  0  0  0  0  0  0  0  0
   74.0061   45.5606   58.3665 C   0  0  0  0  0  0  0  0  0  0  0  0
   73.6543   47.0013   58.5058 C   0  0  0  0  0  0  0  0  0  0  0  0
   72.6442   46.7738   60.7463 C   0  0  0  0  0  0  0  0  0  0  0  0
   72.5984   47.8021   61.7000 O   0  0  0  0  0  0  0  0  0  0  0  0
 24 25  1  0
 22 25  1  0
 22 23  1  6
 22 26  1  0
 22 21  1  0
 26 27  1  0
 21 18  1  0
 18 19  1  0
 19 20  2  0
  1 19  1  6
  1  2  1  0
  1 17  1  0
  2  3  2  0
  3  4  1  0
  3 14  1  0
  4  5  2  0
  4 12  1  0
  5  6  1  0
  6  7  2  0
  7  8  1  0
  8  9  1  0
  8 12  2  0
  9 10  1  0
 10 11  2  0
 11 12  1  0
 11 13  1  0
 14 13  1  6
 14 15  1  0
 15 16  1  1
 15 17  1  0
M  CHG  1  15   1
M  END
>  <minimizedAffinity>  (907) 
-8.83100

$$$$
data/200k_reference_output/data/smiles/77480.pdb
     RDKit          3D

 25 27  0  0  0  0  0  0  0  0999 V2000
   67.3813   41.8816   56.8338 S   0  0  0  0  0  0  0  0  0  0  0  0
   66.1505   41.8552   57.6657 O   0  0  0  0  0  0  0  0  0  0  0  0
   67.0862   41.4732   55.3994 O   0  0  0  0  0  0  0  0  0  0  0  0
   68.5488   40.7918   57.5328 C   0  0  0  0  0  0  0  0  0  0  0  0
   68.2708   39.4843   57.8351 C   0  0  0  0  0  0  0  0  0  0  0  0
   69.2304   38.6711   58.3840 C   0  0  0  0  0  0  0  0  0  0  0  0
   70.4991   39.1317   58.6515 C   0  0  0  0  0  0  0  0  0  0  0  0
   71.4828   38.3326   59.2047 C   0  0  0  0  0  0  0  0  0  0  0  0
   72.7456   38.8316   59.4598 C   0  0  0  0  0  0  0  0  0  0  0  0
   73.0174   40.1550   59.1506 C   0  0  0  0  0  0  0  0  0  0  0  0
   72.0272   40.9418   58.5989 C   0  0  0  0  0  0  0  0  0  0  0  0
   70.7523   40.4592   58.3365 C   0  0  0  0  0  0  0  0  0  0  0  0
   69.8172   41.2863   57.7897 C   0  0  0  0  0  0  0  0  0  0  0  0
   68.0325   43.4584   56.7837 N   0  0  0  0  0  0  0  0  0  0  0  0
   68.2162   45.3423   55.2283 C   0  0  0  0  0  0  0  0  0  0  0  0
   68.3547   46.1277   56.2269 O   0  0  0  0  0  0  0  0  0  0  0  0
   68.0502   43.9742   55.4823 N   0  0  0  0  0  0  0  0  0  0  0  0
   68.9567   47.3744   52.1504 C   0  0  0  0  0  0  0  0  0  0  0  0
   68.1609   46.7195   51.2409 C   0  0  0  0  0  0  0  0  0  0  0  0
   67.4071   45.6418   51.6416 C   0  0  0  0  0  0  0  0  0  0  0  0
   67.4254   45.1919   52.9436 C   0  0  0  0  0  0  0  0  0  0  0  0
   68.2300   45.8514   53.8691 C   0  0  0  0  0  0  0  0  0  0  0  0
   68.9803   46.9237   53.4726 C   0  0  0  0  0  0  0  0  0  0  0  0
   69.8229   49.5888   52.6589 C   0  0  0  0  0  0  0  0  0  0  0  0
   69.7398   48.4678   51.8034 O   0  0  0  0  0  0  0  0  0  0  0  0
 24 25  1  0
 25 18  1  0
 18 19  2  0
 18 23  1  0
 19 20  1  0
 20 21  2  0
 21 22  1  0
 22 15  1  0
 22 23  2  0
 15 16  2  0
 15 17  1  0
 17 14  1  0
 14  1  1  0
  1  2  2  0
  1  3  2  0
  1  4  1  0
  4  5  2  0
  4 13  1  0
  5  6  1  0
  6  7  2  0
  7  8  1  0
  7 12  1  0
  8  9  2  0
  9 10  1  0
 10 11  2  0
 11 12  1  0
 12 13  2  0
M  END
>  <minimizedAffinity>  (908) 
-8.57635

$$$$
data/200k_reference_output/data/smiles/77629.pdb
     RDKit          3D

 28 30  0  0  0  0  0  0  0  0999 V2000
   68.5912   41.8275   57.2452 C   0  0  0  0  0  0  0  0  0  0  0  0
   67.8227   40.7577   57.2390 C   0  0  0  0  0  0  0  0  0  0  0  0
   68.0470   39.5156   58.0089 C   0  0  0  0  0  0  0  0  0  0  0  0
   69.5364   39.4407   58.2739 C   0  0  1  0  0  0  0  0  0  0  0  0
   69.8672   40.6846   59.0633 C   0  0  1  0  0  0  0  0  0  0  0  0
   71.1319   40.6157   59.7209 N   0  0  0  0  0  0  0  0  0  0  0  0
   69.8079   41.8358   58.0870 C   0  0  0  0  0  0  0  0  0  0  0  0
   69.9388   38.2018   58.9301 C   0  0  0  0  0  0  0  0  0  0  0  0
   71.0513   37.5222   58.4878 C   0  0  0  0  0  0  0  0  0  0  0  0
   71.4711   36.3338   59.0856 C   0  0  0  0  0  0  0  0  0  0  0  0
   72.5659   35.6611   58.6534 F   0  0  0  0  0  0  0  0  0  0  0  0
   70.7495   35.8301   60.1493 C   0  0  0  0  0  0  0  0  0  0  0  0
   71.1478   34.6745   60.7400 F   0  0  0  0  0  0  0  0  0  0  0  0
   69.6337   36.5125   60.5930 C   0  0  0  0  0  0  0  0  0  0  0  0
   68.9594   35.9798   61.6361 F   0  0  0  0  0  0  0  0  0  0  0  0
   69.2134   37.7052   59.9903 C   0  0  0  0  0  0  0  0  0  0  0  0
   69.0507   44.1826   56.4181 N   0  0  0  0  0  0  0  0  0  0  0  0
   68.2665   43.0115   56.4337 C   0  0  0  0  0  0  0  0  0  0  0  0
   67.2375   42.9587   55.7274 O   0  0  0  0  0  0  0  0  0  0  0  0
   68.1644   46.4606   53.6040 C   0  0  0  0  0  0  0  0  0  0  0  0
   68.2341   47.6602   54.2348 C   0  0  0  0  0  0  0  0  0  0  0  0
   68.5635   47.7404   55.5549 C   0  0  0  0  0  0  0  0  0  0  0  0
   68.8324   46.5694   56.2634 C   0  0  0  0  0  0  0  0  0  0  0  0
   68.7701   45.3362   55.6542 C   0  0  0  0  0  0  0  0  0  0  0  0
   68.4347   45.2986   54.3226 C   0  0  0  0  0  0  0  0  0  0  0  0
   68.4992   47.0615   51.1763 N   0  0  0  0  0  0  0  0  0  0  0  0
   67.8150   46.3585   52.2015 C   0  0  0  0  0  0  0  0  0  0  0  0
   66.8588   45.6118   51.8777 O   0  0  0  0  0  0  0  0  0  0  0  0
 26 27  1  0
 27 28  2  0
 27 20  1  0
 20 21  2  0
 20 25  1  0
 21 22  1  0
 22 23  2  0
 23 24  1  0
 24 17  1  0
 24 25  2  0
 17 18  1  0
 18 19  2  0
 18  1  1  0
  1  2  2  0
  1  7  1  0
  2  3  1  0
  3  4  1  0
  4  8  1  1
  4  5  1  0
  8  9  2  0
  8 16  1  0
  9 10  1  0
 10 11  1  0
 10 12  2  0
 12 13  1  0
 12 14  1  0
 14 15  1  0
 14 16  2  0
  5  6  1  6
  5  7  1  0
M  CHG  1   6   1
M  END
>  <minimizedAffinity>  (909) 
-8.74265

$$$$
data/200k_reference_output/data/smiles/77664.pdb
     RDKit          3D

 23 25  0  0  0  0  0  0  0  0999 V2000
   68.9491   46.2479   56.4506 C   0  0  0  0  0  0  0  0  0  0  0  0
   69.6722   46.3231   57.4927 O   0  0  0  0  0  0  0  0  0  0  0  0
   68.6190   44.9407   56.0153 N   0  0  0  0  0  0  0  0  0  0  0  0
   69.0483   43.7548   56.6758 C   0  0  0  0  0  0  0  0  0  0  0  0
   70.2561   43.6953   57.3584 C   0  0  0  0  0  0  0  0  0  0  0  0
   70.6759   42.5458   58.0012 C   0  0  0  0  0  0  0  0  0  0  0  0
   69.8889   41.4167   57.9761 C   0  0  0  0  0  0  0  0  0  0  0  0
   70.2462   40.2392   58.5948 C   0  0  0  0  0  0  0  0  0  0  0  0
   69.4556   39.1384   58.5574 N   0  0  0  0  0  0  0  0  0  0  0  0
   68.2808   39.1284   57.9183 C   0  0  0  0  0  0  0  0  0  0  0  0
   67.8893   40.2865   57.2871 C   0  0  0  0  0  0  0  0  0  0  0  0
   68.6797   41.4380   57.3063 C   0  0  0  0  0  0  0  0  0  0  0  0
   68.2936   42.5965   56.6787 C   0  0  0  0  0  0  0  0  0  0  0  0
   68.4768   47.4731   55.7270 C   0  0  2  0  0  0  0  0  0  0  0  0
   68.6381   47.3225   54.2629 C   0  0  0  0  0  0  0  0  0  0  0  0
   67.9054   46.3415   53.6430 C   0  0  0  0  0  0  0  0  0  0  0  0
   67.9977   46.1365   52.2836 C   0  0  0  0  0  0  0  0  0  0  0  0
   68.8382   46.9248   51.5214 C   0  0  0  0  0  0  0  0  0  0  0  0
   69.5871   47.9191   52.1190 C   0  0  0  0  0  0  0  0  0  0  0  0
   70.4262   48.7063   51.3605 O   0  0  0  0  0  0  0  0  0  0  0  0
   69.4704   48.1022   53.5010 C   0  0  0  0  0  0  0  0  0  0  0  0
   68.6604   49.7137   56.7077 N   0  0  0  0  0  0  0  0  0  0  0  0
   69.4132   48.6156   56.1418 C   0  0  0  0  0  0  0  0  0  0  0  0
 22 23  1  0
 14 23  1  1
 14  1  1  0
 14 15  1  0
  1  2  2  0
  1  3  1  0
  3  4  1  0
  4  5  2  0
  4 13  1  0
  5  6  1  0
  6  7  2  0
  7  8  1  0
  7 12  1  0
  8  9  2  0
  9 10  1  0
 10 11  2  0
 11 12  1  0
 12 13  2  0
 15 16  2  0
 15 21  1  0
 16 17  1  0
 17 18  2  0
 18 19  1  0
 19 20  1  0
 19 21  2  0
M  CHG  1  22   1
M  END
>  <minimizedAffinity>  (910) 
-8.53574

$$$$
data/200k_reference_output/data/smiles/77674.pdb
     RDKit          3D

 28 32  0  0  0  0  0  0  0  0999 V2000
   76.5169   34.5574   55.9518 C   0  0  0  0  0  0  0  0  0  0  0  0
   75.4037   34.8318   54.9909 C   0  0  0  0  0  0  0  0  0  0  0  0
   75.4513   35.5808   53.8693 N   0  0  0  0  0  0  0  0  0  0  0  0
   74.2385   35.5739   53.2873 C   0  0  0  0  0  0  0  0  0  0  0  0
   73.4368   34.8061   54.0714 C   0  0  0  0  0  0  0  0  0  0  0  0
   74.1626   34.3532   55.1169 N   0  0  0  0  0  0  0  0  0  0  0  0
   76.5853   36.2870   53.3425 C   0  0  0  0  0  0  0  0  0  0  0  0
   77.2521   35.5533   52.2302 C   0  0  0  0  0  0  0  0  0  0  0  0
   77.9690   34.4100   52.5117 C   0  0  0  0  0  0  0  0  0  0  0  0
   78.5971   33.7100   51.4993 C   0  0  0  0  0  0  0  0  0  0  0  0
   78.5238   34.1345   50.1864 C   0  0  0  0  0  0  0  0  0  0  0  0
   79.1452   33.4518   49.1469 C   0  0  0  0  0  0  0  0  0  0  0  0
   79.0549   33.9034   47.8258 C   0  0  0  0  0  0  0  0  0  0  0  0
   78.3276   35.0556   47.5736 C   0  0  0  0  0  0  0  0  0  0  0  0
   77.7266   35.7050   48.6281 C   0  0  0  0  0  0  0  0  0  0  0  0
   77.7962   35.2861   49.9373 C   0  0  0  0  0  0  0  0  0  0  0  0
   77.1909   35.9522   50.9473 N   0  0  0  0  0  0  0  0  0  0  0  0
   73.6432   33.5056   56.1595 C   0  0  0  0  0  0  0  0  0  0  0  0
   72.8645   34.2900   57.1819 C   0  0  0  0  0  0  0  0  0  0  0  0
   72.3279   33.6697   58.2909 C   0  0  0  0  0  0  0  0  0  0  0  0
   71.6189   34.4125   59.2113 C   0  0  0  0  0  0  0  0  0  0  0  0
   71.4380   35.7694   59.0393 C   0  0  0  0  0  0  0  0  0  0  0  0
   70.7237   36.5150   59.9683 C   0  0  0  0  0  0  0  0  0  0  0  0
   70.5344   37.8791   59.8069 C   0  0  0  0  0  0  0  0  0  0  0  0
   71.0840   38.4858   58.6819 C   0  0  0  0  0  0  0  0  0  0  0  0
   71.7858   37.7163   57.7814 C   0  0  0  0  0  0  0  0  0  0  0  0
   71.9861   36.3656   57.9201 C   0  0  0  0  0  0  0  0  0  0  0  0
   72.6707   35.6136   57.0426 N   0  0  0  0  0  0  0  0  0  0  0  0
  1  2  1  0
  2  3  1  0
  2  6  2  0
  3  7  1  0
  3  4  1  0
  7  8  1  0
  8  9  2  0
  8 17  1  0
  9 10  1  0
 10 11  2  0
 11 12  1  0
 11 16  1  0
 12 13  2  0
 13 14  1  0
 14 15  2  0
 15 16  1  0
 16 17  2  0
  4  5  2  0
  5  6  1  0
  6 18  1  0
 18 19  1  0
 19 20  2  0
 19 28  1  0
 20 21  1  0
 21 22  2  0
 22 23  1  0
 22 27  1  0
 23 24  2  0
 24 25  1  0
 25 26  2  0
 26 27  1  0
 27 28  2  0
M  CHG  1   6   1
M  END
>  <minimizedAffinity>  (911) 
-8.56873

$$$$
data/200k_reference_output/data/smiles/77843.pdb
     RDKit          3D

 28 29  0  0  0  0  0  0  0  0999 V2000
   70.8223   50.2122   55.5604 C   0  0  0  0  0  0  0  0  0  0  0  0
   72.0160   49.7401   55.6097 O   0  0  0  0  0  0  0  0  0  0  0  0
   70.0025   49.7225   56.6474 N   0  0  0  0  0  0  0  0  0  0  0  0
   70.5290   48.8380   57.6075 C   0  0  0  0  0  0  0  0  0  0  0  0
   71.2563   49.2487   58.6975 C   0  0  0  0  0  0  0  0  0  0  0  0
   71.7785   48.3317   59.5795 C   0  0  0  0  0  0  0  0  0  0  0  0
   71.6012   46.9645   59.4162 C   0  0  0  0  0  0  0  0  0  0  0  0
   70.8620   46.5502   58.3086 C   0  0  0  0  0  0  0  0  0  0  0  0
   70.3588   47.4858   57.4554 C   0  0  0  0  0  0  0  0  0  0  0  0
   70.6689   45.0732   58.1133 C   0  0  0  0  0  0  0  0  0  0  0  0
   71.9207   44.5472   57.7724 F   0  0  0  0  0  0  0  0  0  0  0  0
   70.1715   44.4463   59.1953 F   0  0  0  0  0  0  0  0  0  0  0  0
   69.8580   44.9096   56.9955 F   0  0  0  0  0  0  0  0  0  0  0  0
   72.1469   45.9831   60.3061 C   0  0  0  0  0  0  0  0  0  0  0  0
   72.5780   45.1726   61.0461 N   0  0  0  0  0  0  0  0  0  0  0  0
   69.9143   52.4271   55.1407 C   0  0  0  0  0  0  0  0  0  0  0  0
   70.4006   51.1232   54.5066 C   0  0  1  0  0  0  0  0  0  0  0  0
   71.5893   51.5275   53.8135 O   0  0  0  0  0  0  0  0  0  0  0  0
   69.4928   50.6003   53.4696 C   0  0  0  0  0  0  0  0  0  0  0  0
   70.0046   49.2213   52.5502 S   0  0  0  0  0  0  0  0  0  0  0  0
   69.8362   49.5473   51.0748 O   0  0  0  0  0  0  0  0  0  0  0  0
   71.4715   48.9919   52.7455 O   0  0  0  0  0  0  0  0  0  0  0  0
   69.1041   47.7797   52.8817 C   0  0  0  0  0  0  0  0  0  0  0  0
   68.6810   46.9453   51.8722 C   0  0  0  0  0  0  0  0  0  0  0  0
   67.9911   45.8120   52.2309 C   0  0  0  0  0  0  0  0  0  0  0  0
   67.7199   45.5005   53.5571 C   0  0  0  0  0  0  0  0  0  0  0  0
   68.1488   46.3465   54.5879 C   0  0  0  0  0  0  0  0  0  0  0  0
   68.8364   47.4773   54.2158 C   0  0  0  0  0  0  0  0  0  0  0  0
 17 16  1  1
 17 18  1  0
 17 19  1  0
 17  1  1  0
 19 20  1  0
 20 21  2  0
 20 22  2  0
 20 23  1  0
 23 24  2  0
 23 28  1  0
 24 25  1  0
 25 26  2  0
 26 27  1  0
 27 28  2  0
  1  2  2  0
  1  3  1  0
  3  4  1  0
  4  5  2  0
  4  9  1  0
  5  6  1  0
  6  7  2  0
  7 14  1  0
  7  8  1  0
 14 15  3  0
  8 10  1  0
  8  9  2  0
 10 11  1  0
 10 12  1  0
 10 13  1  0
M  END
>  <minimizedAffinity>  (912) 
-8.77036

$$$$
data/200k_reference_output/data/smiles/77972.pdb
     RDKit          3D

 24 25  0  0  0  0  0  0  0  0999 V2000
   68.0001   43.7539   56.1823 N   0  0  0  0  0  0  0  0  0  0  0  0
   68.9400   42.8882   56.7504 C   0  0  0  0  0  0  0  0  0  0  0  0
   70.1576   43.1627   56.6591 O   0  0  0  0  0  0  0  0  0  0  0  0
   68.5761   41.6877   57.4392 N   0  0  0  0  0  0  0  0  0  0  0  0
   69.5685   40.8524   57.9921 C   0  0  0  0  0  0  0  0  0  0  0  0
   70.7622   41.4196   58.4224 C   0  0  0  0  0  0  0  0  0  0  0  0
   71.7534   40.6336   58.9668 C   0  0  0  0  0  0  0  0  0  0  0  0
   71.6092   39.2625   59.1114 C   0  0  0  0  0  0  0  0  0  0  0  0
   72.6168   38.5363   59.6544 F   0  0  0  0  0  0  0  0  0  0  0  0
   70.4206   38.7085   58.6825 C   0  0  0  0  0  0  0  0  0  0  0  0
   70.2351   37.3753   58.8025 F   0  0  0  0  0  0  0  0  0  0  0  0
   69.4111   39.4858   58.1307 C   0  0  0  0  0  0  0  0  0  0  0  0
   68.2507   38.9503   57.7108 F   0  0  0  0  0  0  0  0  0  0  0  0
   68.6159   47.3304   53.9368 C   0  0  0  0  0  0  0  0  0  0  0  0
   69.0462   47.2443   55.2353 C   0  0  0  0  0  0  0  0  0  0  0  0
   68.8472   46.0692   55.9838 C   0  0  0  0  0  0  0  0  0  0  0  0
   68.2275   44.9576   55.4838 C   0  0  0  0  0  0  0  0  0  0  0  0
   67.7967   45.0710   54.1514 C   0  0  0  0  0  0  0  0  0  0  0  0
   67.9915   46.2178   53.4242 C   0  0  0  0  0  0  0  0  0  0  0  0
   68.7843   48.4615   53.1519 O   0  0  0  0  0  0  0  0  0  0  0  0
   69.7532   49.9180   50.9174 N   0  0  0  0  0  0  0  0  0  0  0  0
   70.0566   48.6255   52.0340 S   0  0  0  0  0  0  0  0  0  0  0  0
   71.3612   48.8968   52.6975 O   0  0  0  0  0  0  0  0  0  0  0  0
   70.1140   47.3442   51.2406 O   0  0  0  0  0  0  0  0  0  0  0  0
 21 22  1  0
 22 23  2  0
 22 24  2  0
 22 20  1  0
 20 14  1  0
 14 15  2  0
 14 19  1  0
 15 16  1  0
 16 17  2  0
 17  1  1  0
 17 18  1  0
  1  2  1  0
  2  3  2  0
  2  4  1  0
  4  5  1  0
  5  6  2  0
  5 12  1  0
  6  7  1  0
  7  8  2  0
  8  9  1  0
  8 10  1  0
 10 11  1  0
 10 12  2  0
 12 13  1  0
 18 19  2  0
M  END
>  <minimizedAffinity>  (913) 
-8.67612

$$$$
data/200k_reference_output/data/smiles/78210.pdb
     RDKit          3D

 19 20  0  0  0  0  0  0  0  0999 V2000
   69.3278   47.7453   52.9016 C   0  0  0  0  0  0  0  0  0  0  0  0
   69.2332   47.7193   54.2971 C   0  0  0  0  0  0  0  0  0  0  0  0
   68.4767   46.8111   54.9928 C   0  0  0  0  0  0  0  0  0  0  0  0
   67.7889   45.8910   54.1900 C   0  0  0  0  0  0  0  0  0  0  0  0
   67.8737   45.9063   52.8164 C   0  0  0  0  0  0  0  0  0  0  0  0
   68.6438   46.8333   52.1606 C   0  0  0  0  0  0  0  0  0  0  0  0
   68.6805   46.7857   50.7711 O   0  0  0  0  0  0  0  0  0  0  0  0
   69.7413   49.3361   51.2386 O   0  0  0  0  0  0  0  0  0  0  0  0
   70.1505   48.7404   52.2600 C   0  0  0  0  0  0  0  0  0  0  0  0
   71.3939   49.0333   52.7789 O   0  0  0  0  0  0  0  0  0  0  0  0
   68.3805   46.7514   56.3893 N   0  0  0  0  0  0  0  0  0  0  0  0
   69.0469   47.5649   57.3566 C   0  0  0  0  0  0  0  0  0  0  0  0
   68.5195   48.9360   57.3572 C   0  0  0  0  0  0  0  0  0  0  0  0
   69.2442   50.0468   57.0130 C   0  0  0  0  0  0  0  0  0  0  0  0
   68.6741   51.3264   57.0068 C   0  0  0  0  0  0  0  0  0  0  0  0
   67.3633   51.4627   57.3524 C   0  0  0  0  0  0  0  0  0  0  0  0
   66.6122   50.3368   57.7052 C   0  0  0  0  0  0  0  0  0  0  0  0
   67.1730   49.0825   57.7123 C   0  0  0  0  0  0  0  0  0  0  0  0
   66.3957   48.0008   58.0659 O   0  0  0  0  0  0  0  0  0  0  0  0
  8  9  2  0
  9 10  1  0
  9  1  1  0
  1  2  2  0
  1  6  1  0
  2  3  1  0
  3 11  1  0
  3  4  2  0
 11 12  1  0
 12 13  1  0
 13 14  2  0
 13 18  1  0
 14 15  1  0
 15 16  2  0
 16 17  1  0
 17 18  2  0
 18 19  1  0
  4  5  1  0
  5  6  2  0
  6  7  1  0
M  END
>  <minimizedAffinity>  (914) 
-8.79231

$$$$
data/200k_reference_output/data/smiles/78315.pdb
     RDKit          3D

 31 34  0  0  0  0  0  0  0  0999 V2000
   73.4424   35.4730   56.0723 C   0  0  0  0  0  0  0  0  0  0  0  0
   72.7327   35.6091   54.8777 C   0  0  0  0  0  0  0  0  0  0  0  0
   73.3562   35.5949   53.7147 O   0  0  0  0  0  0  0  0  0  0  0  0
   74.6450   35.4620   53.5481 C   0  0  0  0  0  0  0  0  0  0  0  0
   75.2543   35.4424   52.3184 C   0  0  0  0  0  0  0  0  0  0  0  0
   76.6064   35.2919   52.1306 C   0  0  0  0  0  0  0  0  0  0  0  0
   77.3760   35.1598   53.3019 C   0  0  0  0  0  0  0  0  0  0  0  0
   76.7689   35.1803   54.5370 C   0  0  0  0  0  0  0  0  0  0  0  0
   75.4058   35.3281   54.7094 C   0  0  0  0  0  0  0  0  0  0  0  0
   74.7969   35.3361   55.9465 C   0  0  0  0  0  0  0  0  0  0  0  0
   75.5165   35.2128   57.0058 O   0  0  0  0  0  0  0  0  0  0  0  0
   71.1795   35.4077   59.6829 C   0  0  0  0  0  0  0  0  0  0  0  0
   71.4053   36.5651   58.9654 C   0  0  0  0  0  0  0  0  0  0  0  0
   72.1541   36.5513   57.8374 C   0  0  0  0  0  0  0  0  0  0  0  0
   72.7319   35.3800   57.3342 C   0  0  0  0  0  0  0  0  0  0  0  0
   72.5164   34.2229   58.0368 C   0  0  0  0  0  0  0  0  0  0  0  0
   71.7373   34.2237   59.2227 C   0  0  0  0  0  0  0  0  0  0  0  0
   70.3298   35.4879   60.8331 N   0  0  0  0  0  0  0  0  0  0  0  0
   70.4557   37.3887   62.9649 C   0  0  0  0  0  0  0  0  0  0  0  0
   71.0647   35.8011   62.3635 S   0  0  0  0  0  0  0  0  0  0  0  0
   72.5642   35.9611   62.1945 O   0  0  0  0  0  0  0  0  0  0  0  0
   70.7082   34.7350   63.3292 O   0  0  0  0  0  0  0  0  0  0  0  0
   77.2098   35.1920   50.8421 C   0  0  0  0  0  0  0  0  0  0  0  0
   77.7310   35.0887   49.7274 C   0  0  0  0  0  0  0  0  0  0  0  0
   78.3140   34.9694   48.4209 C   0  0  0  0  0  0  0  0  0  0  0  0
   79.6786   34.9201   48.2488 C   0  0  0  0  0  0  0  0  0  0  0  0
   80.2281   34.8045   46.9729 C   0  0  0  0  0  0  0  0  0  0  0  0
   79.4492   34.7395   45.8909 N   0  0  0  0  0  0  0  0  0  0  0  0
   78.1225   34.7856   46.0152 C   0  0  0  0  0  0  0  0  0  0  0  0
   77.3993   34.7246   45.0007 O   0  0  0  0  0  0  0  0  0  0  0  0
   77.5394   34.9008   47.2764 C   0  0  0  0  0  0  0  0  0  0  0  0
 19 20  1  0
 20 21  2  0
 20 22  2  0
 20 18  1  0
 18 12  1  0
 12 13  2  0
 12 17  1  0
 13 14  1  0
 14 15  2  0
 15  1  1  0
 15 16  1  0
  1  2  2  0
  1 10  1  0
  2  3  1  0
  3  4  1  0
  4  5  2  0
  4  9  1  0
  5  6  1  0
  6 23  1  0
  6  7  2  0
 23 24  3  0
 24 25  1  0
 25 26  1  0
 25 31  2  0
 26 27  2  0
 27 28  1  0
 28 29  1  0
 29 30  2  0
 29 31  1  0
  7  8  1  0
  8  9  2  0
  9 10  1  0
 10 11  2  0
 16 17  2  0
M  END
>  <minimizedAffinity>  (915) 
-8.89456

$$$$
data/200k_reference_output/data/smiles/78351.pdb
     RDKit          3D

 24 26  0  0  0  0  0  0  0  0999 V2000
   69.3096   44.1850   57.1333 O   0  0  0  0  0  0  0  0  0  0  0  0
   69.7579   45.3252   57.3938 C   0  0  0  0  0  0  0  0  0  0  0  0
   70.9221   45.5854   58.1962 N   0  0  0  0  0  0  0  0  0  0  0  0
   71.1036   47.0071   58.2549 C   0  0  0  0  0  0  0  0  0  0  0  0
   72.0112   47.6399   58.8585 O   0  0  0  0  0  0  0  0  0  0  0  0
   70.0253   47.5770   57.4761 C   0  0  0  0  0  0  0  0  0  0  0  0
   69.2524   46.6188   56.9794 C   0  0  0  0  0  0  0  0  0  0  0  0
   69.7487   49.0092   57.2643 C   0  0  0  0  0  0  0  0  0  0  0  0
   68.6250   49.6035   57.7773 C   0  0  0  0  0  0  0  0  0  0  0  0
   68.3620   50.9377   57.5698 C   0  0  0  0  0  0  0  0  0  0  0  0
   69.2523   51.7072   56.8251 C   0  0  0  0  0  0  0  0  0  0  0  0
   68.9981   53.4106   56.5198 Cl  0  0  0  0  0  0  0  0  0  0  0  0
   70.3982   51.1029   56.3012 C   0  0  0  0  0  0  0  0  0  0  0  0
   70.6207   49.7748   56.5298 C   0  0  0  0  0  0  0  0  0  0  0  0
   68.1069   46.8183   56.1366 N   0  0  0  0  0  0  0  0  0  0  0  0
   68.3341   46.8108   54.7060 C   0  0  0  0  0  0  0  0  0  0  0  0
   67.7173   45.9080   53.8649 C   0  0  0  0  0  0  0  0  0  0  0  0
   67.9215   45.9088   52.4990 C   0  0  0  0  0  0  0  0  0  0  0  0
   68.7745   46.8453   51.9440 C   0  0  0  0  0  0  0  0  0  0  0  0
   69.4093   47.7620   52.7471 C   0  0  0  0  0  0  0  0  0  0  0  0
   69.1774   47.7307   54.1263 C   0  0  0  0  0  0  0  0  0  0  0  0
   70.3052   48.7209   52.1417 C   0  0  0  0  0  0  0  0  0  0  0  0
   70.0315   49.2317   51.0386 O   0  0  0  0  0  0  0  0  0  0  0  0
   71.4659   49.0758   52.7857 O   0  0  0  0  0  0  0  0  0  0  0  0
  1  2  2  0
  2  3  1  0
  2  7  1  0
  3  4  1  0
  4  5  2  0
  4  6  1  0
  6  8  1  0
  6  7  2  0
  8  9  2  0
  8 14  1  0
  9 10  1  0
 10 11  2  0
 11 12  1  0
 11 13  1  0
 13 14  2  0
  7 15  1  0
 15 16  1  0
 16 17  2  0
 16 21  1  0
 17 18  1  0
 18 19  2  0
 19 20  1  0
 20 22  1  0
 20 21  2  0
 22 23  2  0
 22 24  1  0
M  END
>  <minimizedAffinity>  (916) 
-8.56327

$$$$
data/200k_reference_output/data/smiles/78364.pdb
     RDKit          3D

 24 26  0  0  0  0  0  0  0  0999 V2000
   70.9190   40.0396   59.0118 C   0  0  0  0  0  0  0  0  0  0  0  0
   70.0659   38.9591   58.8204 C   0  0  0  0  0  0  0  0  0  0  0  0
   68.8902   39.1225   58.0722 C   0  0  0  0  0  0  0  0  0  0  0  0
   68.5431   40.3313   57.5097 C   0  0  0  0  0  0  0  0  0  0  0  0
   69.3837   41.4019   57.6961 C   0  0  0  0  0  0  0  0  0  0  0  0
   70.5452   41.2371   58.4370 C   0  0  0  0  0  0  0  0  0  0  0  0
   68.7975   42.5645   57.0185 C   0  0  0  0  0  0  0  0  0  0  0  0
   69.2650   43.7573   56.9437 N   0  0  0  0  0  0  0  0  0  0  0  0
   67.5466   42.1164   56.4138 C   0  0  0  0  0  0  0  0  0  0  0  0
   66.7172   42.7762   55.7420 O   0  0  0  0  0  0  0  0  0  0  0  0
   67.3934   40.7357   56.7202 N   0  0  0  0  0  0  0  0  0  0  0  0
   68.6623   44.8170   56.2922 N   0  0  0  0  0  0  0  0  0  0  0  0
   69.0375   46.1938   56.4023 C   0  0  0  0  0  0  0  0  0  0  0  0
   70.0080   46.4921   57.1339 O   0  0  0  0  0  0  0  0  0  0  0  0
   68.2433   47.1926   55.6264 C   0  0  0  0  0  0  0  0  0  0  0  0
   68.8962   47.5733   54.3414 C   0  0  0  0  0  0  0  0  0  0  0  0
   69.6988   48.6725   54.2215 C   0  0  0  0  0  0  0  0  0  0  0  0
   70.2897   49.0104   53.0086 C   0  0  0  0  0  0  0  0  0  0  0  0
   70.0638   48.2254   51.9018 C   0  0  0  0  0  0  0  0  0  0  0  0
   70.6669   48.5905   50.7061 O   0  0  0  0  0  0  0  0  0  0  0  0
   69.2560   47.1221   52.0262 C   0  0  0  0  0  0  0  0  0  0  0  0
   68.6804   46.7956   53.2205 C   0  0  0  0  0  0  0  0  0  0  0  0
   73.0427   38.9568   59.3877 C   0  0  0  0  0  0  0  0  0  0  0  0
   72.1058   39.9432   59.7447 O   0  0  0  0  0  0  0  0  0  0  0  0
 23 24  1  0
 24  1  1  0
  1  2  2  0
  1  6  1  0
  2  3  1  0
  3  4  2  0
  4  5  1  0
  4 11  1  0
  5  6  2  0
  5  7  1  0
  7  8  2  0
  7  9  1  0
  8 12  1  0
 12 13  1  0
 13 14  2  0
 13 15  1  0
 15 16  1  0
 16 17  2  0
 16 22  1  0
 17 18  1  0
 18 19  2  0
 19 20  1  0
 19 21  1  0
 21 22  2  0
  9 10  2  0
  9 11  1  0
M  END
>  <minimizedAffinity>  (917) 
-8.54088

$$$$
data/200k_reference_output/data/smiles/78493.pdb
     RDKit          3D

 26 28  0  0  0  0  0  0  0  0999 V2000
   69.7879   45.8277   58.5276 N   0  0  0  0  0  0  0  0  0  0  0  0
   68.7624   46.7054   56.4496 C   0  0  0  0  0  0  0  0  0  0  0  0
   67.8899   47.3285   57.1030 O   0  0  0  0  0  0  0  0  0  0  0  0
   69.7367   45.9386   57.1141 N   0  0  0  0  0  0  0  0  0  0  0  0
   69.2427   47.9230   52.8800 C   0  0  0  0  0  0  0  0  0  0  0  0
   68.6176   46.8858   52.2030 C   0  0  0  0  0  0  0  0  0  0  0  0
   68.0574   45.8231   52.8765 C   0  0  0  0  0  0  0  0  0  0  0  0
   68.1155   45.7839   54.2519 C   0  0  0  0  0  0  0  0  0  0  0  0
   68.7326   46.8020   54.9992 C   0  0  0  0  0  0  0  0  0  0  0  0
   69.2685   47.8272   54.2618 C   0  0  0  0  0  0  0  0  0  0  0  0
   69.8345   50.3870   52.7740 C   0  0  0  0  0  0  0  0  0  0  0  0
   69.8360   49.0465   52.1739 C   0  0  0  0  0  0  0  0  0  0  0  0
   70.3436   48.8618   51.0570 O   0  0  0  0  0  0  0  0  0  0  0  0
   71.1463   44.8635   58.9840 S   0  0  0  0  0  0  0  0  0  0  0  0
   71.5256   45.0776   60.4162 O   0  0  0  0  0  0  0  0  0  0  0  0
   72.3101   45.2437   58.1314 O   0  0  0  0  0  0  0  0  0  0  0  0
   70.7969   43.1420   58.7949 C   0  0  0  0  0  0  0  0  0  0  0  0
   69.5173   42.7067   58.5283 C   0  0  0  0  0  0  0  0  0  0  0  0
   69.2534   41.3637   58.3795 C   0  0  0  0  0  0  0  0  0  0  0  0
   70.2402   40.4082   58.4910 C   0  0  0  0  0  0  0  0  0  0  0  0
   69.9549   39.0491   58.3373 C   0  0  0  0  0  0  0  0  0  0  0  0
   70.9539   38.1053   58.4511 C   0  0  0  0  0  0  0  0  0  0  0  0
   72.2360   38.5467   58.7191 C   0  0  0  0  0  0  0  0  0  0  0  0
   72.5089   39.8896   58.8685 C   0  0  0  0  0  0  0  0  0  0  0  0
   71.5163   40.8579   58.7576 C   0  0  0  0  0  0  0  0  0  0  0  0
   71.7970   42.1990   58.9083 C   0  0  0  0  0  0  0  0  0  0  0  0
 11 12  1  0
 12 13  2  0
 12  5  1  0
  5  6  2  0
  5 10  1  0
  6  7  1  0
  7  8  2  0
  8  9  1  0
  9  2  1  0
  9 10  2  0
  2  3  2  0
  2  4  1  0
  4  1  1  0
  1 14  1  0
 14 15  2  0
 14 16  2  0
 14 17  1  0
 17 18  2  0
 17 26  1  0
 18 19  1  0
 19 20  2  0
 20 21  1  0
 20 25  1  0
 21 22  2  0
 22 23  1  0
 23 24  2  0
 24 25  1  0
 25 26  2  0
M  END
>  <minimizedAffinity>  (918) 
-9.00048

$$$$
data/200k_reference_output/data/smiles/78695.pdb
     RDKit          3D

 27 29  0  0  0  0  0  0  0  0999 V2000
   69.7066   42.6697   57.1608 O   0  0  0  0  0  0  0  0  0  0  0  0
   68.5342   42.6473   56.8018 C   0  0  0  0  0  0  0  0  0  0  0  0
   67.9289   43.8194   56.2356 N   0  0  0  0  0  0  0  0  0  0  0  0
   67.6411   41.4424   56.9281 C   0  0  2  0  0  0  0  0  0  0  0  0
   67.0573   41.4960   58.3721 C   0  0  0  0  0  0  0  0  0  0  0  0
   68.2620   40.9753   59.1241 C   0  0  0  0  0  0  0  0  0  0  0  0
   68.5648   41.2893   60.3252 O   0  0  0  0  0  0  0  0  0  0  0  0
   68.9866   40.1011   58.3020 N   0  0  0  0  0  0  0  0  0  0  0  0
   68.3197   40.1358   56.9639 C   0  0  0  0  0  0  0  0  0  0  0  0
   70.1576   39.3478   58.5577 C   0  0  0  0  0  0  0  0  0  0  0  0
   70.1666   37.9853   58.8594 C   0  0  0  0  0  0  0  0  0  0  0  0
   71.3617   37.3494   59.0913 C   0  0  0  0  0  0  0  0  0  0  0  0
   72.6067   37.9400   59.0553 C   0  0  0  0  0  0  0  0  0  0  0  0
   73.7647   37.2877   59.3074 F   0  0  0  0  0  0  0  0  0  0  0  0
   72.5910   39.3291   58.7432 C   0  0  0  0  0  0  0  0  0  0  0  0
   71.4012   39.9453   58.5191 C   0  0  0  0  0  0  0  0  0  0  0  0
   68.5484   45.0636   56.0574 N   0  0  0  0  0  0  0  0  0  0  0  0
   68.2095   45.7843   55.0435 C   0  0  0  0  0  0  0  0  0  0  0  0
   68.7512   47.1050   54.6840 C   0  0  0  0  0  0  0  0  0  0  0  0
   69.1013   48.0060   55.6427 C   0  0  0  0  0  0  0  0  0  0  0  0
   69.7316   49.1830   55.3037 C   0  0  0  0  0  0  0  0  0  0  0  0
   69.9954   49.4190   53.9542 C   0  0  0  0  0  0  0  0  0  0  0  0
   69.6626   48.5529   52.9756 C   0  0  0  0  0  0  0  0  0  0  0  0
   69.0174   47.3534   53.3484 C   0  0  0  0  0  0  0  0  0  0  0  0
   69.9633   48.7362   51.6060 N   0  0  0  0  0  0  0  0  0  0  0  0
   70.3821   47.7336   50.9460 O   0  0  0  0  0  0  0  0  0  0  0  0
   69.8270   49.8961   50.9192 O   0  0  0  0  0  0  0  0  0  0  0  0
  1  2  2  0
  2  3  1  0
  4  2  1  1
  3 17  1  0
 17 18  2  0
 18 19  1  0
 19 20  2  0
 19 24  1  0
 20 21  1  0
 21 22  2  0
 22 23  1  0
 23 25  1  0
 23 24  2  0
 25 26  2  0
 25 27  1  0
  4  5  1  0
  4  9  1  0
  5  6  1  0
  6  7  2  0
  6  8  1  0
  8 10  1  0
  8  9  1  0
 10 11  2  0
 10 16  1  0
 11 12  1  0
 12 13  2  0
 13 14  1  0
 13 15  1  0
 15 16  2  0
M  CHG  2  25   1  27  -1
M  END
>  <minimizedAffinity>  (919) 
-9.01653

$$$$
data/200k_reference_output/data/smiles/78700.pdb
     RDKit          3D

 32 35  0  0  0  0  0  0  0  0999 V2000
   70.8602   44.2260   58.3234 C   0  0  0  0  0  0  0  0  0  0  0  0
   69.9903   43.2683   58.7842 C   0  0  0  0  0  0  0  0  0  0  0  0
   70.2620   41.9218   58.7536 C   0  0  0  0  0  0  0  0  0  0  0  0
   71.4709   41.4260   58.2395 C   0  0  0  0  0  0  0  0  0  0  0  0
   72.3361   42.3818   57.7805 C   0  0  0  0  0  0  0  0  0  0  0  0
   72.0504   43.7566   57.8155 C   0  0  0  0  0  0  0  0  0  0  0  0
   71.6861   40.0331   58.2369 N   0  0  0  0  0  0  0  0  0  0  0  0
   72.7043   39.2914   58.8466 C   0  0  0  0  0  0  0  0  0  0  0  0
   73.5700   39.9252   59.5007 O   0  0  0  0  0  0  0  0  0  0  0  0
   72.8192   37.8897   58.7743 N   0  0  0  0  0  0  0  0  0  0  0  0
   73.8315   37.0851   59.3756 C   0  0  0  0  0  0  0  0  0  0  0  0
   74.0270   36.0302   58.3182 C   0  0  0  0  0  0  0  0  0  0  0  0
   75.0572   35.1917   58.0297 C   0  0  0  0  0  0  0  0  0  0  0  0
   74.9374   34.3114   56.9693 C   0  0  0  0  0  0  0  0  0  0  0  0
   73.7953   34.2798   56.2110 C   0  0  0  0  0  0  0  0  0  0  0  0
   72.7856   35.1265   56.5207 N   0  0  0  0  0  0  0  0  0  0  0  0
   72.8874   35.9849   57.5465 C   0  0  0  0  0  0  0  0  0  0  0  0
   71.9409   36.9972   58.0816 C   0  0  0  0  0  0  0  0  0  0  0  0
   69.5274   47.7667   57.5345 C   0  0  0  0  0  0  0  0  0  0  0  0
   70.0631   48.3561   58.4793 O   0  0  0  0  0  0  0  0  0  0  0  0
   69.7604   46.3463   57.4252 N   0  0  0  0  0  0  0  0  0  0  0  0
   70.5689   45.6555   58.3564 C   0  0  0  0  0  0  0  0  0  0  0  0
   71.0692   46.3503   59.2846 O   0  0  0  0  0  0  0  0  0  0  0  0
   68.0206   49.5845   57.0250 N   0  0  0  0  0  0  0  0  0  0  0  0
   68.6661   48.4109   56.5115 C   0  0  1  0  0  0  0  0  0  0  0  0
   69.3871   48.6456   55.2116 C   0  0  0  0  0  0  0  0  0  0  0  0
   68.9722   47.7749   54.1187 C   0  0  0  0  0  0  0  0  0  0  0  0
   68.0980   46.7382   54.3573 C   0  0  0  0  0  0  0  0  0  0  0  0
   67.6848   45.8883   53.3249 C   0  0  0  0  0  0  0  0  0  0  0  0
   68.1679   46.1004   52.0358 C   0  0  0  0  0  0  0  0  0  0  0  0
   69.0439   47.1323   51.7725 C   0  0  0  0  0  0  0  0  0  0  0  0
   69.4381   47.9632   52.8260 C   0  0  0  0  0  0  0  0  0  0  0  0
 25 24  1  1
 25 26  1  0
 25 19  1  0
 26 27  1  0
 27 28  2  0
 27 32  1  0
 28 29  1  0
 29 30  2  0
 30 31  1  0
 31 32  2  0
 19 20  2  0
 19 21  1  0
 21 22  1  0
 22 23  2  0
 22  1  1  0
  1  2  2  0
  1  6  1  0
  2  3  1  0
  3  4  2  0
  4  7  1  0
  4  5  1  0
  7  8  1  0
  8  9  2  0
  8 10  1  0
 10 11  1  0
 10 18  1  0
 11 12  1  0
 12 13  1  0
 12 17  2  0
 13 14  2  0
 14 15  1  0
 15 16  2  0
 16 17  1  0
 17 18  1  0
  5  6  2  0
M  CHG  1  24   1
M  END
>  <minimizedAffinity>  (920) 
-8.60143

$$$$
data/200k_reference_output/data/smiles/78999.pdb
     RDKit          3D

 29 32  0  0  0  0  0  0  0  0999 V2000
   68.6740   39.1527   57.6610 O   0  0  0  0  0  0  0  0  0  0  0  0
   67.9902   39.9233   58.3520 C   0  0  0  0  0  0  0  0  0  0  0  0
   67.0800   39.4207   59.2080 N   0  0  0  0  0  0  0  0  0  0  0  0
   66.3534   40.2761   59.9436 C   0  0  0  0  0  0  0  0  0  0  0  0
   65.4421   39.8043   60.8030 C   0  0  0  0  0  0  0  0  0  0  0  0
   66.5656   41.6363   59.7964 C   0  0  0  0  0  0  0  0  0  0  0  0
   65.8748   42.4145   60.4950 O   0  0  0  0  0  0  0  0  0  0  0  0
   67.4750   42.1395   58.9404 N   0  0  0  0  0  0  0  0  0  0  0  0
   68.2066   41.2822   58.2002 C   0  0  0  0  0  0  0  0  0  0  0  0
   69.0997   41.7736   57.3587 C   0  0  0  0  0  0  0  0  0  0  0  0
   69.3338   43.2116   57.1938 C   0  0  0  0  0  0  0  0  0  0  0  0
   70.2398   43.9150   57.9339 C   0  0  0  0  0  0  0  0  0  0  0  0
   70.3793   45.2668   57.6940 C   0  0  0  0  0  0  0  0  0  0  0  0
   69.6282   45.9239   56.7292 C   0  0  0  0  0  0  0  0  0  0  0  0
   68.7105   45.2213   55.9770 C   0  0  0  0  0  0  0  0  0  0  0  0
   68.5900   43.8719   56.2348 C   0  0  0  0  0  0  0  0  0  0  0  0
   67.9394   45.8437   55.0018 O   0  0  0  0  0  0  0  0  0  0  0  0
   68.4852   46.6672   54.0514 C   0  0  0  0  0  0  0  0  0  0  0  0
   68.5588   46.2508   52.7387 C   0  0  0  0  0  0  0  0  0  0  0  0
   69.1175   47.0978   51.7785 C   0  0  0  0  0  0  0  0  0  0  0  0
   69.6029   48.3460   52.0966 C   0  0  0  0  0  0  0  0  0  0  0  0
   70.1467   49.1759   51.1735 F   0  0  0  0  0  0  0  0  0  0  0  0
   69.5257   48.7547   53.4101 C   0  0  0  0  0  0  0  0  0  0  0  0
   68.9745   47.9242   54.3706 C   0  0  0  0  0  0  0  0  0  0  0  0
   65.2044   38.3748   60.9715 C   0  0  0  0  0  0  0  0  0  0  0  0
   64.4511   37.5862   60.1202 C   0  0  0  0  0  0  0  0  0  0  0  0
   64.4577   36.2830   60.6131 C   0  0  0  0  0  0  0  0  0  0  0  0
   65.2364   36.3678   61.7638 C   0  0  0  0  0  0  0  0  0  0  0  0
   65.6483   37.5972   61.9322 O   0  0  0  0  0  0  0  0  0  0  0  0
  1  2  2  0
  2  3  1  0
  2  9  1  0
  3  4  1  0
  4  5  2  0
  4  6  1  0
  5 25  1  0
 25 26  2  0
 25 29  1  0
 26 27  1  0
 27 28  2  0
 28 29  1  0
  6  7  2  0
  6  8  1  0
  8  9  1  0
  9 10  2  0
 10 11  1  0
 11 12  2  0
 11 16  1  0
 12 13  1  0
 13 14  2  0
 14 15  1  0
 15 17  1  0
 15 16  2  0
 17 18  1  0
 18 19  2  0
 18 24  1  0
 19 20  1  0
 20 21  2  0
 21 22  1  0
 21 23  1  0
 23 24  2  0
M  END
>  <minimizedAffinity>  (921) 
-9.45283

$$$$
data/200k_reference_output/data/smiles/79026.pdb
     RDKit          3D

 25 27  0  0  0  0  0  0  0  0999 V2000
   68.2106   41.9010   57.9880 C   0  0  0  0  0  0  0  0  0  0  0  0
   68.7429   42.8430   57.0426 C   0  0  0  0  0  0  0  0  0  0  0  0
   69.9207   43.0814   56.8441 O   0  0  0  0  0  0  0  0  0  0  0  0
   67.8738   43.6415   56.1922 N   0  0  0  0  0  0  0  0  0  0  0  0
   68.2795   44.5479   55.2795 N   0  0  0  0  0  0  0  0  0  0  0  0
   68.2074   45.8058   55.2810 C   0  0  0  0  0  0  0  0  0  0  0  0
   68.7034   46.6662   54.1971 C   0  0  0  0  0  0  0  0  0  0  0  0
   68.6078   46.2978   52.8731 C   0  0  0  0  0  0  0  0  0  0  0  0
   69.0769   47.1113   51.8417 C   0  0  0  0  0  0  0  0  0  0  0  0
   69.6592   48.3274   52.1296 C   0  0  0  0  0  0  0  0  0  0  0  0
   70.1200   49.1236   51.0922 O   0  0  0  0  0  0  0  0  0  0  0  0
   69.7621   48.7130   53.4501 C   0  0  0  0  0  0  0  0  0  0  0  0
   69.2866   47.8846   54.4707 C   0  0  0  0  0  0  0  0  0  0  0  0
   67.9619   40.5235   57.4999 C   0  0  0  0  0  0  0  0  0  0  0  0
   66.6976   39.0008   59.7726 C   0  0  0  0  0  0  0  0  0  0  0  0
   68.0277   38.7170   59.2146 C   0  0  0  0  0  0  0  0  0  0  0  0
   68.6967   37.6834   59.7986 N   0  0  0  0  0  0  0  0  0  0  0  0
   69.9538   37.3735   59.4573 C   0  0  0  0  0  0  0  0  0  0  0  0
   70.6574   36.3359   60.0291 C   0  0  0  0  0  0  0  0  0  0  0  0
   71.9410   36.0901   59.6193 C   0  0  0  0  0  0  0  0  0  0  0  0
   72.5531   36.8481   58.6507 C   0  0  0  0  0  0  0  0  0  0  0  0
   71.8695   37.8752   58.0788 C   0  0  0  0  0  0  0  0  0  0  0  0
   70.5660   38.1315   58.4887 C   0  0  0  0  0  0  0  0  0  0  0  0
   69.8945   39.1400   57.9259 N   0  0  0  0  0  0  0  0  0  0  0  0
   68.6027   39.4757   58.2600 C   0  0  0  0  0  0  0  0  0  0  0  0
 15 16  1  0
 16 17  2  0
 16 25  1  0
 17 18  1  0
 18 19  2  0
 18 23  1  0
 19 20  1  0
 20 21  2  0
 21 22  1  0
 22 23  2  0
 23 24  1  0
 24 25  2  0
 25 14  1  0
 14  1  1  0
  1  2  1  0
  2  3  2  0
  2  4  1  0
  4  5  1  0
  5  6  2  0
  6  7  1  0
  7  8  2  0
  7 13  1  0
  8  9  1  0
  9 10  2  0
 10 11  1  0
 10 12  1  0
 12 13  2  0
M  END
>  <minimizedAffinity>  (922) 
-8.99605

$$$$
data/200k_reference_output/data/smiles/79116.pdb
     RDKit          3D

 29 32  0  0  0  0  0  0  0  0999 V2000
   67.8043   44.0197   55.5281 N   0  0  0  0  0  0  0  0  0  0  0  0
   68.5066   43.1991   56.4541 C   0  0  0  0  0  0  0  0  0  0  0  0
   69.5805   43.6742   56.9038 O   0  0  0  0  0  0  0  0  0  0  0  0
   70.5691   48.5691   57.2971 C   0  0  0  0  0  0  0  0  0  0  0  0
   69.4370   48.8083   56.3357 C   0  0  1  0  0  0  0  0  0  0  0  0
   69.7663   49.7437   55.2623 C   0  0  0  0  0  0  0  0  0  0  0  0
   70.1676   50.9201   55.4235 O   0  0  0  0  0  0  0  0  0  0  0  0
   69.5655   49.1228   54.0026 N   0  0  0  0  0  0  0  0  0  0  0  0
   69.7094   49.5439   52.6123 C   0  0  0  0  0  0  0  0  0  0  0  0
   69.9935   48.3384   51.7727 C   0  0  0  0  0  0  0  0  0  0  0  0
   68.9589   47.2394   51.9187 C   0  0  0  0  0  0  0  0  0  0  0  0
   68.8026   46.8709   53.3524 C   0  0  0  0  0  0  0  0  0  0  0  0
   68.3730   45.6282   53.7454 C   0  0  0  0  0  0  0  0  0  0  0  0
   68.2487   45.3038   55.1043 C   0  0  0  0  0  0  0  0  0  0  0  0
   68.5795   46.2963   56.0033 C   0  0  0  0  0  0  0  0  0  0  0  0
   69.0181   47.5661   55.6376 C   0  0  0  0  0  0  0  0  0  0  0  0
   69.1176   47.8198   54.2910 C   0  0  0  0  0  0  0  0  0  0  0  0
   68.0434   41.8883   56.8806 C   0  0  0  0  0  0  0  0  0  0  0  0
   66.8632   41.5106   56.7055 O   0  0  0  0  0  0  0  0  0  0  0  0
   68.9636   41.0155   57.5128 N   0  0  0  0  0  0  0  0  0  0  0  0
   68.6090   39.7103   57.9668 C   0  0  0  0  0  0  0  0  0  0  0  0
   69.3796   39.3039   59.1799 C   0  0  0  0  0  0  0  0  0  0  0  0
   70.2864   38.1661   58.9673 C   0  0  0  0  0  0  0  0  0  0  0  0
   71.2893   38.2632   58.0311 C   0  0  0  0  0  0  0  0  0  0  0  0
   72.1373   37.1806   57.8491 C   0  0  0  0  0  0  0  0  0  0  0  0
   71.9755   36.0396   58.5862 C   0  0  0  0  0  0  0  0  0  0  0  0
   72.7919   34.9556   58.4321 F   0  0  0  0  0  0  0  0  0  0  0  0
   70.9798   35.9399   59.5172 C   0  0  0  0  0  0  0  0  0  0  0  0
   70.1334   37.0130   59.7042 C   0  0  0  0  0  0  0  0  0  0  0  0
  5  4  1  1
  5  6  1  0
  5 16  1  0
  6  7  2  0
  6  8  1  0
  8  9  1  0
  8 17  1  0
  9 10  1  0
 10 11  1  0
 11 12  1  0
 12 13  1  0
 12 17  2  0
 13 14  2  0
 14  1  1  0
 14 15  1  0
  1  2  1  0
  2  3  2  0
  2 18  1  0
 18 19  2  0
 18 20  1  0
 20 21  1  0
 21 22  1  0
 22 23  1  0
 23 24  2  0
 23 29  1  0
 24 25  1  0
 25 26  2  0
 26 27  1  0
 26 28  1  0
 28 29  2  0
 15 16  2  0
 16 17  1  0
M  END
>  <minimizedAffinity>  (923) 
-9.06729

$$$$
data/200k_reference_output/data/smiles/79301.pdb
     RDKit          3D

 23 25  0  0  0  0  0  0  0  0999 V2000
   71.9063   50.2781   53.7921 O   0  0  0  0  0  0  0  0  0  0  0  0
   70.6279   50.3771   53.7165 C   0  0  0  0  0  0  0  0  0  0  0  0
   69.8951   49.1960   53.2801 C   0  0  0  0  0  0  0  0  0  0  0  0
   69.4230   48.2211   54.1307 C   0  0  0  0  0  0  0  0  0  0  0  0
   68.7370   47.1072   53.6671 C   0  0  0  0  0  0  0  0  0  0  0  0
   68.2559   46.1171   54.4943 C   0  0  0  0  0  0  0  0  0  0  0  0
   67.5718   45.0143   53.9901 C   0  0  0  0  0  0  0  0  0  0  0  0
   67.3625   44.8924   52.6335 C   0  0  0  0  0  0  0  0  0  0  0  0
   67.8474   45.8859   51.8143 C   0  0  0  0  0  0  0  0  0  0  0  0
   68.5336   46.9963   52.3087 C   0  0  0  0  0  0  0  0  0  0  0  0
   68.9873   47.9316   51.5013 O   0  0  0  0  0  0  0  0  0  0  0  0
   69.6444   48.9989   51.9382 C   0  0  0  0  0  0  0  0  0  0  0  0
   70.0572   49.8678   51.1098 O   0  0  0  0  0  0  0  0  0  0  0  0
   69.9976   51.6726   54.0757 C   0  0  0  0  0  0  0  0  0  0  0  0
   70.0195   51.9327   55.8362 S   0  0  0  0  0  0  0  0  0  0  0  0
   71.3741   51.5461   56.3614 O   0  0  0  0  0  0  0  0  0  0  0  0
   69.8422   53.4205   56.0948 O   0  0  0  0  0  0  0  0  0  0  0  0
   68.7729   51.0032   56.6291 C   0  0  0  0  0  0  0  0  0  0  0  0
   67.5353   51.5084   56.9617 C   0  0  0  0  0  0  0  0  0  0  0  0
   66.5860   50.7394   57.5874 C   0  0  0  0  0  0  0  0  0  0  0  0
   66.8285   49.4174   57.9143 C   0  0  0  0  0  0  0  0  0  0  0  0
   68.0677   48.8796   57.5913 C   0  0  0  0  0  0  0  0  0  0  0  0
   68.9943   49.6771   56.9664 C   0  0  0  0  0  0  0  0  0  0  0  0
  1  2  2  0
  2 14  1  0
  2  3  1  0
 14 15  1  0
 15 16  2  0
 15 17  2  0
 15 18  1  0
 18 19  2  0
 18 23  1  0
 19 20  1  0
 20 21  2  0
 21 22  1  0
 22 23  2  0
  3  4  2  0
  3 12  1  0
  4  5  1  0
  5  6  2  0
  5 10  1  0
  6  7  1  0
  7  8  2  0
  8  9  1  0
  9 10  2  0
 10 11  1  0
 11 12  1  0
 12 13  2  0
M  END
>  <minimizedAffinity>  (924) 
-8.60926

$$$$
data/200k_reference_output/data/smiles/79528.pdb
     RDKit          3D

 29 31  0  0  0  0  0  0  0  0999 V2000
   70.2534   39.4830   58.7672 C   0  0  0  0  0  0  0  0  0  0  0  0
   69.0446   38.9442   58.3813 C   0  0  0  0  0  0  0  0  0  0  0  0
   68.1334   39.7272   57.7072 C   0  0  0  0  0  0  0  0  0  0  0  0
   68.4499   41.0471   57.4288 C   0  0  0  0  0  0  0  0  0  0  0  0
   69.6470   41.6171   57.7999 C   0  0  0  0  0  0  0  0  0  0  0  0
   70.5367   40.8227   58.4680 C   0  0  0  0  0  0  0  0  0  0  0  0
   71.4462   38.5390   59.6165 S   0  0  0  0  0  0  0  0  0  0  0  0
   71.3257   38.9365   61.0826 O   0  0  0  0  0  0  0  0  0  0  0  0
   72.8162   39.0149   59.2036 O   0  0  0  0  0  0  0  0  0  0  0  0
   71.2940   36.8600   59.4014 N   0  0  0  0  0  0  0  0  0  0  0  0
   73.7718   33.5710   55.4834 C   0  0  0  0  0  0  0  0  0  0  0  0
   73.1285   34.4507   56.4935 C   0  0  0  0  0  0  0  0  0  0  0  0
   72.9437   35.8168   56.2594 C   0  0  0  0  0  0  0  0  0  0  0  0
   72.3477   36.6207   57.1998 C   0  0  0  0  0  0  0  0  0  0  0  0
   71.9232   36.0873   58.3911 C   0  0  0  0  0  0  0  0  0  0  0  0
   72.1187   34.7315   58.5975 C   0  0  0  0  0  0  0  0  0  0  0  0
   71.6646   34.1131   59.8965 C   0  0  0  0  0  0  0  0  0  0  0  0
   72.7104   33.8935   57.6817 C   0  0  0  0  0  0  0  0  0  0  0  0
   69.8875   43.0118   57.4628 C   0  0  0  0  0  0  0  0  0  0  0  0
   71.0000   43.5414   57.7245 O   0  0  0  0  0  0  0  0  0  0  0  0
   68.9402   43.8658   56.8394 N   0  0  0  0  0  0  0  0  0  0  0  0
   69.1958   45.2066   56.5248 N   0  0  0  0  0  0  0  0  0  0  0  0
   68.5687   45.8868   55.4458 C   0  0  0  0  0  0  0  0  0  0  0  0
   67.7482   45.2399   54.7532 O   0  0  0  0  0  0  0  0  0  0  0  0
   68.8405   47.2880   55.1231 C   0  0  0  0  0  0  0  0  0  0  0  0
   68.9397   47.8228   53.8555 C   0  0  0  0  0  0  0  0  0  0  0  0
   69.2044   49.1797   53.9655 C   0  0  0  0  0  0  0  0  0  0  0  0
   69.2549   49.4087   55.3273 C   0  0  0  0  0  0  0  0  0  0  0  0
   69.0366   48.2800   55.9456 O   0  0  0  0  0  0  0  0  0  0  0  0
 11 12  1  0
 12 13  2  0
 12 18  1  0
 13 14  1  0
 14 15  2  0
 15 10  1  0
 15 16  1  0
 10  7  1  0
  7  8  2  0
  7  9  2  0
  7  1  1  0
  1  2  2  0
  1  6  1  0
  2  3  1  0
  3  4  2  0
  4  5  1  0
  5 19  1  0
  5  6  2  0
 19 20  2  0
 19 21  1  0
 21 22  1  0
 22 23  1  0
 23 24  2  0
 23 25  1  0
 25 26  2  0
 25 29  1  0
 26 27  1  0
 27 28  2  0
 28 29  1  0
 16 17  1  0
 16 18  2  0
M  END
>  <minimizedAffinity>  (925) 
-8.50523

$$$$
data/200k_reference_output/data/smiles/79695.pdb
     RDKit          3D

 27 31  0  0  0  0  0  0  0  0999 V2000
   68.8319   44.4952   55.8378 O   0  0  0  0  0  0  0  0  0  0  0  0
   68.8684   45.7359   55.7309 C   0  0  0  0  0  0  0  0  0  0  0  0
   68.2604   46.3558   54.6194 N   0  0  0  0  0  0  0  0  0  0  0  0
   67.5830   45.6271   53.5599 C   0  0  0  0  0  0  0  0  0  0  0  0
   68.2643   45.8755   52.2362 C   0  0  0  0  0  0  0  0  0  0  0  0
   69.0700   47.1160   52.2057 C   0  0  0  0  0  0  0  0  0  0  0  0
   69.8980   47.5624   51.2379 N   0  0  0  0  0  0  0  0  0  0  0  0
   70.4138   48.7074   51.6223 N   0  0  0  0  0  0  0  0  0  0  0  0
   69.9455   49.0428   52.8439 C   0  0  0  0  0  0  0  0  0  0  0  0
   69.0938   48.0363   53.2148 C   0  0  0  0  0  0  0  0  0  0  0  0
   68.2569   47.8146   54.4209 C   0  0  0  0  0  0  0  0  0  0  0  0
   69.5440   46.5024   56.7629 C   0  0  0  0  0  0  0  0  0  0  0  0
   69.5419   47.8741   56.7931 C   0  0  0  0  0  0  0  0  0  0  0  0
   70.2022   48.5682   57.7869 C   0  0  0  0  0  0  0  0  0  0  0  0
   70.8858   47.8928   58.7831 C   0  0  0  0  0  0  0  0  0  0  0  0
   71.6075   48.2809   59.8574 N   0  0  0  0  0  0  0  0  0  0  0  0
   72.0701   47.2112   60.5155 C   0  0  0  0  0  0  0  0  0  0  0  0
   72.7847   47.2372   61.5693 O   0  0  0  0  0  0  0  0  0  0  0  0
   71.6392   46.1264   59.8543 N   0  0  0  0  0  0  0  0  0  0  0  0
   70.9038   46.5117   58.7767 C   0  0  0  0  0  0  0  0  0  0  0  0
   70.2394   45.8490   57.7785 C   0  0  0  0  0  0  0  0  0  0  0  0
   70.2639   50.2334   53.6175 C   0  0  0  0  0  0  0  0  0  0  0  0
   71.4616   50.4566   54.2622 C   0  0  0  0  0  0  0  0  0  0  0  0
   71.7160   51.6110   54.9978 C   0  0  0  0  0  0  0  0  0  0  0  0
   70.7369   52.5713   55.0889 C   0  0  0  0  0  0  0  0  0  0  0  0
   69.5264   52.3715   54.4516 C   0  0  0  0  0  0  0  0  0  0  0  0
   69.2927   51.2337   53.7345 C   0  0  0  0  0  0  0  0  0  0  0  0
  1  2  2  0
  2 12  1  0
  2  3  1  0
 12 13  2  0
 12 21  1  0
 13 14  1  0
 14 15  2  0
 15 16  1  0
 15 20  1  0
 16 17  1  0
 17 18  2  0
 17 19  1  0
 19 20  1  0
 20 21  2  0
  3  4  1  0
  3 11  1  0
  4  5  1  0
  5  6  1  0
  6  7  1  0
  6 10  2  0
  7  8  1  0
  8  9  2  0
  9 22  1  0
  9 10  1  0
 22 23  2  0
 22 27  1  0
 23 24  1  0
 24 25  2  0
 25 26  1  0
 26 27  2  0
 10 11  1  0
M  CHG  1  16   1
M  END
>  <minimizedAffinity>  (926) 
-8.70763

$$$$
data/200k_reference_output/data/smiles/79747.pdb
     RDKit          3D

 24 25  0  0  0  0  0  0  0  0999 V2000
   66.9021   41.3955   55.5969 C   0  0  0  0  0  0  0  0  0  0  0  0
   67.4017   42.0367   56.8408 C   0  0  0  0  0  0  0  0  0  0  0  0
   67.8931   43.2106   56.7453 N   0  0  0  0  0  0  0  0  0  0  0  0
   67.9284   43.8197   55.4657 N   0  0  0  0  0  0  0  0  0  0  0  0
   68.2819   45.1792   55.3001 C   0  0  0  0  0  0  0  0  0  0  0  0
   68.5603   45.8005   56.3599 O   0  0  0  0  0  0  0  0  0  0  0  0
   68.3314   45.8459   54.0071 C   0  0  0  0  0  0  0  0  0  0  0  0
   67.5983   45.3343   52.9439 C   0  0  0  0  0  0  0  0  0  0  0  0
   67.6303   45.9550   51.7006 C   0  0  0  0  0  0  0  0  0  0  0  0
   68.3858   47.0911   51.4797 C   0  0  0  0  0  0  0  0  0  0  0  0
   69.1102   47.5958   52.5314 C   0  0  0  0  0  0  0  0  0  0  0  0
   69.9311   48.8129   52.3318 C   0  0  0  0  0  0  0  0  0  0  0  0
   69.0671   46.9645   53.7672 C   0  0  0  0  0  0  0  0  0  0  0  0
   67.2974   41.2732   58.1107 C   0  0  0  0  0  0  0  0  0  0  0  0
   68.1384   40.0499   58.0816 C   0  0  0  0  0  0  0  0  0  0  0  0
   67.7165   39.0384   57.4661 O   0  0  0  0  0  0  0  0  0  0  0  0
   69.3982   39.9663   58.7175 N   0  0  0  0  0  0  0  0  0  0  0  0
   70.2157   38.8019   58.6988 C   0  0  0  0  0  0  0  0  0  0  0  0
   69.9782   37.7737   59.5934 C   0  0  0  0  0  0  0  0  0  0  0  0
   70.7316   36.6308   59.6222 C   0  0  0  0  0  0  0  0  0  0  0  0
   70.4581   35.5399   60.5918 C   0  0  0  0  0  0  0  0  0  0  0  0
   71.7637   36.5294   58.7095 C   0  0  0  0  0  0  0  0  0  0  0  0
   72.0174   37.5443   57.8085 C   0  0  0  0  0  0  0  0  0  0  0  0
   71.2358   38.6384   57.8380 N   0  0  0  0  0  0  0  0  0  0  0  0
  1  2  1  0
  2 14  1  0
  2  3  2  0
 14 15  1  0
 15 16  2  0
 15 17  1  0
 17 18  1  0
 18 19  2  0
 18 24  1  0
 19 20  1  0
 20 21  1  0
 20 22  2  0
 22 23  1  0
 23 24  2  0
  3  4  1  0
  4  5  1  0
  5  6  2  0
  5  7  1  0
  7  8  2  0
  7 13  1  0
  8  9  1  0
  9 10  2  0
 10 11  1  0
 11 12  1  0
 11 13  2  0
M  END
>  <minimizedAffinity>  (927) 
-9.05547

$$$$
data/200k_reference_output/data/smiles/79795.pdb
     RDKit          3D

 25 28  0  0  0  0  0  0  0  0999 V2000
   69.3371   47.6410   56.5133 C   0  0  0  0  0  0  0  0  0  0  0  0
   69.3273   48.1901   57.6840 O   0  0  0  0  0  0  0  0  0  0  0  0
   69.4828   48.4622   55.3984 N   0  0  0  0  0  0  0  0  0  0  0  0
   69.8600   49.8828   55.5789 C   0  0  0  0  0  0  0  0  0  0  0  0
   70.9876   50.1565   54.6197 C   0  0  0  0  0  0  0  0  0  0  0  0
   71.9872   50.7778   54.9918 O   0  0  0  0  0  0  0  0  0  0  0  0
   70.8864   49.6922   53.2802 N   0  0  0  0  0  0  0  0  0  0  0  0
   70.0407   48.5802   53.0235 C   0  0  0  0  0  0  0  0  0  0  0  0
   69.9203   48.1441   51.7342 C   0  0  0  0  0  0  0  0  0  0  0  0
   69.0910   47.0787   51.4388 C   0  0  0  0  0  0  0  0  0  0  0  0
   68.4167   46.5027   52.4696 C   0  0  0  0  0  0  0  0  0  0  0  0
   68.5167   46.9195   53.7805 C   0  0  0  0  0  0  0  0  0  0  0  0
   69.3547   47.9913   54.0759 C   0  0  0  0  0  0  0  0  0  0  0  0
   69.5960   44.0044   57.0213 C   0  0  0  0  0  0  0  0  0  0  0  0
   70.0591   45.2972   57.1843 C   0  0  0  0  0  0  0  0  0  0  0  0
   69.1950   46.1989   56.5486 C   0  0  0  0  0  0  0  0  0  0  0  0
   68.2296   45.4069   56.0192 N   0  0  0  0  0  0  0  0  0  0  0  0
   68.4712   44.1420   56.2981 N   0  0  0  0  0  0  0  0  0  0  0  0
   72.0472   39.1932   58.9981 C   0  0  0  0  0  0  0  0  0  0  0  0
   71.3639   40.4147   58.4899 C   0  0  0  0  0  0  0  0  0  0  0  0
   70.0053   40.5156   58.3163 C   0  0  0  0  0  0  0  0  0  0  0  0
   69.4101   41.6863   57.8354 C   0  0  0  0  0  0  0  0  0  0  0  0
   70.1983   42.7704   57.5246 C   0  0  0  0  0  0  0  0  0  0  0  0
   71.5608   42.6606   57.7022 C   0  0  0  0  0  0  0  0  0  0  0  0
   72.1543   41.4991   58.1801 C   0  0  0  0  0  0  0  0  0  0  0  0
 19 20  1  0
 20 21  2  0
 20 25  1  0
 21 22  1  0
 22 23  2  0
 23 14  1  0
 23 24  1  0
 14 15  1  0
 14 18  2  0
 15 16  2  0
 16  1  1  0
 16 17  1  0
  1  2  2  0
  1  3  1  0
  3  4  1  0
  3 13  1  0
  4  5  1  0
  5  6  2  0
  5  7  1  0
  7  8  1  0
  8  9  2  0
  8 13  1  0
  9 10  1  0
 10 11  2  0
 11 12  1  0
 12 13  2  0
 17 18  1  0
 24 25  2  0
M  END
>  <minimizedAffinity>  (928) 
-8.55098

$$$$
data/200k_reference_output/data/smiles/80223.pdb
     RDKit          3D

 28 30  0  0  0  0  0  0  0  0999 V2000
   68.3605   45.9617   54.0724 C   0  0  0  0  0  0  0  0  0  0  0  0
   67.7889   45.5633   52.9070 C   0  0  0  0  0  0  0  0  0  0  0  0
   67.8973   46.3111   51.7525 C   0  0  0  0  0  0  0  0  0  0  0  0
   68.6047   47.4924   51.7812 C   0  0  0  0  0  0  0  0  0  0  0  0
   69.2018   47.9359   52.9385 C   0  0  0  0  0  0  0  0  0  0  0  0
   69.0609   47.1493   54.0616 C   0  0  0  0  0  0  0  0  0  0  0  0
   67.8329   43.8569   55.3955 N   0  0  0  0  0  0  0  0  0  0  0  0
   68.2728   45.2065   55.3154 C   0  0  0  0  0  0  0  0  0  0  0  0
   68.5988   45.7463   56.4091 O   0  0  0  0  0  0  0  0  0  0  0  0
   66.9179   41.3625   55.3830 C   0  0  0  0  0  0  0  0  0  0  0  0
   67.3327   41.9704   56.6627 C   0  0  0  0  0  0  0  0  0  0  0  0
   67.7688   43.1791   56.6228 N   0  0  0  0  0  0  0  0  0  0  0  0
   67.2493   41.2202   57.9361 C   0  0  0  0  0  0  0  0  0  0  0  0
   66.5587   41.6796   59.0092 C   0  0  0  0  0  0  0  0  0  0  0  0
   66.5279   40.9153   60.1688 C   0  0  0  0  0  0  0  0  0  0  0  0
   67.1891   39.7068   60.2297 C   0  0  0  0  0  0  0  0  0  0  0  0
   67.1702   38.9426   61.3597 F   0  0  0  0  0  0  0  0  0  0  0  0
   67.9043   39.2209   59.1314 C   0  0  0  0  0  0  0  0  0  0  0  0
   67.9070   40.0092   58.0081 C   0  0  0  0  0  0  0  0  0  0  0  0
   70.0962   49.4380   52.9545 S   0  0  0  0  0  0  0  0  0  0  0  0
   71.5839   49.1156   52.9459 O   0  0  0  0  0  0  0  0  0  0  0  0
   69.7621   50.2596   51.7510 O   0  0  0  0  0  0  0  0  0  0  0  0
   69.7928   50.2988   54.4119 N   0  0  0  0  0  0  0  0  0  0  0  0
   68.8425   51.3315   54.2300 C   0  0  0  0  0  0  0  0  0  0  0  0
   68.8758   52.4236   55.2543 C   0  0  0  0  0  0  0  0  0  0  0  0
   70.2024   52.8976   55.2865 O   0  0  0  0  0  0  0  0  0  0  0  0
   70.9562   51.8954   55.8824 C   0  0  0  0  0  0  0  0  0  0  0  0
   70.9494   50.6083   55.1558 C   0  0  0  0  0  0  0  0  0  0  0  0
 10 11  1  0
 11 12  2  0
 11 13  1  0
 12  7  1  0
  7  8  1  0
  8  9  2  0
  8  1  1  0
  1  2  2  0
  1  6  1  0
  2  3  1  0
  3  4  2  0
  4  5  1  0
  5 20  1  0
  5  6  2  0
 20 21  2  0
 20 22  2  0
 20 23  1  0
 23 24  1  0
 23 28  1  0
 24 25  1  0
 25 26  1  0
 26 27  1  0
 27 28  1  0
 13 14  2  0
 13 19  1  0
 14 15  1  0
 15 16  2  0
 16 17  1  0
 16 18  1  0
 18 19  2  0
M  END
>  <minimizedAffinity>  (929) 
-8.73770

$$$$
data/200k_reference_output/data/smiles/80388.pdb
     RDKit          3D

 24 26  0  0  0  0  0  0  0  0999 V2000
   68.4530   46.8467   53.9702 C   0  0  0  0  0  0  0  0  0  0  0  0
   67.6402   45.9631   53.2252 C   0  0  0  0  0  0  0  0  0  0  0  0
   67.6548   46.0285   51.8585 C   0  0  0  0  0  0  0  0  0  0  0  0
   66.9308   45.2414   51.1710 O   0  0  0  0  0  0  0  0  0  0  0  0
   68.4323   46.9238   51.2233 N   0  0  0  0  0  0  0  0  0  0  0  0
   69.2050   47.7698   51.9020 C   0  0  0  0  0  0  0  0  0  0  0  0
   69.9471   48.6236   51.3066 O   0  0  0  0  0  0  0  0  0  0  0  0
   69.1890   47.7045   53.2678 N   0  0  0  0  0  0  0  0  0  0  0  0
   68.3254   46.7067   55.3889 C   0  0  0  0  0  0  0  0  0  0  0  0
   67.2491   47.2689   55.8881 O   0  0  0  0  0  0  0  0  0  0  0  0
   71.5415   47.0909   59.1529 C   0  0  0  0  0  0  0  0  0  0  0  0
   70.7257   46.2499   58.2105 C   0  0  0  0  0  0  0  0  0  0  0  0
   70.7531   44.8760   58.2708 C   0  0  0  0  0  0  0  0  0  0  0  0
   70.0150   44.0787   57.4219 C   0  0  0  0  0  0  0  0  0  0  0  0
   70.0821   42.5759   57.5312 C   0  0  0  0  0  0  0  0  0  0  0  0
   69.2250   44.6949   56.4824 C   0  0  0  0  0  0  0  0  0  0  0  0
   69.1483   46.0608   56.3653 C   0  0  0  0  0  0  0  0  0  0  0  0
   69.9215   46.8174   57.2565 C   0  0  0  0  0  0  0  0  0  0  0  0
   69.9836   48.7009   53.9293 C   0  0  0  0  0  0  0  0  0  0  0  0
   69.2654   49.9451   54.2848 C   0  0  0  0  0  0  0  0  0  0  0  0
   69.1194   50.2603   55.7445 C   0  0  0  0  0  0  0  0  0  0  0  0
   68.5679   51.6708   55.6618 C   0  0  0  0  0  0  0  0  0  0  0  0
   68.9420   52.2267   54.4993 C   0  0  0  0  0  0  0  0  0  0  0  0
   69.7725   51.2245   53.7201 C   0  0  0  0  0  0  0  0  0  0  0  0
 11 12  1  0
 12 13  2  0
 12 18  1  0
 13 14  1  0
 14 15  1  0
 14 16  2  0
 16 17  1  0
 17  9  1  0
 17 18  2  0
  9 10  2  0
  9  1  1  0
  1  2  2  0
  1  8  1  0
  2  3  1  0
  3  4  2  0
  3  5  1  0
  5  6  1  0
  6  7  2  0
  6  8  1  0
  8 19  1  0
 19 20  1  0
 20 21  1  0
 20 24  1  0
 21 22  1  0
 22 23  2  0
 23 24  1  0
M  END
>  <minimizedAffinity>  (930) 
-9.12779

$$$$
data/200k_reference_output/data/smiles/80704.pdb
     RDKit          3D

 30 34  0  0  0  0  0  0  0  0999 V2000
   69.1924   47.4933   56.8753 C   0  0  0  0  0  0  0  0  0  0  0  0
   69.9527   46.8046   58.4662 S   0  0  0  0  0  0  0  0  0  0  0  0
   70.2587   45.1764   57.6196 C   0  0  0  0  0  0  0  0  0  0  0  0
   69.8456   45.3876   56.5805 N   0  0  0  0  0  0  0  0  0  0  0  0
   69.2976   46.4594   56.0730 N   0  0  0  0  0  0  0  0  0  0  0  0
   66.6829   48.0601   57.9801 O   0  0  0  0  0  0  0  0  0  0  0  0
   67.4307   49.0721   57.4008 C   0  0  0  0  0  0  0  0  0  0  0  0
   66.9169   50.3687   57.4150 C   0  0  0  0  0  0  0  0  0  0  0  0
   67.5673   51.4333   56.8680 C   0  0  0  0  0  0  0  0  0  0  0  0
   68.7889   51.2088   56.2752 C   0  0  0  0  0  0  0  0  0  0  0  0
   69.4921   52.2733   55.7200 C   0  0  0  0  0  0  0  0  0  0  0  0
   70.7209   52.1257   55.1334 C   0  0  0  0  0  0  0  0  0  0  0  0
   71.2541   50.8610   55.1086 C   0  0  0  0  0  0  0  0  0  0  0  0
   70.5506   49.7830   55.6658 C   0  0  0  0  0  0  0  0  0  0  0  0
   69.3166   49.9129   56.2547 C   0  0  0  0  0  0  0  0  0  0  0  0
   68.6464   48.8275   56.8163 C   0  0  0  0  0  0  0  0  0  0  0  0
   68.7884   46.4361   54.7120 C   0  0  0  0  0  0  0  0  0  0  0  0
   67.9228   45.4480   54.2838 C   0  0  0  0  0  0  0  0  0  0  0  0
   67.4684   45.4176   52.9864 C   0  0  0  0  0  0  0  0  0  0  0  0
   67.8630   46.3782   52.0597 C   0  0  0  0  0  0  0  0  0  0  0  0
   67.4231   46.3561   50.7928 F   0  0  0  0  0  0  0  0  0  0  0  0
   68.7281   47.3705   52.4800 C   0  0  0  0  0  0  0  0  0  0  0  0
   69.1611   47.3770   53.7644 C   0  0  0  0  0  0  0  0  0  0  0  0
   70.9023   44.1094   58.4396 N   0  0  0  0  0  0  0  0  0  0  0  0
   72.2920   43.8966   58.2894 C   0  0  0  0  0  0  0  0  0  0  0  0
   73.1848   44.9059   58.5668 C   0  0  0  0  0  0  0  0  0  0  0  0
   74.5551   44.7413   58.4350 C   0  0  0  0  0  0  0  0  0  0  0  0
   75.0388   43.5258   58.0128 C   0  0  0  0  0  0  0  0  0  0  0  0
   74.1454   42.5126   57.7342 C   0  0  0  0  0  0  0  0  0  0  0  0
   72.8039   42.6808   57.8649 C   0  0  0  0  0  0  0  0  0  0  0  0
  6  7  1  0
  7  8  2  0
  7 16  1  0
  8  9  1  0
  9 10  2  0
 10 11  1  0
 10 15  1  0
 11 12  2  0
 12 13  1  0
 13 14  2  0
 14 15  1  0
 15 16  2  0
 16  1  1  0
  1  2  1  0
  1  5  2  0
  2  3  1  0
  3 24  1  0
  3  4  2  0
 24 25  1  0
 25 26  2  0
 25 30  1  0
 26 27  1  0
 27 28  2  0
 28 29  1  0
 29 30  2  0
  4  5  1  0
  5 17  1  0
 17 18  2  0
 17 23  1  0
 18 19  1  0
 19 20  2  0
 20 21  1  0
 20 22  1  0
 22 23  2  0
M  CHG  1   5   1
M  END
>  <minimizedAffinity>  (931) 
-8.58320

$$$$
data/200k_reference_output/data/smiles/80719.pdb
     RDKit          3D

 23 25  0  0  0  0  0  0  0  0999 V2000
   68.3328   44.5388   55.8517 N   0  0  0  0  0  0  0  0  0  0  0  0
   67.9195   45.0370   54.7675 C   0  0  0  0  0  0  0  0  0  0  0  0
   68.4465   46.2497   54.1358 C   0  0  0  0  0  0  0  0  0  0  0  0
   68.4830   47.4550   54.8066 C   0  0  0  0  0  0  0  0  0  0  0  0
   68.9702   48.6131   54.2458 C   0  0  0  0  0  0  0  0  0  0  0  0
   69.4556   48.6165   52.9510 C   0  0  0  0  0  0  0  0  0  0  0  0
   69.4283   47.4265   52.2621 C   0  0  0  0  0  0  0  0  0  0  0  0
   68.9313   46.2568   52.8445 C   0  0  0  0  0  0  0  0  0  0  0  0
   69.9484   47.7115   51.0556 N   0  0  0  0  0  0  0  0  0  0  0  0
   70.2651   48.9661   51.0109 O   0  0  0  0  0  0  0  0  0  0  0  0
   69.9821   49.5398   52.1351 N   0  0  0  0  0  0  0  0  0  0  0  0
   70.1562   50.8557   52.5103 O   0  0  0  0  0  0  0  0  0  0  0  0
   68.6154   42.4735   57.1882 C   0  0  0  0  0  0  0  0  0  0  0  0
   69.8475   42.7288   57.2804 O   0  0  0  0  0  0  0  0  0  0  0  0
   67.8403   43.3864   56.4646 N   0  0  0  0  0  0  0  0  0  0  0  0
   67.0814   38.9556   59.0995 C   0  0  0  0  0  0  0  0  0  0  0  0
   68.0881   38.8688   58.1586 C   0  0  0  0  0  0  0  0  0  0  0  0
   68.5809   40.0062   57.5444 C   0  0  0  0  0  0  0  0  0  0  0  0
   68.1027   41.2663   57.8315 C   0  0  0  0  0  0  0  0  0  0  0  0
   67.0968   41.3461   58.7721 C   0  0  0  0  0  0  0  0  0  0  0  0
   66.5996   40.2159   59.3901 C   0  0  0  0  0  0  0  0  0  0  0  0
   65.1914   37.9621   60.3783 C   0  0  0  0  0  0  0  0  0  0  0  0
   66.5417   37.7350   59.7702 C   0  0  0  0  0  0  0  0  0  0  0  0
 22 23  1  0
 23 16  1  0
 16 17  2  0
 16 21  1  0
 17 18  1  0
 18 19  2  0
 19 13  1  0
 19 20  1  0
 13 14  2  0
 13 15  1  0
 15  1  1  0
  1  2  2  0
  2  3  1  0
  3  4  1  0
  3  8  2  0
  4  5  2  0
  5  6  1  0
  6  7  1  0
  6 11  2  0
  7  8  1  0
  7  9  2  0
  9 10  1  0
 10 11  1  0
 11 12  1  0
 20 21  2  0
M  CHG  2  11   1  12  -1
M  END
>  <minimizedAffinity>  (932) 
-8.98629

$$$$
data/200k_reference_output/data/smiles/80876.pdb
     RDKit          3D

 30 33  0  0  0  0  0  0  0  0999 V2000
   69.9443   39.3096   58.4293 C   0  0  0  0  0  0  0  0  0  0  0  0
   70.5149   40.5012   58.3568 C   0  0  0  0  0  0  0  0  0  0  0  0
   71.8574   40.5258   58.2910 N   0  0  0  0  0  0  0  0  0  0  0  0
   72.4543   41.7321   58.2172 C   0  0  0  0  0  0  0  0  0  0  0  0
   73.7077   41.8205   58.1530 O   0  0  0  0  0  0  0  0  0  0  0  0
   71.7473   42.9225   58.2071 C   0  0  0  0  0  0  0  0  0  0  0  0
   72.3113   44.1088   58.1350 C   0  0  0  0  0  0  0  0  0  0  0  0
   70.4035   42.8849   58.2730 N   0  0  0  0  0  0  0  0  0  0  0  0
   69.7944   41.6846   58.3475 C   0  0  0  0  0  0  0  0  0  0  0  0
   68.5314   41.5802   58.4130 O   0  0  0  0  0  0  0  0  0  0  0  0
   73.1655   35.6493   57.3960 C   0  0  0  0  0  0  0  0  0  0  0  0
   72.1096   36.5006   58.0260 C   0  0  0  0  0  0  0  0  0  0  0  0
   71.4565   36.1027   59.1827 C   0  0  0  0  0  0  0  0  0  0  0  0
   70.5773   37.1350   59.4375 C   0  0  0  0  0  0  0  0  0  0  0  0
   70.7540   38.0691   58.4367 C   0  0  0  0  0  0  0  0  0  0  0  0
   71.6603   37.6658   57.6245 O   0  0  0  0  0  0  0  0  0  0  0  0
   71.5313   45.3575   58.1259 C   0  0  0  0  0  0  0  0  0  0  0  0
   71.8818   46.4612   58.8391 C   0  0  0  0  0  0  0  0  0  0  0  0
   71.0909   47.5867   58.7697 C   0  0  0  0  0  0  0  0  0  0  0  0
   69.9410   47.6172   57.9857 C   0  0  0  0  0  0  0  0  0  0  0  0
   69.5801   46.5033   57.2611 C   0  0  0  0  0  0  0  0  0  0  0  0
   70.3900   45.3932   57.3507 C   0  0  0  0  0  0  0  0  0  0  0  0
   68.4595   46.4940   56.4807 O   0  0  0  0  0  0  0  0  0  0  0  0
   68.4373   46.5557   55.1099 C   0  0  0  0  0  0  0  0  0  0  0  0
   68.9376   47.6258   54.4059 C   0  0  0  0  0  0  0  0  0  0  0  0
   68.9098   47.6786   53.0263 C   0  0  0  0  0  0  0  0  0  0  0  0
   68.3638   46.6270   52.3133 C   0  0  0  0  0  0  0  0  0  0  0  0
   68.3310   46.6666   50.9517 F   0  0  0  0  0  0  0  0  0  0  0  0
   67.8642   45.5568   53.0166 C   0  0  0  0  0  0  0  0  0  0  0  0
   67.8944   45.5103   54.4033 C   0  0  0  0  0  0  0  0  0  0  0  0
 11 12  1  0
 12 13  2  0
 12 16  1  0
 13 14  1  0
 14 15  2  0
 15  1  1  0
 15 16  1  0
  1  2  2  0
  2  3  1  0
  2  9  1  0
  3  4  1  0
  4  5  2  0
  4  6  1  0
  6  7  2  0
  6  8  1  0
  7 17  1  0
 17 18  2  0
 17 22  1  0
 18 19  1  0
 19 20  2  0
 20 21  1  0
 21 23  1  0
 21 22  2  0
 23 24  1  0
 24 25  2  0
 24 30  1  0
 25 26  1  0
 26 27  2  0
 27 28  1  0
 27 29  1  0
 29 30  2  0
  8  9  1  0
  9 10  2  0
M  END
>  <minimizedAffinity>  (933) 
-9.72682

$$$$
data/200k_reference_output/data/smiles/80975.pdb
     RDKit          3D

 30 33  0  0  0  0  0  0  0  0999 V2000
   70.9321   49.8124   57.8284 N   0  0  0  0  0  0  0  0  0  0  0  0
   70.2602   50.9454   58.4598 C   0  0  0  0  0  0  0  0  0  0  0  0
   69.9546   51.8680   57.2641 C   0  0  0  0  0  0  0  0  0  0  0  0
   71.1412   51.6779   56.3773 C   0  0  1  0  0  0  0  0  0  0  0  0
   71.7541   50.4096   56.8134 C   0  0  0  0  0  0  0  0  0  0  0  0
   70.6192   45.6765   58.5281 C   0  0  0  0  0  0  0  0  0  0  0  0
   69.9841   46.2493   57.4546 C   0  0  0  0  0  0  0  0  0  0  0  0
   70.0947   47.5953   57.2293 C   0  0  0  0  0  0  0  0  0  0  0  0
   70.8508   48.4199   58.0788 C   0  0  0  0  0  0  0  0  0  0  0  0
   71.4874   47.8468   59.1539 C   0  0  0  0  0  0  0  0  0  0  0  0
   72.2502   48.5953   60.0260 C   0  0  0  0  0  0  0  0  0  0  0  0
   72.8438   47.9787   61.0470 N   0  0  0  0  0  0  0  0  0  0  0  0
   72.7169   46.6476   61.2449 C   0  0  0  0  0  0  0  0  0  0  0  0
   71.9872   45.8756   60.4263 N   0  0  0  0  0  0  0  0  0  0  0  0
   71.3647   46.4685   59.3720 C   0  0  0  0  0  0  0  0  0  0  0  0
   69.5115   43.7295   59.6556 N   0  0  0  0  0  0  0  0  0  0  0  0
   70.5203   44.2297   58.7998 C   0  0  0  0  0  0  0  0  0  0  0  0
   71.3344   43.4379   58.2681 O   0  0  0  0  0  0  0  0  0  0  0  0
   70.8032   51.7679   54.9105 C   0  0  0  0  0  0  0  0  0  0  0  0
   69.9764   50.6652   54.4687 N   0  0  0  0  0  0  0  0  0  0  0  0
   70.5040   49.5834   53.7367 C   0  0  0  0  0  0  0  0  0  0  0  0
   71.7748   49.6031   53.4706 O   0  0  0  0  0  0  0  0  0  0  0  0
   69.7606   48.4384   53.2482 C   0  0  0  0  0  0  0  0  0  0  0  0
   69.0127   47.6886   54.1778 C   0  0  0  0  0  0  0  0  0  0  0  0
   68.2764   46.6058   53.7662 C   0  0  0  0  0  0  0  0  0  0  0  0
   67.5518   45.8728   54.6442 F   0  0  0  0  0  0  0  0  0  0  0  0
   68.2661   46.2462   52.4428 C   0  0  0  0  0  0  0  0  0  0  0  0
   68.9825   46.9525   51.5137 C   0  0  0  0  0  0  0  0  0  0  0  0
   69.7412   48.0685   51.9333 C   0  0  0  0  0  0  0  0  0  0  0  0
   70.4461   48.7431   51.0179 F   0  0  0  0  0  0  0  0  0  0  0  0
 16 17  1  0
 17 18  2  0
 17  6  1  0
  6  7  2  0
  6 15  1  0
  7  8  1  0
  8  9  2  0
  9  1  1  0
  9 10  1  0
  1  2  1  0
  1  5  1  0
  2  3  1  0
  3  4  1  0
  4 19  1  6
  4  5  1  0
 19 20  1  0
 20 21  1  0
 21 22  2  0
 21 23  1  0
 23 24  2  0
 23 29  1  0
 24 25  1  0
 25 26  1  0
 25 27  2  0
 27 28  1  0
 28 29  2  0
 29 30  1  0
 10 11  1  0
 10 15  2  0
 11 12  2  0
 12 13  1  0
 13 14  2  0
 14 15  1  0
M  END
>  <minimizedAffinity>  (934) 
-8.87807

$$$$
data/200k_reference_output/data/smiles/81045.pdb
     RDKit          3D

 23 25  0  0  0  0  0  0  0  0999 V2000
   68.7816   47.3107   56.7644 S   0  0  0  0  0  0  0  0  0  0  0  0
   69.2422   45.9708   57.3310 O   0  0  0  0  0  0  0  0  0  0  0  0
   67.3762   47.4913   57.3276 O   0  0  0  0  0  0  0  0  0  0  0  0
   69.3028   47.9522   52.8199 C   0  0  0  0  0  0  0  0  0  0  0  0
   69.3584   48.0443   54.1907 C   0  0  0  0  0  0  0  0  0  0  0  0
   68.7272   47.1624   55.0394 C   0  0  0  0  0  0  0  0  0  0  0  0
   68.0029   46.1337   54.4471 C   0  0  0  0  0  0  0  0  0  0  0  0
   67.9246   46.0100   53.0818 C   0  0  0  0  0  0  0  0  0  0  0  0
   68.5713   46.9151   52.2807 C   0  0  0  0  0  0  0  0  0  0  0  0
   68.5238   46.8346   50.8941 O   0  0  0  0  0  0  0  0  0  0  0  0
   69.9411   50.1287   52.2757 O   0  0  0  0  0  0  0  0  0  0  0  0
   69.9987   48.9253   51.9543 C   0  0  0  0  0  0  0  0  0  0  0  0
   70.6910   48.5542   50.8348 O   0  0  0  0  0  0  0  0  0  0  0  0
   69.8019   48.5446   57.3573 N   0  0  0  0  0  0  0  0  0  0  0  0
   69.6491   49.9256   57.1409 C   0  0  0  0  0  0  0  0  0  0  0  0
   68.4597   50.5304   57.4749 C   0  0  0  0  0  0  0  0  0  0  0  0
   68.3542   51.8965   57.2638 C   0  0  0  0  0  0  0  0  0  0  0  0
   69.4083   52.6124   56.7385 C   0  0  0  0  0  0  0  0  0  0  0  0
   69.5698   53.9581   56.4316 C   0  0  0  0  0  0  0  0  0  0  0  0
   70.8060   54.1430   55.9364 N   0  0  0  0  0  0  0  0  0  0  0  0
   71.4182   52.9713   55.9218 N   0  0  0  0  0  0  0  0  0  0  0  0
   70.6072   52.0116   56.4008 C   0  0  0  0  0  0  0  0  0  0  0  0
   70.7235   50.6593   56.6047 C   0  0  0  0  0  0  0  0  0  0  0  0
 11 12  2  0
 12 13  1  0
 12  4  1  0
  4  5  2  0
  4  9  1  0
  5  6  1  0
  6  1  1  0
  6  7  2  0
  1  2  2  0
  1  3  2  0
  1 14  1  0
 14 15  1  0
 15 16  1  0
 15 23  2  0
 16 17  2  0
 17 18  1  0
 18 19  2  0
 18 22  1  0
 19 20  1  0
 20 21  1  0
 21 22  2  0
 22 23  1  0
  7  8  1  0
  8  9  2  0
  9 10  1  0
M  END
>  <minimizedAffinity>  (935) 
-8.58927

$$$$
data/200k_reference_output/data/smiles/81053.pdb
     RDKit          3D

 27 31  0  0  0  0  0  0  0  0999 V2000
   72.0781   50.7640   54.5409 C   0  0  0  0  0  0  0  0  0  0  0  0
   71.6738   49.5911   54.0082 N   0  0  0  0  0  0  0  0  0  0  0  0
   70.3580   49.4942   53.9744 N   0  0  0  0  0  0  0  0  0  0  0  0
   69.8963   50.6427   54.5028 C   0  0  0  0  0  0  0  0  0  0  0  0
   70.9553   51.4507   54.8640 C   0  0  0  0  0  0  0  0  0  0  0  0
   70.4241   52.7191   55.4482 C   0  0  0  0  0  0  0  0  0  0  0  0
   68.9195   52.6409   55.2850 C   0  0  2  0  0  0  0  0  0  0  0  0
   68.2371   51.6805   56.1913 C   0  0  0  0  0  0  0  0  0  0  0  0
   68.5972   51.2961   54.8120 C   0  0  2  0  0  0  0  0  0  0  0  0
   69.5701   48.3974   53.4776 C   0  0  0  0  0  0  0  0  0  0  0  0
   68.7669   47.6614   54.3240 C   0  0  0  0  0  0  0  0  0  0  0  0
   68.0040   46.6029   53.8525 C   0  0  0  0  0  0  0  0  0  0  0  0
   68.0213   46.2473   52.5211 C   0  0  0  0  0  0  0  0  0  0  0  0
   67.2824   45.2138   52.0349 F   0  0  0  0  0  0  0  0  0  0  0  0
   68.8211   46.9773   51.6699 C   0  0  0  0  0  0  0  0  0  0  0  0
   69.5798   48.0333   52.1474 C   0  0  0  0  0  0  0  0  0  0  0  0
   70.3685   48.7486   51.2939 F   0  0  0  0  0  0  0  0  0  0  0  0
   73.8644   52.3099   54.4208 O   0  0  0  0  0  0  0  0  0  0  0  0
   73.4831   51.1601   54.7096 C   0  0  0  0  0  0  0  0  0  0  0  0
   74.3970   50.2150   55.2044 N   0  0  0  0  0  0  0  0  0  0  0  0
   75.8135   50.5146   55.4066 C   0  0  0  0  0  0  0  0  0  0  0  0
   76.3997   49.6448   56.5008 C   0  0  0  0  0  0  0  0  0  0  0  0
   75.4186   49.3389   57.5803 C   0  0  0  0  0  0  0  0  0  0  0  0
   75.6169   50.0477   58.8722 C   0  0  0  0  0  0  0  0  0  0  0  0
   76.8861   50.4935   59.1242 O   0  0  0  0  0  0  0  0  0  0  0  0
   77.8697   49.7896   58.4383 C   0  0  0  0  0  0  0  0  0  0  0  0
   77.7316   50.1504   56.9765 C   0  0  0  0  0  0  0  0  0  0  0  0
 18 19  2  0
 19 20  1  0
 19  1  1  0
 20 21  1  0
 21 22  1  0
 22 23  1  0
 22 27  1  0
 23 24  1  0
 24 25  1  0
 25 26  1  0
 26 27  1  0
  1  2  2  0
  1  5  1  0
  2  3  1  0
  3 10  1  0
  3  4  1  0
 10 11  2  0
 10 16  1  0
 11 12  1  0
 12 13  2  0
 13 14  1  0
 13 15  1  0
 15 16  2  0
 16 17  1  0
  4  5  2  0
  4  9  1  0
  5  6  1  0
  7  6  1  1
  7  8  1  0
  7  9  1  0
  9  8  1  1
M  END
>  <minimizedAffinity>  (936) 
-8.69689

$$$$
data/200k_reference_output/data/smiles/81284.pdb
     RDKit          3D

 20 22  0  0  0  0  0  0  0  0999 V2000
   66.7262   44.9944   50.8886 O   0  0  0  0  0  0  0  0  0  0  0  0
   67.3787   45.8003   51.6253 C   0  0  0  0  0  0  0  0  0  0  0  0
   68.2113   46.6977   51.0691 N   0  0  0  0  0  0  0  0  0  0  0  0
   68.9065   47.5572   51.8635 C   0  0  0  0  0  0  0  0  0  0  0  0
   69.6778   48.4011   51.3531 O   0  0  0  0  0  0  0  0  0  0  0  0
   68.7711   47.5182   53.2121 C   0  0  0  0  0  0  0  0  0  0  0  0
   69.4535   48.3739   54.0574 C   0  0  0  0  0  0  0  0  0  0  0  0
   69.1668   48.1882   55.4193 C   0  0  0  0  0  0  0  0  0  0  0  0
   68.2863   47.2321   55.8728 C   0  0  0  0  0  0  0  0  0  0  0  0
   68.0947   47.1388   57.1052 O   0  0  0  0  0  0  0  0  0  0  0  0
   67.6860   46.4617   55.0162 O   0  0  0  0  0  0  0  0  0  0  0  0
   67.8861   46.5619   53.7252 C   0  0  0  0  0  0  0  0  0  0  0  0
   67.1982   45.7128   52.9440 N   0  0  0  0  0  0  0  0  0  0  0  0
   70.4281   49.3233   53.5641 C   0  0  0  0  0  0  0  0  0  0  0  0
   71.0610   50.2766   54.4960 C   0  0  0  0  0  0  0  0  0  0  0  0
   70.5693   51.6941   54.5403 C   0  0  0  0  0  0  0  0  0  0  0  0
   69.3529   51.9559   55.3530 C   0  0  0  0  0  0  0  0  0  0  0  0
   67.8047   51.9482   54.4072 Cl  0  0  0  0  0  0  0  0  0  0  0  0
   69.3982   53.1835   56.2238 C   0  0  0  0  0  0  0  0  0  0  0  0
   69.2835   51.7942   56.8339 C   0  0  0  0  0  0  0  0  0  0  0  0
  1  2  2  0
  2  3  1  0
  2 13  1  0
  3  4  1  0
  4  5  2  0
  4  6  1  0
  6  7  1  0
  6 12  2  0
  7 14  1  0
  7  8  2  0
 14 15  1  0
 15 16  1  0
 16 17  1  0
 17 18  1  0
 17 19  1  0
 17 20  1  0
 19 20  1  0
  8  9  1  0
  9 10  2  0
  9 11  1  0
 11 12  1  0
 12 13  1  0
M  END
>  <minimizedAffinity>  (937) 
-8.52504

$$$$
data/200k_reference_output/data/smiles/81399.pdb
     RDKit          3D

 22 24  0  0  0  0  0  0  0  0999 V2000
   69.7997   48.5895   54.3590 N   0  0  0  0  0  0  0  0  0  0  0  0
   70.4697   49.1617   53.3469 N   0  0  0  0  0  0  0  0  0  0  0  0
   70.1151   48.6222   52.1704 C   0  0  0  0  0  0  0  0  0  0  0  0
   70.5118   48.8856   51.0171 O   0  0  0  0  0  0  0  0  0  0  0  0
   69.1605   47.6437   52.4273 C   0  0  0  0  0  0  0  0  0  0  0  0
   68.4504   46.7680   51.6343 C   0  0  0  0  0  0  0  0  0  0  0  0
   67.5570   45.8798   52.1939 C   0  0  0  0  0  0  0  0  0  0  0  0
   67.3981   45.8959   53.5599 C   0  0  0  0  0  0  0  0  0  0  0  0
   68.1127   46.7767   54.3595 C   0  0  0  0  0  0  0  0  0  0  0  0
   69.0108   47.6733   53.8018 C   0  0  0  0  0  0  0  0  0  0  0  0
   66.8206   44.9721   51.3668 N   0  0  0  0  0  0  0  0  0  0  0  0
   66.6593   43.8021   51.7147 O   0  0  0  0  0  0  0  0  0  0  0  0
   66.2792   45.3792   50.1722 O   0  0  0  0  0  0  0  0  0  0  0  0
   69.9874   49.0285   55.6955 C   0  0  0  0  0  0  0  0  0  0  0  0
   68.5132   50.8960   56.4239 C   0  0  0  0  0  0  0  0  0  0  0  0
   67.4104   51.2890   57.1733 C   0  0  0  0  0  0  0  0  0  0  0  0
   66.6697   50.3973   57.9099 C   0  0  0  0  0  0  0  0  0  0  0  0
   67.0126   49.0819   57.9162 C   0  0  0  0  0  0  0  0  0  0  0  0
   68.1049   48.6853   57.1751 C   0  0  0  0  0  0  0  0  0  0  0  0
   68.8728   49.5798   56.4183 C   0  0  0  0  0  0  0  0  0  0  0  0
   69.5972   53.1003   56.2390 C   0  0  0  0  0  0  0  0  0  0  0  0
   69.1920   51.8552   55.7195 O   0  0  0  0  0  0  0  0  0  0  0  0
 21 22  1  0
 22 15  1  0
 15 16  2  0
 15 20  1  0
 16 17  1  0
 17 18  2  0
 18 19  1  0
 19 20  2  0
 20 14  1  0
 14  1  1  0
  1  2  1  0
  1 10  1  0
  2  3  1  0
  3  4  2  0
  3  5  1  0
  5  6  1  0
  5 10  2  0
  6  7  2  0
  7 11  1  0
  7  8  1  0
 11 12  2  0
 11 13  1  0
  8  9  2  0
  9 10  1  0
M  CHG  2  11   1  13  -1
M  END
>  <minimizedAffinity>  (938) 
-8.67105

$$$$
data/200k_reference_output/data/smiles/81542.pdb
     RDKit          3D

 21 23  0  0  0  0  0  0  0  0999 V2000
   67.2786   43.1934   55.7920 O   0  0  0  0  0  0  0  0  0  0  0  0
   68.3484   43.0173   56.4299 C   0  0  0  0  0  0  0  0  0  0  0  0
   68.8947   41.8185   56.9549 N   0  0  0  0  0  0  0  0  0  0  0  0
   70.1323   42.0527   57.6145 C   0  0  0  0  0  0  0  0  0  0  0  0
   71.0148   41.2112   58.2678 C   0  0  0  0  0  0  0  0  0  0  0  0
   72.1754   41.6913   58.8430 C   0  0  0  0  0  0  0  0  0  0  0  0
   72.4222   43.0439   58.7412 C   0  0  0  0  0  0  0  0  0  0  0  0
   71.5275   43.8902   58.0808 C   0  0  0  0  0  0  0  0  0  0  0  0
   70.3719   43.4074   57.5088 C   0  0  0  0  0  0  0  0  0  0  0  0
   69.2760   44.0696   56.7689 C   0  0  0  0  0  0  0  0  0  0  0  0
   69.1629   45.3213   56.4884 N   0  0  0  0  0  0  0  0  0  0  0  0
   68.0902   45.8706   55.7925 N   0  0  0  0  0  0  0  0  0  0  0  0
   68.2796   46.2365   54.4311 C   0  0  0  0  0  0  0  0  0  0  0  0
   67.6068   45.5207   53.4444 C   0  0  0  0  0  0  0  0  0  0  0  0
   67.7543   45.8170   52.1100 C   0  0  0  0  0  0  0  0  0  0  0  0
   68.5839   46.8424   51.7276 C   0  0  0  0  0  0  0  0  0  0  0  0
   69.2757   47.5866   52.6586 C   0  0  0  0  0  0  0  0  0  0  0  0
   69.0962   47.2523   53.9936 C   0  0  0  0  0  0  0  0  0  0  0  0
   70.1654   48.6826   52.2625 C   0  0  0  0  0  0  0  0  0  0  0  0
   71.1399   48.9647   52.9726 O   0  0  0  0  0  0  0  0  0  0  0  0
   69.9321   49.4070   51.1039 O   0  0  0  0  0  0  0  0  0  0  0  0
  1  2  2  0
  2  3  1  0
  2 10  1  0
  3  4  1  0
  4  5  2  0
  4  9  1  0
  5  6  1  0
  6  7  2  0
  7  8  1  0
  8  9  2  0
  9 10  1  0
 10 11  2  0
 11 12  1  0
 12 13  1  0
 13 14  2  0
 13 18  1  0
 14 15  1  0
 15 16  2  0
 16 17  1  0
 17 19  1  0
 17 18  2  0
 19 20  2  0
 19 21  1  0
M  END
>  <minimizedAffinity>  (939) 
-8.67507

$$$$
data/200k_reference_output/data/smiles/81544.pdb
     RDKit          3D

 26 29  0  0  0  0  0  0  0  0999 V2000
   68.6027   45.0705   55.6947 C   0  0  0  0  0  0  0  0  0  0  0  0
   69.3460   44.3659   56.6148 C   0  0  0  0  0  0  0  0  0  0  0  0
   68.8779   43.1097   56.7540 N   0  0  0  0  0  0  0  0  0  0  0  0
   69.2200   42.0366   57.4935 C   0  0  0  0  0  0  0  0  0  0  0  0
   68.5652   40.8360   57.4525 C   0  0  0  0  0  0  0  0  0  0  0  0
   67.4868   40.7257   56.5960 C   0  0  0  0  0  0  0  0  0  0  0  0
   67.1316   41.8204   55.8362 C   0  0  0  0  0  0  0  0  0  0  0  0
   67.8288   43.0121   55.9158 C   0  0  0  0  0  0  0  0  0  0  0  0
   67.6646   44.2010   55.2766 N   0  0  0  0  0  0  0  0  0  0  0  0
   68.9484   39.6826   58.2616 C   0  0  0  0  0  0  0  0  0  0  0  0
   68.1621   39.2026   59.2942 C   0  0  0  0  0  0  0  0  0  0  0  0
   68.5346   38.1118   60.0523 C   0  0  0  0  0  0  0  0  0  0  0  0
   69.7298   37.4583   59.7899 C   0  0  0  0  0  0  0  0  0  0  0  0
   70.1587   36.3719   60.5040 C   0  0  0  0  0  0  0  0  0  0  0  0
   71.3625   35.7617   60.1955 C   0  0  0  0  0  0  0  0  0  0  0  0
   72.1471   36.2282   59.1766 C   0  0  0  0  0  0  0  0  0  0  0  0
   71.7369   37.3259   58.4397 C   0  0  0  0  0  0  0  0  0  0  0  0
   70.5328   37.9221   58.7609 C   0  0  0  0  0  0  0  0  0  0  0  0
   70.1300   39.0057   58.0314 C   0  0  0  0  0  0  0  0  0  0  0  0
   68.9020   46.7956   53.8723 N   0  0  0  0  0  0  0  0  0  0  0  0
   68.7595   46.4516   55.2436 C   0  0  0  0  0  0  0  0  0  0  0  0
   68.7694   47.3717   56.0867 O   0  0  0  0  0  0  0  0  0  0  0  0
   69.0567   48.1612   53.4142 C   0  0  0  0  0  0  0  0  0  0  0  0
   70.8430   49.0844   52.1126 O   0  0  0  0  0  0  0  0  0  0  0  0
   69.9703   48.2113   52.2377 C   0  0  0  0  0  0  0  0  0  0  0  0
   69.8412   47.2479   51.2472 O   0  0  0  0  0  0  0  0  0  0  0  0
 24 25  2  0
 25 26  1  0
 25 23  1  0
 23 20  1  0
 20 21  1  0
 21 22  2  0
 21  1  1  0
  1  2  2  0
  1  9  1  0
  2  3  1  0
  3  4  1  0
  3  8  1  0
  4  5  2  0
  5 10  1  0
  5  6  1  0
 10 11  2  0
 10 19  1  0
 11 12  1  0
 12 13  2  0
 13 14  1  0
 13 18  1  0
 14 15  2  0
 15 16  1  0
 16 17  2  0
 17 18  1  0
 18 19  2  0
  6  7  2  0
  7  8  1  0
  8  9  2  0
M  END
>  <minimizedAffinity>  (940) 
-8.54302

$$$$
data/200k_reference_output/data/smiles/81698.pdb
     RDKit          3D

 25 26  0  0  0  0  0  0  0  0999 V2000
   70.4061   50.9114   53.1240 O   0  0  0  0  0  0  0  0  0  0  0  0
   70.6248   49.8261   53.7807 C   0  0  0  0  0  0  0  0  0  0  0  0
   71.6630   49.9391   54.7171 N   0  0  0  0  0  0  0  0  0  0  0  0
   69.8144   48.6698   53.4928 C   0  0  0  0  0  0  0  0  0  0  0  0
   69.2192   47.9955   54.5638 C   0  0  0  0  0  0  0  0  0  0  0  0
   69.4288   48.4530   55.8202 F   0  0  0  0  0  0  0  0  0  0  0  0
   68.4336   46.8943   54.4251 C   0  0  0  0  0  0  0  0  0  0  0  0
   67.8651   46.2509   55.4554 F   0  0  0  0  0  0  0  0  0  0  0  0
   68.2002   46.4019   53.1576 C   0  0  0  0  0  0  0  0  0  0  0  0
   67.4179   45.3014   52.9780 F   0  0  0  0  0  0  0  0  0  0  0  0
   68.7552   47.0194   52.0649 C   0  0  0  0  0  0  0  0  0  0  0  0
   68.5551   46.5739   50.7962 F   0  0  0  0  0  0  0  0  0  0  0  0
   69.5630   48.1573   52.2589 C   0  0  0  0  0  0  0  0  0  0  0  0
   70.0964   48.7483   51.1799 F   0  0  0  0  0  0  0  0  0  0  0  0
   72.4266   51.1533   54.9376 C   0  0  2  0  0  0  0  0  0  0  0  0
   73.8667   50.9517   54.6147 C   0  0  0  0  0  0  0  0  0  0  0  0
   74.1157   50.2225   53.6151 O   0  0  0  0  0  0  0  0  0  0  0  0
   74.9002   51.5035   55.3287 O   0  0  0  0  0  0  0  0  0  0  0  0
   72.2397   51.5231   56.4029 C   0  0  0  0  0  0  0  0  0  0  0  0
   70.8206   51.5003   56.7995 C   0  0  0  0  0  0  0  0  0  0  0  0
   69.9360   52.3429   56.1618 C   0  0  0  0  0  0  0  0  0  0  0  0
   68.5925   52.3638   56.4953 C   0  0  0  0  0  0  0  0  0  0  0  0
   68.0873   51.5372   57.4833 C   0  0  0  0  0  0  0  0  0  0  0  0
   68.9614   50.6967   58.1226 C   0  0  0  0  0  0  0  0  0  0  0  0
   70.3015   50.6839   57.7825 C   0  0  0  0  0  0  0  0  0  0  0  0
  1  2  2  0
  2  3  1  0
  2  4  1  0
  3 15  1  0
 15 19  1  1
 15 16  1  0
 19 20  1  0
 20 21  2  0
 20 25  1  0
 21 22  1  0
 22 23  2  0
 23 24  1  0
 24 25  2  0
 16 17  2  0
 16 18  1  0
  4  5  2  0
  4 13  1  0
  5  6  1  0
  5  7  1  0
  7  8  1  0
  7  9  2  0
  9 10  1  0
  9 11  1  0
 11 12  1  0
 11 13  2  0
 13 14  1  0
M  END
>  <minimizedAffinity>  (941) 
-8.87815

$$$$
data/200k_reference_output/data/smiles/81780.pdb
     RDKit          3D

 26 28  0  0  0  0  0  0  0  0999 V2000
   68.8671   44.0610   56.6806 C   0  0  0  0  0  0  0  0  0  0  0  0
   69.5153   44.9143   57.3900 N   0  0  0  0  0  0  0  0  0  0  0  0
   70.3450   44.4307   58.4352 C   0  0  0  0  0  0  0  0  0  0  0  0
   70.8210   45.2439   59.3005 O   0  0  0  0  0  0  0  0  0  0  0  0
   70.6954   42.9915   58.5759 C   0  0  0  0  0  0  0  0  0  0  0  0
   69.4466   42.2174   58.2386 C   0  0  1  0  0  0  0  0  0  0  0  0
   68.9941   42.6916   56.9455 N   0  0  0  0  0  0  0  0  0  0  0  0
   69.6544   40.7536   58.2459 C   0  0  0  0  0  0  0  0  0  0  0  0
   68.8814   40.0071   57.6032 O   0  0  0  0  0  0  0  0  0  0  0  0
   70.7162   40.1470   58.9649 N   0  0  0  0  0  0  0  0  0  0  0  0
   70.9344   38.7279   58.9844 C   0  0  0  0  0  0  0  0  0  0  0  0
   70.3226   37.9386   59.9140 C   0  0  0  0  0  0  0  0  0  0  0  0
   70.5596   36.5823   59.8974 C   0  0  0  0  0  0  0  0  0  0  0  0
   71.3999   35.9983   58.9642 C   0  0  0  0  0  0  0  0  0  0  0  0
   71.6545   34.5208   58.9518 C   0  0  0  0  0  0  0  0  0  0  0  0
   72.0160   36.7965   58.0272 C   0  0  0  0  0  0  0  0  0  0  0  0
   72.9246   36.1737   57.0171 C   0  0  0  0  0  0  0  0  0  0  0  0
   71.7726   38.1532   58.0527 C   0  0  0  0  0  0  0  0  0  0  0  0
   68.0455   44.5933   55.6419 N   0  0  0  0  0  0  0  0  0  0  0  0
   69.3869   48.8172   52.0105 C   0  0  0  0  0  0  0  0  0  0  0  0
   69.0546   47.7490   52.9791 C   0  0  0  0  0  0  0  0  0  0  0  0
   68.5387   46.5485   52.5398 C   0  0  0  0  0  0  0  0  0  0  0  0
   68.2261   45.5466   53.4349 C   0  0  0  0  0  0  0  0  0  0  0  0
   68.4033   45.6732   54.8021 C   0  0  0  0  0  0  0  0  0  0  0  0
   68.9156   46.8676   55.2364 C   0  0  0  0  0  0  0  0  0  0  0  0
   69.2378   47.8931   54.3345 C   0  0  0  0  0  0  0  0  0  0  0  0
 20 21  1  0
 21 22  2  0
 21 26  1  0
 22 23  1  0
 23 24  2  0
 24 19  1  0
 24 25  1  0
 19  1  1  0
  1  2  2  0
  1  7  1  0
  2  3  1  0
  3  4  2  0
  3  5  1  0
  5  6  1  0
  6  8  1  6
  6  7  1  0
  8  9  2  0
  8 10  1  0
 10 11  1  0
 11 12  2  0
 11 18  1  0
 12 13  1  0
 13 14  2  0
 14 15  1  0
 14 16  1  0
 16 17  1  0
 16 18  2  0
 25 26  2  0
M  CHG  1   2   1
M  END
>  <minimizedAffinity>  (942) 
-8.53053

$$$$
data/200k_reference_output/data/smiles/81935.pdb
     RDKit          3D

 29 33  0  0  0  0  0  0  0  0999 V2000
   69.1683   49.6916   56.6687 C   0  0  0  0  0  0  0  0  0  0  0  0
   69.6362   48.4057   57.2118 N   0  0  0  0  0  0  0  0  0  0  0  0
   69.0248   47.2625   56.8329 C   0  0  0  0  0  0  0  0  0  0  0  0
   69.4110   46.0638   57.2979 N   0  0  0  0  0  0  0  0  0  0  0  0
   70.4228   45.9340   58.1631 C   0  0  0  0  0  0  0  0  0  0  0  0
   70.7863   44.6899   58.6141 C   0  0  0  0  0  0  0  0  0  0  0  0
   71.8501   44.6616   59.5108 C   0  0  0  0  0  0  0  0  0  0  0  0
   72.5007   45.8039   59.9238 C   0  0  0  0  0  0  0  0  0  0  0  0
   72.1040   47.0303   59.4460 C   0  0  0  0  0  0  0  0  0  0  0  0
   71.0578   47.1110   58.5583 C   0  0  0  0  0  0  0  0  0  0  0  0
   70.6547   48.3386   58.0757 C   0  0  0  0  0  0  0  0  0  0  0  0
   71.2226   49.4087   58.4269 O   0  0  0  0  0  0  0  0  0  0  0  0
   70.1401   43.4450   58.2163 C   0  0  0  0  0  0  0  0  0  0  0  0
   69.1805   43.2193   57.2718 C   0  0  0  0  0  0  0  0  0  0  0  0
   68.8576   41.8665   57.2334 C   0  0  0  0  0  0  0  0  0  0  0  0
   69.6449   41.2666   58.1799 C   0  0  0  0  0  0  0  0  0  0  0  0
   70.4064   42.2439   58.7552 N   0  0  0  0  0  0  0  0  0  0  0  0
   69.6069   39.8020   58.4406 C   0  0  0  0  0  0  0  0  0  0  0  0
   68.2823   39.2225   58.0241 C   0  0  0  0  0  0  0  0  0  0  0  0
   67.8575   39.6629   56.7187 N   0  0  0  0  0  0  0  0  0  0  0  0
   67.9186   41.0845   56.4503 C   0  0  0  0  0  0  0  0  0  0  0  0
   67.2035   41.6305   55.5885 O   0  0  0  0  0  0  0  0  0  0  0  0
   67.9476   47.3805   55.9135 N   0  0  0  0  0  0  0  0  0  0  0  0
   68.1609   47.0433   54.5576 C   0  0  0  0  0  0  0  0  0  0  0  0
   68.9294   47.8433   53.7347 C   0  0  0  0  0  0  0  0  0  0  0  0
   69.1423   47.5168   52.4017 C   0  0  0  0  0  0  0  0  0  0  0  0
   68.5812   46.3746   51.8774 C   0  0  0  0  0  0  0  0  0  0  0  0
   67.8207   45.5899   52.7062 C   0  0  0  0  0  0  0  0  0  0  0  0
   67.6007   45.8933   54.0140 C   0  0  0  0  0  0  0  0  0  0  0  0
  1  2  1  0
  2  3  1  0
  2 11  1  0
  3 23  1  0
  3  4  2  0
 23 24  1  0
 24 25  2  0
 24 29  1  0
 25 26  1  0
 26 27  2  0
 27 28  1  0
 28 29  2  0
  4  5  1  0
  5  6  1  0
  5 10  2  0
  6 13  1  0
  6  7  2  0
 13 14  2  0
 13 17  1  0
 14 15  1  0
 15 16  2  0
 15 21  1  0
 16 17  1  0
 16 18  1  0
 18 19  1  0
 19 20  1  0
 20 21  1  0
 21 22  2  0
  7  8  1  0
  8  9  2  0
  9 10  1  0
 10 11  1  0
 11 12  2  0
M  END
>  <minimizedAffinity>  (943) 
-8.98417

$$$$
data/200k_reference_output/data/smiles/82058.pdb
     RDKit          3D

 29 32  0  0  0  0  0  0  0  0999 V2000
   68.7715   41.3303   57.4576 C   0  0  0  0  0  0  0  0  0  0  0  0
   68.3271   40.0114   57.6361 C   0  0  0  0  0  0  0  0  0  0  0  0
   69.1581   39.0280   58.1163 C   0  0  0  0  0  0  0  0  0  0  0  0
   70.4617   39.3228   58.4376 C   0  0  0  0  0  0  0  0  0  0  0  0
   70.9507   40.6281   58.2769 C   0  0  0  0  0  0  0  0  0  0  0  0
   72.2582   40.9167   58.5944 C   0  0  0  0  0  0  0  0  0  0  0  0
   73.0089   40.0316   59.0270 O   0  0  0  0  0  0  0  0  0  0  0  0
   72.7099   42.2011   58.4235 C   0  0  0  0  0  0  0  0  0  0  0  0
   74.0305   42.5239   58.7398 C   0  0  0  0  0  0  0  0  0  0  0  0
   74.4525   43.8116   58.5615 C   0  0  0  0  0  0  0  0  0  0  0  0
   73.5466   44.7586   58.0702 C   0  0  0  0  0  0  0  0  0  0  0  0
   72.2463   44.4302   57.7609 C   0  0  0  0  0  0  0  0  0  0  0  0
   71.8101   43.1271   57.9385 C   0  0  0  0  0  0  0  0  0  0  0  0
   70.5335   42.8589   57.6230 N   0  0  0  0  0  0  0  0  0  0  0  0
   70.0842   41.5956   57.7896 C   0  0  0  0  0  0  0  0  0  0  0  0
   68.3576   43.1829   55.8567 N   0  0  0  0  0  0  0  0  0  0  0  0
   67.8924   42.3444   56.9172 C   0  0  0  0  0  0  0  0  0  0  0  0
   66.7103   42.5541   57.3225 O   0  0  0  0  0  0  0  0  0  0  0  0
   67.5509   44.1851   55.3170 N   0  0  0  0  0  0  0  0  0  0  0  0
   69.2376   47.7028   53.5698 C   0  0  0  0  0  0  0  0  0  0  0  0
   68.6409   46.7312   52.7797 C   0  0  0  0  0  0  0  0  0  0  0  0
   68.0872   45.5764   53.3401 C   0  0  0  0  0  0  0  0  0  0  0  0
   68.1047   45.3423   54.6897 C   0  0  0  0  0  0  0  0  0  0  0  0
   68.7100   46.3294   55.4800 C   0  0  0  0  0  0  0  0  0  0  0  0
   69.2533   47.4652   54.9283 C   0  0  0  0  0  0  0  0  0  0  0  0
   70.0584   49.0871   51.1749 N   0  0  0  0  0  0  0  0  0  0  0  0
   69.9460   49.1489   52.8785 S   0  0  0  0  0  0  0  0  0  0  0  0
   69.1613   50.3729   53.2812 O   0  0  0  0  0  0  0  0  0  0  0  0
   71.3470   49.3579   53.4271 O   0  0  0  0  0  0  0  0  0  0  0  0
 26 27  1  0
 27 28  2  0
 27 29  2  0
 27 20  1  0
 20 21  2  0
 20 25  1  0
 21 22  1  0
 22 23  2  0
 23 19  1  0
 23 24  1  0
 19 16  1  0
 16 17  1  0
 17 18  2  0
 17  1  1  0
  1  2  2  0
  1 15  1  0
  2  3  1  0
  3  4  2  0
  4  5  1  0
  5  6  1  0
  5 15  2  0
  6  7  2  0
  6  8  1  0
  8  9  1  0
  8 13  2  0
  9 10  2  0
 10 11  1  0
 11 12  2  0
 12 13  1  0
 13 14  1  0
 14 15  1  0
 24 25  2  0
M  END
>  <minimizedAffinity>  (944) 
-9.56847

$$$$
data/200k_reference_output/data/smiles/82064.pdb
     RDKit          3D

 28 30  0  0  0  0  0  0  0  0999 V2000
   67.5484   43.2175   56.2813 N   0  0  0  0  0  0  0  0  0  0  0  0
   68.3390   42.2019   56.8816 C   0  0  0  0  0  0  0  0  0  0  0  0
   69.5766   42.3943   56.9556 O   0  0  0  0  0  0  0  0  0  0  0  0
   67.7496   40.9385   57.4160 C   0  0  1  0  0  0  0  0  0  0  0  0
   68.8132   39.9655   57.8586 C   0  0  0  0  0  0  0  0  0  0  0  0
   68.7144   39.8564   59.3136 C   0  0  0  0  0  0  0  0  0  0  0  0
   69.4616   39.1586   60.0385 O   0  0  0  0  0  0  0  0  0  0  0  0
   67.6539   40.6568   59.7567 N   0  0  0  0  0  0  0  0  0  0  0  0
   66.9124   41.2088   58.6343 C   0  0  0  0  0  0  0  0  0  0  0  0
   67.3462   40.8978   61.1033 C   0  0  0  0  0  0  0  0  0  0  0  0
   67.7602   42.0377   61.7429 C   0  0  0  0  0  0  0  0  0  0  0  0
   67.4606   42.2827   63.0723 C   0  0  0  0  0  0  0  0  0  0  0  0
   66.7267   41.3560   63.7691 C   0  0  0  0  0  0  0  0  0  0  0  0
   66.4023   41.5460   65.0805 F   0  0  0  0  0  0  0  0  0  0  0  0
   66.2924   40.1983   63.1591 C   0  0  0  0  0  0  0  0  0  0  0  0
   66.6130   39.9809   61.8164 C   0  0  0  0  0  0  0  0  0  0  0  0
   67.8149   44.8325   54.5859 C   0  0  0  0  0  0  0  0  0  0  0  0
   68.0846   44.4095   55.7745 N   0  0  0  0  0  0  0  0  0  0  0  0
   69.3864   48.3917   52.8930 C   0  0  0  0  0  0  0  0  0  0  0  0
   69.2844   48.2703   54.2659 C   0  0  0  0  0  0  0  0  0  0  0  0
   68.7684   47.1014   54.8359 C   0  0  0  0  0  0  0  0  0  0  0  0
   68.3569   46.0635   54.0350 C   0  0  0  0  0  0  0  0  0  0  0  0
   68.4675   46.2057   52.6702 C   0  0  0  0  0  0  0  0  0  0  0  0
   68.9796   47.3618   52.0902 C   0  0  0  0  0  0  0  0  0  0  0  0
   69.9264   49.6164   52.3261 C   0  0  0  0  0  0  0  0  0  0  0  0
   69.7552   49.8431   51.1107 O   0  0  0  0  0  0  0  0  0  0  0  0
   69.9879   51.6586   53.6962 C   0  0  0  0  0  0  0  0  0  0  0  0
   70.6216   50.5332   53.0894 O   0  0  0  0  0  0  0  0  0  0  0  0
 27 28  1  0
 28 25  1  0
 25 26  2  0
 25 19  1  0
 19 20  2  0
 19 24  1  0
 20 21  1  0
 21 22  2  0
 22 17  1  0
 22 23  1  0
 17 18  2  0
 18  1  1  0
  1  2  1  0
  2  3  2  0
  4  2  1  1
  4  5  1  0
  4  9  1  0
  5  6  1  0
  6  7  2  0
  6  8  1  0
  8 10  1  0
  8  9  1  0
 10 11  2  0
 10 16  1  0
 11 12  1  0
 12 13  2  0
 13 14  1  0
 13 15  1  0
 15 16  2  0
 23 24  2  0
M  END
>  <minimizedAffinity>  (945) 
-8.50690

$$$$
data/200k_reference_output/data/smiles/82202.pdb
     RDKit          3D

 29 31  0  0  0  0  0  0  0  0999 V2000
   71.3305   43.1633   59.2172 C   0  0  0  0  0  0  0  0  0  0  0  0
   71.2779   42.2883   60.2877 C   0  0  0  0  0  0  0  0  0  0  0  0
   71.6274   40.9597   60.1480 C   0  0  0  0  0  0  0  0  0  0  0  0
   72.0459   40.4304   58.9441 C   0  0  0  0  0  0  0  0  0  0  0  0
   72.1013   41.2918   57.8710 C   0  0  0  0  0  0  0  0  0  0  0  0
   71.7475   42.6339   58.0167 C   0  0  0  0  0  0  0  0  0  0  0  0
   71.4399   45.2022   60.3646 O   0  0  0  0  0  0  0  0  0  0  0  0
   70.9558   44.5625   59.3929 C   0  0  0  0  0  0  0  0  0  0  0  0
   70.0767   45.2842   58.5512 N   0  0  0  0  0  0  0  0  0  0  0  0
   69.7449   46.6245   58.7558 N   0  0  0  0  0  0  0  0  0  0  0  0
   69.9760   47.5642   57.7277 C   0  0  0  0  0  0  0  0  0  0  0  0
   70.4759   49.0613   58.1229 S   0  0  0  0  0  0  0  0  0  0  0  0
   69.7879   47.2485   56.3439 N   0  0  0  0  0  0  0  0  0  0  0  0
   68.5008   47.0936   55.7754 C   0  0  0  0  0  0  0  0  0  0  0  0
   67.4911   47.2374   56.5050 O   0  0  0  0  0  0  0  0  0  0  0  0
   68.3603   46.7790   54.3975 C   0  0  0  0  0  0  0  0  0  0  0  0
   67.7856   45.7980   53.6940 C   0  0  0  0  0  0  0  0  0  0  0  0
   67.8200   45.7712   52.3550 C   0  0  0  0  0  0  0  0  0  0  0  0
   68.4908   46.8282   51.7190 C   0  0  0  0  0  0  0  0  0  0  0  0
   69.0492   47.8212   53.0690 S   0  0  0  0  0  0  0  0  0  0  0  0
   72.3962   39.0539   58.8479 N   0  0  0  0  0  0  0  0  0  0  0  0
   71.5371   38.0503   58.3622 C   0  0  0  0  0  0  0  0  0  0  0  0
   70.3915   38.4125   57.9953 O   0  0  0  0  0  0  0  0  0  0  0  0
   71.8725   36.6375   58.2555 C   0  0  0  0  0  0  0  0  0  0  0  0
   72.6475   36.1859   57.2074 C   0  0  0  0  0  0  0  0  0  0  0  0
   73.0009   34.8531   57.0513 C   0  0  0  0  0  0  0  0  0  0  0  0
   72.5765   33.9139   57.9658 C   0  0  0  0  0  0  0  0  0  0  0  0
   71.8039   34.3701   59.0104 C   0  0  0  0  0  0  0  0  0  0  0  0
   71.4495   35.6934   59.1694 C   0  0  0  0  0  0  0  0  0  0  0  0
  7  8  2  0
  8  9  1  0
  8  1  1  0
  9 10  1  0
 10 11  1  0
 11 12  2  0
 11 13  1  0
 13 14  1  0
 14 15  2  0
 14 16  1  0
 16 17  2  0
 16 20  1  0
 17 18  1  0
 18 19  2  0
 19 20  1  0
  1  2  2  0
  1  6  1  0
  2  3  1  0
  3  4  2  0
  4 21  1  0
  4  5  1  0
 21 22  1  0
 22 23  2  0
 22 24  1  0
 24 25  2  0
 24 29  1  0
 25 26  1  0
 26 27  2  0
 27 28  1  0
 28 29  2  0
  5  6  2  0
M  END
>  <minimizedAffinity>  (946) 
-8.78305

$$$$
data/200k_reference_output/data/smiles/82239.pdb
     RDKit          3D

 26 29  0  0  0  0  0  0  0  0999 V2000
   70.5375   45.4202   59.1629 O   0  0  0  0  0  0  0  0  0  0  0  0
   70.8943   46.6404   59.2708 C   0  0  0  0  0  0  0  0  0  0  0  0
   71.3708   47.2711   60.3596 N   0  0  0  0  0  0  0  0  0  0  0  0
   71.5930   48.5140   59.9709 N   0  0  0  0  0  0  0  0  0  0  0  0
   71.2629   48.6618   58.6580 C   0  0  0  0  0  0  0  0  0  0  0  0
   70.8197   47.4818   58.2082 N   0  0  0  0  0  0  0  0  0  0  0  0
   70.3793   47.1986   56.9154 N   0  0  0  0  0  0  0  0  0  0  0  0
   69.1462   47.0099   56.5796 C   0  0  0  0  0  0  0  0  0  0  0  0
   68.8177   46.7193   55.1997 C   0  0  0  0  0  0  0  0  0  0  0  0
   68.2185   45.5445   54.8314 C   0  0  0  0  0  0  0  0  0  0  0  0
   67.9054   44.6105   55.8074 O   0  0  0  0  0  0  0  0  0  0  0  0
   67.9240   45.2820   53.5117 C   0  0  0  0  0  0  0  0  0  0  0  0
   68.2249   46.1939   52.5291 C   0  0  0  0  0  0  0  0  0  0  0  0
   68.8287   47.3891   52.8654 C   0  0  0  0  0  0  0  0  0  0  0  0
   69.1319   48.3022   51.8887 C   0  0  0  0  0  0  0  0  0  0  0  0
   69.7324   49.4840   52.2437 C   0  0  0  0  0  0  0  0  0  0  0  0
   70.0203   49.7302   53.5699 C   0  0  0  0  0  0  0  0  0  0  0  0
   69.7238   48.8279   54.5571 C   0  0  0  0  0  0  0  0  0  0  0  0
   69.1157   47.6297   54.2120 C   0  0  0  0  0  0  0  0  0  0  0  0
   71.4127   49.9665   57.9656 C   0  0  0  0  0  0  0  0  0  0  0  0
   70.0483   50.4661   57.6696 C   0  0  0  0  0  0  0  0  0  0  0  0
   68.9290   49.8914   58.2106 C   0  0  0  0  0  0  0  0  0  0  0  0
   67.6501   50.3492   57.9523 C   0  0  0  0  0  0  0  0  0  0  0  0
   67.4829   51.4382   57.1119 C   0  0  0  0  0  0  0  0  0  0  0  0
   68.5888   52.0262   56.5634 C   0  0  0  0  0  0  0  0  0  0  0  0
   69.8699   51.5469   56.8376 C   0  0  0  0  0  0  0  0  0  0  0  0
  1  2  2  0
  2  3  1  0
  2  6  1  0
  3  4  1  0
  4  5  2  0
  5 20  1  0
  5  6  1  0
 20 21  1  0
 21 22  2  0
 21 26  1  0
 22 23  1  0
 23 24  2  0
 24 25  1  0
 25 26  2  0
  6  7  1  0
  7  8  2  0
  8  9  1  0
  9 10  2  0
  9 19  1  0
 10 11  1  0
 10 12  1  0
 12 13  2  0
 13 14  1  0
 14 15  1  0
 14 19  2  0
 15 16  2  0
 16 17  1  0
 17 18  2  0
 18 19  1  0
M  END
>  <minimizedAffinity>  (947) 
-8.81012

$$$$
data/200k_reference_output/data/smiles/82418.pdb
     RDKit          3D

 33 37  0  0  0  0  0  0  0  0999 V2000
   71.4075   47.3227   58.8586 C   0  0  0  0  0  0  0  0  0  0  0  0
   70.5335   48.0456   58.0859 C   0  0  0  0  0  0  0  0  0  0  0  0
   69.6692   47.4714   57.1587 C   0  0  0  0  0  0  0  0  0  0  0  0
   69.7177   46.1069   57.0304 C   0  0  0  0  0  0  0  0  0  0  0  0
   70.5865   45.3335   57.7915 C   0  0  0  0  0  0  0  0  0  0  0  0
   71.4203   45.9348   58.6944 C   0  0  0  0  0  0  0  0  0  0  0  0
   72.2945   45.2197   59.4711 F   0  0  0  0  0  0  0  0  0  0  0  0
   72.0828   47.7768   61.0515 O   0  0  0  0  0  0  0  0  0  0  0  0
   72.2982   47.9476   59.8450 C   0  0  0  0  0  0  0  0  0  0  0  0
   73.4040   48.7445   59.4331 N   0  0  0  0  0  0  0  0  0  0  0  0
   74.3180   49.3992   60.3393 C   0  0  0  0  0  0  0  0  0  0  0  0
   75.7266   48.9157   60.0640 C   0  0  0  0  0  0  0  0  0  0  0  0
   75.9878   48.9751   58.6135 N   0  0  0  0  0  0  0  0  0  0  0  0
   75.0435   48.2419   57.7948 C   0  0  0  0  0  0  0  0  0  0  0  0
   73.6993   48.9456   58.0066 C   0  0  0  0  0  0  0  0  0  0  0  0
   77.0683   49.7140   58.0873 C   0  0  0  0  0  0  0  0  0  0  0  0
   77.2390   49.9273   56.7431 C   0  0  0  0  0  0  0  0  0  0  0  0
   78.3026   50.6671   56.3066 C   0  0  0  0  0  0  0  0  0  0  0  0
   79.2046   51.2027   57.1445 N   0  0  0  0  0  0  0  0  0  0  0  0
   79.0784   51.0211   58.4621 C   0  0  0  0  0  0  0  0  0  0  0  0
   77.9936   50.2661   58.9356 C   0  0  0  0  0  0  0  0  0  0  0  0
   68.7442   48.2892   56.3395 C   0  0  0  0  0  0  0  0  0  0  0  0
   69.2569   48.3287   54.9471 C   0  0  0  0  0  0  0  0  0  0  0  0
   70.2974   49.1807   54.6490 N   0  0  0  0  0  0  0  0  0  0  0  0
   70.7970   49.2976   53.4456 N   0  0  0  0  0  0  0  0  0  0  0  0
   70.2909   48.5687   52.4549 C   0  0  0  0  0  0  0  0  0  0  0  0
   70.7535   48.6667   51.2978 O   0  0  0  0  0  0  0  0  0  0  0  0
   69.2274   47.6666   52.6459 C   0  0  0  0  0  0  0  0  0  0  0  0
   68.7399   47.5816   53.9300 C   0  0  0  0  0  0  0  0  0  0  0  0
   67.6271   46.6396   54.2285 C   0  0  0  0  0  0  0  0  0  0  0  0
   67.8023   45.4387   53.2986 C   0  0  0  0  0  0  0  0  0  0  0  0
   67.7240   45.8852   51.8674 C   0  0  0  0  0  0  0  0  0  0  0  0
   68.7177   46.9087   51.4924 C   0  0  0  0  0  0  0  0  0  0  0  0
  8  9  2  0
  9  1  1  0
  9 10  1  0
  1  2  2  0
  1  6  1  0
  2  3  1  0
  3 22  1  0
  3  4  2  0
 22 23  1  0
 23 24  2  0
 23 29  1  0
 24 25  1  0
 25 26  1  0
 26 27  2  0
 26 28  1  0
 28 29  2  0
 28 33  1  0
 29 30  1  0
 30 31  1  0
 31 32  1  0
 32 33  1  0
  4  5  1  0
  5  6  2  0
  6  7  1  0
 10 11  1  0
 10 15  1  0
 11 12  1  0
 12 13  1  0
 13 16  1  0
 13 14  1  0
 16 17  2  0
 16 21  1  0
 17 18  1  0
 18 19  2  0
 19 20  1  0
 20 21  2  0
 14 15  1  0
M  END
>  <minimizedAffinity>  (948) 
-9.86691

$$$$
data/200k_reference_output/data/smiles/82423.pdb
     RDKit          3D

 20 22  0  0  0  0  0  0  0  0999 V2000
   71.4260   49.1227   53.1090 O   0  0  0  0  0  0  0  0  0  0  0  0
   70.0473   49.1033   52.4694 S   0  0  0  0  0  0  0  0  0  0  0  0
   70.3313   49.0730   50.9729 O   0  0  0  0  0  0  0  0  0  0  0  0
   69.1604   47.7173   52.9744 C   0  0  0  0  0  0  0  0  0  0  0  0
   68.5818   46.9070   52.0199 C   0  0  0  0  0  0  0  0  0  0  0  0
   67.8776   45.8082   52.4640 C   0  0  0  0  0  0  0  0  0  0  0  0
   67.7492   45.5225   53.7974 C   0  0  0  0  0  0  0  0  0  0  0  0
   68.3696   46.3977   54.7430 C   0  0  0  0  0  0  0  0  0  0  0  0
   68.2585   46.1353   56.1264 N   0  0  0  0  0  0  0  0  0  0  0  0
   69.2016   47.5167   56.8231 S   0  0  0  0  0  0  0  0  0  0  0  0
   69.6074   48.2308   55.3521 N   0  0  0  0  0  0  0  0  0  0  0  0
   69.0287   47.4259   54.3291 C   0  0  0  0  0  0  0  0  0  0  0  0
   69.2758   50.5775   52.8075 N   0  0  0  0  0  0  0  0  0  0  0  0
   69.2836   51.2431   54.0685 C   0  0  0  0  0  0  0  0  0  0  0  0
   70.3343   52.0470   54.4432 C   0  0  0  0  0  0  0  0  0  0  0  0
   70.3267   52.6933   55.6603 C   0  0  0  0  0  0  0  0  0  0  0  0
   69.2700   52.5494   56.5279 C   0  0  0  0  0  0  0  0  0  0  0  0
   68.2190   51.7396   56.1437 C   0  0  0  0  0  0  0  0  0  0  0  0
   67.1696   51.5843   56.9813 F   0  0  0  0  0  0  0  0  0  0  0  0
   68.2130   51.0855   54.9243 C   0  0  0  0  0  0  0  0  0  0  0  0
  1  2  2  0
  2  3  2  0
  2 13  1  0
  2  4  1  0
 13 14  1  0
 14 15  2  0
 14 20  1  0
 15 16  1  0
 16 17  2  0
 17 18  1  0
 18 19  1  0
 18 20  2  0
  4  5  2  0
  4 12  1  0
  5  6  1  0
  6  7  2  0
  7  8  1  0
  8  9  2  0
  8 12  1  0
  9 10  1  0
 10 11  1  0
 11 12  2  0
M  END
>  <minimizedAffinity>  (949) 
-8.64608

$$$$
data/200k_reference_output/data/smiles/82524.pdb
     RDKit          3D

 26 27  0  0  0  0  0  0  0  0999 V2000
   68.4501   42.8972   56.5841 C   0  0  0  0  0  0  0  0  0  0  0  0
   67.0564   41.9412   56.0150 S   0  0  0  0  0  0  0  0  0  0  0  0
   68.6274   44.1052   56.1832 N   0  0  0  0  0  0  0  0  0  0  0  0
   69.4236   42.3799   57.5078 N   0  0  0  0  0  0  0  0  0  0  0  0
   73.0106   44.5271   58.3113 C   0  0  0  0  0  0  0  0  0  0  0  0
   73.0284   43.2648   57.7226 C   0  0  0  0  0  0  0  0  0  0  0  0
   71.8636   42.5725   57.4596 C   0  0  0  0  0  0  0  0  0  0  0  0
   70.6155   43.0929   57.7638 C   0  0  0  0  0  0  0  0  0  0  0  0
   70.6022   44.3610   58.3527 C   0  0  0  0  0  0  0  0  0  0  0  0
   71.7695   45.0373   58.6085 C   0  0  0  0  0  0  0  0  0  0  0  0
   74.5007   46.9355   57.9293 N   0  0  0  0  0  0  0  0  0  0  0  0
   74.4686   45.3932   58.6823 S   0  0  0  0  0  0  0  0  0  0  0  0
   74.5000   45.5925   60.1858 O   0  0  0  0  0  0  0  0  0  0  0  0
   75.6309   44.5213   58.3243 O   0  0  0  0  0  0  0  0  0  0  0  0
   67.7740   44.7375   55.2942 N   0  0  0  0  0  0  0  0  0  0  0  0
   68.1924   45.7659   54.3830 C   0  0  0  0  0  0  0  0  0  0  0  0
   67.8672   45.6581   53.0535 C   0  0  0  0  0  0  0  0  0  0  0  0
   67.1470   44.5653   52.6330 F   0  0  0  0  0  0  0  0  0  0  0  0
   68.2750   46.6482   52.1874 C   0  0  0  0  0  0  0  0  0  0  0  0
   67.9658   46.5769   50.8583 F   0  0  0  0  0  0  0  0  0  0  0  0
   69.0023   47.7407   52.6202 C   0  0  0  0  0  0  0  0  0  0  0  0
   69.4176   48.7317   51.7598 F   0  0  0  0  0  0  0  0  0  0  0  0
   69.3276   47.8430   53.9544 C   0  0  0  0  0  0  0  0  0  0  0  0
   70.0388   48.9056   54.3981 F   0  0  0  0  0  0  0  0  0  0  0  0
   68.9167   46.8534   54.8276 C   0  0  0  0  0  0  0  0  0  0  0  0
   69.1854   46.9012   56.1599 F   0  0  0  0  0  0  0  0  0  0  0  0
 11 12  1  0
 12 13  2  0
 12 14  2  0
 12  5  1  0
  5  6  2  0
  5 10  1  0
  6  7  1  0
  7  8  2  0
  8  4  1  0
  8  9  1  0
  4  1  1  0
  1  2  1  0
  1  3  2  0
  3 15  1  0
 15 16  1  0
 16 17  2  0
 16 25  1  0
 17 18  1  0
 17 19  1  0
 19 20  1  0
 19 21  2  0
 21 22  1  0
 21 23  1  0
 23 24  1  0
 23 25  2  0
 25 26  1  0
  9 10  2  0
M  CHG  1   3   1
M  END
>  <minimizedAffinity>  (950) 
-8.88815

$$$$
data/200k_reference_output/data/smiles/83258.pdb
     RDKit          3D

 30 33  0  0  0  0  0  0  0  0999 V2000
   71.5608   47.3409   58.8401 C   0  0  0  0  0  0  0  0  0  0  0  0
   70.7107   48.0897   58.0279 C   0  0  0  0  0  0  0  0  0  0  0  0
   69.8244   47.5536   57.1541 C   0  0  0  0  0  0  0  0  0  0  0  0
   69.7988   46.1456   57.1033 C   0  0  0  0  0  0  0  0  0  0  0  0
   70.5992   45.3529   57.8672 C   0  0  0  0  0  0  0  0  0  0  0  0
   70.5523   44.0083   57.7922 F   0  0  0  0  0  0  0  0  0  0  0  0
   71.4818   45.9744   58.7379 C   0  0  0  0  0  0  0  0  0  0  0  0
   72.2857   45.1976   59.5077 F   0  0  0  0  0  0  0  0  0  0  0  0
   74.2542   50.9743   58.5045 N   0  0  0  0  0  0  0  0  0  0  0  0
   74.6924   50.7161   59.8250 C   0  0  0  0  0  0  0  0  0  0  0  0
   74.5977   49.2683   60.1833 C   0  0  0  0  0  0  0  0  0  0  0  0
   73.6869   48.6169   59.2762 N   0  0  0  0  0  0  0  0  0  0  0  0
   72.4891   47.9999   59.7494 C   0  0  0  0  0  0  0  0  0  0  0  0
   72.2088   48.0113   60.9737 O   0  0  0  0  0  0  0  0  0  0  0  0
   74.0488   48.6145   57.8749 C   0  0  0  0  0  0  0  0  0  0  0  0
   74.5355   49.9942   57.5145 C   0  0  0  0  0  0  0  0  0  0  0  0
   72.9333   52.9177   57.7779 C   0  0  0  0  0  0  0  0  0  0  0  0
   72.9646   51.5412   58.3345 C   0  0  0  0  0  0  0  0  0  0  0  0
   68.8956   48.3191   56.2678 C   0  0  0  0  0  0  0  0  0  0  0  0
   69.3114   48.3307   54.8520 C   0  0  0  0  0  0  0  0  0  0  0  0
   70.2165   49.2681   54.4431 N   0  0  0  0  0  0  0  0  0  0  0  0
   70.6114   49.4266   53.2127 N   0  0  0  0  0  0  0  0  0  0  0  0
   70.1420   48.6527   52.2221 C   0  0  0  0  0  0  0  0  0  0  0  0
   70.5397   48.8220   51.0202 O   0  0  0  0  0  0  0  0  0  0  0  0
   69.2298   47.6826   52.5488 C   0  0  0  0  0  0  0  0  0  0  0  0
   68.7411   46.8518   51.5709 C   0  0  0  0  0  0  0  0  0  0  0  0
   67.8370   45.8507   51.8765 C   0  0  0  0  0  0  0  0  0  0  0  0
   67.4399   45.7114   53.2111 C   0  0  0  0  0  0  0  0  0  0  0  0
   67.9203   46.5335   54.1940 C   0  0  0  0  0  0  0  0  0  0  0  0
   68.8125   47.5189   53.8670 C   0  0  0  0  0  0  0  0  0  0  0  0
 17 18  1  0
 18  9  1  0
  9 10  1  0
  9 16  1  0
 10 11  1  0
 11 12  1  0
 12 13  1  0
 12 15  1  0
 13 14  2  0
 13  1  1  0
  1  2  2  0
  1  7  1  0
  2  3  1  0
  3 19  1  0
  3  4  2  0
 19 20  1  0
 20 21  2  0
 20 30  1  0
 21 22  1  0
 22 23  1  0
 23 24  2  0
 23 25  1  0
 25 26  1  0
 25 30  2  0
 26 27  2  0
 27 28  1  0
 28 29  2  0
 29 30  1  0
  4  5  1  0
  5  6  1  0
  5  7  2  0
  7  8  1  0
 15 16  1  0
M  CHG  1   9   1
M  END
>  <minimizedAffinity>  (951) 
-9.67530

$$$$
data/200k_reference_output/data/smiles/83310.pdb
     RDKit          3D

 31 35  0  0  0  0  0  0  0  0999 V2000
   69.3395   47.5664   55.9930 N   0  0  0  0  0  0  0  0  0  0  0  0
   69.7265   48.5511   55.2039 N   0  0  0  0  0  0  0  0  0  0  0  0
   69.5061   48.5597   53.8512 C   0  0  0  0  0  0  0  0  0  0  0  0
   68.8481   47.4531   53.3747 C   0  0  0  0  0  0  0  0  0  0  0  0
   68.6043   47.3811   52.0279 C   0  0  0  0  0  0  0  0  0  0  0  0
   67.9512   46.2617   51.5514 C   0  0  0  0  0  0  0  0  0  0  0  0
   67.5360   45.2215   52.3541 C   0  0  0  0  0  0  0  0  0  0  0  0
   67.7851   45.3015   53.7057 C   0  0  0  0  0  0  0  0  0  0  0  0
   68.4351   46.4075   54.2064 C   0  0  0  0  0  0  0  0  0  0  0  0
   68.6918   46.4711   55.5585 C   0  0  0  0  0  0  0  0  0  0  0  0
   68.3419   45.5559   56.3531 O   0  0  0  0  0  0  0  0  0  0  0  0
   69.6048   47.6173   57.4363 C   0  0  0  0  0  0  0  0  0  0  0  0
   71.6049   48.9126   57.2640 O   0  0  0  0  0  0  0  0  0  0  0  0
   71.0545   47.8624   57.6855 C   0  0  0  0  0  0  0  0  0  0  0  0
   71.8397   46.9244   58.3965 N   0  0  0  0  0  0  0  0  0  0  0  0
   73.2416   47.1891   58.6220 C   0  0  0  0  0  0  0  0  0  0  0  0
   73.8782   46.0372   59.3704 C   0  0  0  0  0  0  0  0  0  0  0  0
   73.4723   44.7799   58.6911 C   0  0  0  0  0  0  0  0  0  0  0  0
   74.3975   43.8101   58.3149 C   0  0  0  0  0  0  0  0  0  0  0  0
   73.9843   42.6530   57.6856 C   0  0  0  0  0  0  0  0  0  0  0  0
   72.6330   42.5038   57.4505 C   0  0  0  0  0  0  0  0  0  0  0  0
   71.6962   43.4625   57.8196 C   0  0  0  0  0  0  0  0  0  0  0  0
   72.1298   44.5942   58.4386 C   0  0  0  0  0  0  0  0  0  0  0  0
   71.2207   45.7094   58.8888 C   0  0  0  0  0  0  0  0  0  0  0  0
   69.9393   49.7297   53.0878 C   0  0  0  0  0  0  0  0  0  0  0  0
   70.0506   50.9072   53.9450 C   0  0  0  0  0  0  0  0  0  0  0  0
   71.2063   51.4239   54.4516 C   0  0  0  0  0  0  0  0  0  0  0  0
   71.2129   52.5674   55.2537 C   0  0  0  0  0  0  0  0  0  0  0  0
   70.0440   53.1765   55.5379 N   0  0  0  0  0  0  0  0  0  0  0  0
   68.8766   52.7058   55.0633 C   0  0  0  0  0  0  0  0  0  0  0  0
   68.8678   51.5802   54.2724 C   0  0  0  0  0  0  0  0  0  0  0  0
 13 14  2  0
 14 12  1  0
 14 15  1  0
 12  1  1  0
  1  2  1  0
  1 10  1  0
  2  3  2  0
  3 25  1  0
  3  4  1  0
 25 26  1  0
 26 27  2  0
 26 31  1  0
 27 28  1  0
 28 29  2  0
 29 30  1  0
 30 31  2  0
  4  5  2  0
  4  9  1  0
  5  6  1  0
  6  7  2  0
  7  8  1  0
  8  9  2  0
  9 10  1  0
 10 11  2  0
 15 16  1  0
 15 24  1  0
 16 17  1  0
 17 18  1  0
 18 19  2  0
 18 23  1  0
 19 20  1  0
 20 21  2  0
 21 22  1  0
 22 23  2  0
 23 24  1  0
M  END
>  <minimizedAffinity>  (952) 
-9.28627

$$$$
data/200k_reference_output/data/smiles/83484.pdb
     RDKit          3D

 28 31  0  0  0  0  0  0  0  0999 V2000
   68.5105   43.3028   56.4091 C   0  0  0  0  0  0  0  0  0  0  0  0
   69.6286   43.7600   56.7787 O   0  0  0  0  0  0  0  0  0  0  0  0
   67.7705   44.1056   55.4979 N   0  0  0  0  0  0  0  0  0  0  0  0
   68.2492   45.3585   55.0169 C   0  0  0  0  0  0  0  0  0  0  0  0
   68.5752   46.4179   55.8746 C   0  0  0  0  0  0  0  0  0  0  0  0
   69.0353   47.6147   55.3676 C   0  0  0  0  0  0  0  0  0  0  0  0
   69.1730   47.7619   54.0159 C   0  0  0  0  0  0  0  0  0  0  0  0
   68.8744   46.7713   53.1161 C   0  0  0  0  0  0  0  0  0  0  0  0
   68.4110   45.5754   53.6696 C   0  0  0  0  0  0  0  0  0  0  0  0
   69.1395   47.2706   51.7368 C   0  0  0  0  0  0  0  0  0  0  0  0
   69.6235   48.6645   51.9732 C   0  0  0  0  0  0  0  0  0  0  0  0
   69.9620   49.4518   51.0677 O   0  0  0  0  0  0  0  0  0  0  0  0
   69.6289   48.9218   53.3636 N   0  0  0  0  0  0  0  0  0  0  0  0
   69.9921   50.0762   54.1791 C   0  0  0  0  0  0  0  0  0  0  0  0
   69.2514   50.0703   55.4743 C   0  0  0  0  0  0  0  0  0  0  0  0
   69.3933   48.7638   56.2186 C   0  0  0  0  0  0  0  0  0  0  0  0
   66.7977   41.7769   56.8615 O   0  0  0  0  0  0  0  0  0  0  0  0
   68.0203   42.0150   56.9029 C   0  0  0  0  0  0  0  0  0  0  0  0
   68.9115   41.0397   57.4259 N   0  0  0  0  0  0  0  0  0  0  0  0
   68.5006   39.7627   57.9255 C   0  0  0  0  0  0  0  0  0  0  0  0
   69.1993   39.3344   59.1878 C   0  0  0  0  0  0  0  0  0  0  0  0
   70.1388   38.2222   59.0018 C   0  0  0  0  0  0  0  0  0  0  0  0
   71.1327   38.2918   58.0503 C   0  0  0  0  0  0  0  0  0  0  0  0
   72.0307   37.2492   57.8581 C   0  0  0  0  0  0  0  0  0  0  0  0
   71.9501   36.1181   58.6143 C   0  0  0  0  0  0  0  0  0  0  0  0
   73.1027   34.8025   58.3549 Cl  0  0  0  0  0  0  0  0  0  0  0  0
   70.9708   36.0191   59.5704 C   0  0  0  0  0  0  0  0  0  0  0  0
   70.0731   37.0705   59.7564 C   0  0  0  0  0  0  0  0  0  0  0  0
 17 18  2  0
 18 19  1  0
 18  1  1  0
 19 20  1  0
 20 21  1  0
 21 22  1  0
 22 23  2  0
 22 28  1  0
 23 24  1  0
 24 25  2  0
 25 26  1  0
 25 27  1  0
 27 28  2  0
  1  2  2  0
  1  3  1  0
  3  4  1  0
  4  5  2  0
  4  9  1  0
  5  6  1  0
  6  7  2  0
  6 16  1  0
  7  8  1  0
  7 13  1  0
  8  9  2  0
  8 10  1  0
 10 11  1  0
 11 12  2  0
 11 13  1  0
 13 14  1  0
 14 15  1  0
 15 16  1  0
M  END
>  <minimizedAffinity>  (953) 
-9.37799

$$$$
data/200k_reference_output/data/smiles/83525.pdb
     RDKit          3D

 27 29  0  0  0  0  0  0  0  0999 V2000
   69.8445   44.0935   57.3752 C   0  0  0  0  0  0  0  0  0  0  0  0
   70.9287   44.2096   57.9977 O   0  0  0  0  0  0  0  0  0  0  0  0
   69.2373   45.2547   56.8527 N   0  0  0  0  0  0  0  0  0  0  0  0
   69.0921   40.4133   57.6767 C   0  0  0  0  0  0  0  0  0  0  0  0
   68.0231   40.3041   56.8178 C   0  0  0  0  0  0  0  0  0  0  0  0
   67.5489   41.4112   56.1453 C   0  0  0  0  0  0  0  0  0  0  0  0
   66.5025   41.2605   55.3151 F   0  0  0  0  0  0  0  0  0  0  0  0
   68.1627   42.6264   56.3488 C   0  0  0  0  0  0  0  0  0  0  0  0
   69.2529   42.7892   57.2122 C   0  0  0  0  0  0  0  0  0  0  0  0
   69.6813   41.6538   57.8530 C   0  0  0  0  0  0  0  0  0  0  0  0
   71.7226   36.4183   59.0543 C   0  0  0  0  0  0  0  0  0  0  0  0
   70.6712   37.4757   59.0091 C   0  0  0  0  0  0  0  0  0  0  0  0
   69.5950   37.5989   59.8567 C   0  0  0  0  0  0  0  0  0  0  0  0
   68.9077   38.7291   59.4167 C   0  0  0  0  0  0  0  0  0  0  0  0
   69.5541   39.2471   58.3530 N   0  0  0  0  0  0  0  0  0  0  0  0
   70.5922   38.4896   58.1320 N   0  0  0  0  0  0  0  0  0  0  0  0
   69.8287   46.5388   57.0184 N   0  0  0  0  0  0  0  0  0  0  0  0
   68.7850   47.6801   56.2883 S   0  0  0  0  0  0  0  0  0  0  0  0
   69.1256   49.0671   56.7556 O   0  0  0  0  0  0  0  0  0  0  0  0
   67.3584   47.4181   56.6669 O   0  0  0  0  0  0  0  0  0  0  0  0
   68.9294   47.5302   54.5568 C   0  0  0  0  0  0  0  0  0  0  0  0
   69.5863   48.4967   53.8508 C   0  0  0  0  0  0  0  0  0  0  0  0
   69.6968   48.3738   52.4889 C   0  0  0  0  0  0  0  0  0  0  0  0
   69.1464   47.2866   51.8767 C   0  0  0  0  0  0  0  0  0  0  0  0
   68.4795   46.2992   52.5678 C   0  0  0  0  0  0  0  0  0  0  0  0
   68.3810   46.4449   53.9403 C   0  0  0  0  0  0  0  0  0  0  0  0
   67.7130   45.4538   54.6185 F   0  0  0  0  0  0  0  0  0  0  0  0
 11 12  1  0
 12 13  1  0
 12 16  2  0
 13 14  2  0
 14 15  1  0
 15  4  1  0
 15 16  1  0
  4  5  2  0
  4 10  1  0
  5  6  1  0
  6  7  1  0
  6  8  2  0
  8  9  1  0
  9  1  1  0
  9 10  2  0
  1  2  2  0
  1  3  1  0
  3 17  1  0
 17 18  1  0
 18 19  2  0
 18 20  2  0
 18 21  1  0
 21 22  2  0
 21 26  1  0
 22 23  1  0
 23 24  2  0
 24 25  1  0
 25 26  2  0
 26 27  1  0
M  END
>  <minimizedAffinity>  (954) 
-9.15970

$$$$
data/200k_reference_output/data/smiles/83613.pdb
     RDKit          3D

 21 23  0  0  0  0  0  0  0  0999 V2000
   70.8681   49.8177   53.2584 O   0  0  0  0  0  0  0  0  0  0  0  0
   67.5297   45.3864   52.4156 C   0  0  0  0  0  0  0  0  0  0  0  0
   68.4051   46.5486   52.6377 C   0  0  0  0  0  0  0  0  0  0  0  0
   69.0273   47.1573   51.5727 C   0  0  0  0  0  0  0  0  0  0  0  0
   69.8511   48.2505   51.7792 C   0  0  0  0  0  0  0  0  0  0  0  0
   70.0426   48.7246   53.0604 C   0  0  0  0  0  0  0  0  0  0  0  0
   69.4260   48.1257   54.1352 C   0  0  0  0  0  0  0  0  0  0  0  0
   68.5953   47.0208   53.9183 C   0  0  0  0  0  0  0  0  0  0  0  0
   68.0497   46.5510   55.2365 C   0  0  0  0  0  0  0  0  0  0  0  0
   69.1701   46.9911   56.1610 C   0  0  0  0  0  0  0  0  0  0  0  0
   69.4344   48.3951   55.5991 C   0  0  0  0  0  0  0  0  0  0  0  0
   70.4651   50.9133   54.0042 C   0  0  0  0  0  0  0  0  0  0  0  0
   69.2575   51.4935   53.9148 N   0  0  0  0  0  0  0  0  0  0  0  0
   68.8830   52.5575   54.6479 C   0  0  0  0  0  0  0  0  0  0  0  0
   69.7655   53.1093   55.5512 C   0  0  0  0  0  0  0  0  0  0  0  0
   71.0115   52.5287   55.6582 C   0  0  0  0  0  0  0  0  0  0  0  0
   71.3946   51.4385   54.9071 C   0  0  0  0  0  0  0  0  0  0  0  0
   72.7320   50.8385   55.0436 C   0  0  0  0  0  0  0  0  0  0  0  0
   73.2034   50.6193   56.3672 N   0  0  0  0  0  0  0  0  0  0  0  0
   73.4364   50.5303   54.0202 N   0  0  0  0  0  0  0  0  0  0  0  0
   74.6916   49.9682   54.1535 O   0  0  0  0  0  0  0  0  0  0  0  0
  2  3  1  0
  3  4  2  0
  3  8  1  0
  4  5  1  0
  5  6  2  0
  6  1  1  0
  6  7  1  0
  1 12  1  0
 12 13  2  0
 12 17  1  0
 13 14  1  0
 14 15  2  0
 15 16  1  0
 16 17  2  0
 17 18  1  0
 18 19  1  0
 18 20  2  0
 20 21  1  0
  7  8  2  0
  7 11  1  0
  8  9  1  0
  9 10  1  0
 10 11  1  0
M  CHG  1  20   1
M  END
>  <minimizedAffinity>  (955) 
-8.67040

$$$$
data/200k_reference_output/data/smiles/83804.pdb
     RDKit          3D

 33 37  0  0  0  0  0  0  0  0999 V2000
   71.0732   48.0259   58.1787 N   0  0  0  0  0  0  0  0  0  0  0  0
   71.5187   49.1057   57.3690 C   0  0  0  0  0  0  0  0  0  0  0  0
   72.4815   49.8712   57.7014 O   0  0  0  0  0  0  0  0  0  0  0  0
   70.7380   49.1745   56.1852 N   0  0  0  0  0  0  0  0  0  0  0  0
   69.5734   48.3434   56.4288 C   0  0  0  0  0  0  0  0  0  0  0  0
   70.0010   47.4152   57.4869 C   0  0  0  0  0  0  0  0  0  0  0  0
   69.5065   46.2982   57.7244 O   0  0  0  0  0  0  0  0  0  0  0  0
   69.1132   47.6088   55.2395 C   0  0  0  0  0  0  0  0  0  0  0  0
   69.4599   48.1548   54.0078 C   0  0  0  0  0  0  0  0  0  0  0  0
   69.0900   47.5605   52.8139 C   0  0  0  0  0  0  0  0  0  0  0  0
   68.3624   46.4021   52.8766 C   0  0  0  0  0  0  0  0  0  0  0  0
   68.0145   45.8551   54.0856 C   0  0  0  0  0  0  0  0  0  0  0  0
   68.3842   46.4494   55.2838 C   0  0  0  0  0  0  0  0  0  0  0  0
   68.4907   49.2526   56.8685 C   0  0  0  0  0  0  0  0  0  0  0  0
   67.4609   48.8648   57.6782 C   0  0  0  0  0  0  0  0  0  0  0  0
   66.4819   49.7954   58.0381 C   0  0  0  0  0  0  0  0  0  0  0  0
   66.5187   51.1011   57.6011 C   0  0  0  0  0  0  0  0  0  0  0  0
   67.5600   51.4801   56.7871 C   0  0  0  0  0  0  0  0  0  0  0  0
   68.5255   50.5598   56.4327 C   0  0  0  0  0  0  0  0  0  0  0  0
   71.6375   47.6447   59.4835 C   0  0  0  0  0  0  0  0  0  0  0  0
   72.2982   45.5227   60.2397 O   0  0  0  0  0  0  0  0  0  0  0  0
   72.4213   46.4086   59.3556 C   0  0  0  0  0  0  0  0  0  0  0  0
   73.3221   46.1306   58.2937 N   0  0  0  0  0  0  0  0  0  0  0  0
   74.0548   44.8913   58.2404 C   0  0  0  0  0  0  0  0  0  0  0  0
   73.4923   43.7234   57.7727 C   0  0  0  0  0  0  0  0  0  0  0  0
   74.2315   42.5524   57.7400 C   0  0  0  0  0  0  0  0  0  0  0  0
   75.5498   42.5037   58.1682 C   0  0  0  0  0  0  0  0  0  0  0  0
   76.4861   41.5318   58.2496 N   0  0  0  0  0  0  0  0  0  0  0  0
   77.6261   42.0523   58.7545 C   0  0  0  0  0  0  0  0  0  0  0  0
   78.7059   41.4168   58.9635 O   0  0  0  0  0  0  0  0  0  0  0  0
   77.3669   43.3501   58.9778 N   0  0  0  0  0  0  0  0  0  0  0  0
   76.1124   43.6781   58.6370 C   0  0  0  0  0  0  0  0  0  0  0  0
   75.3628   44.8362   58.6640 C   0  0  0  0  0  0  0  0  0  0  0  0
 21 22  2  0
 22 20  1  0
 22 23  1  0
 20  1  1  0
  1  2  1  0
  1  6  1  0
  2  3  2  0
  2  4  1  0
  4  5  1  0
  5  8  1  0
  5 14  1  0
  5  6  1  0
  8  9  2  0
  8 13  1  0
  9 10  1  0
 10 11  2  0
 11 12  1  0
 12 13  2  0
 14 15  2  0
 14 19  1  0
 15 16  1  0
 16 17  2  0
 17 18  1  0
 18 19  2  0
  6  7  2  0
 23 24  1  0
 24 25  2  0
 24 33  1  0
 25 26  1  0
 26 27  2  0
 27 28  1  0
 27 32  1  0
 28 29  1  0
 29 30  2  0
 29 31  1  0
 31 32  1  0
 32 33  2  0
M  CHG  1  28   1
M  END
>  <minimizedAffinity>  (956) 
-8.86243

$$$$
data/200k_reference_output/data/smiles/83806.pdb
     RDKit          3D

 26 28  0  0  0  0  0  0  0  0999 V2000
   68.6728   48.0475   56.5769 C   0  0  0  0  0  0  0  0  0  0  0  0
   68.9456   48.0040   55.1377 C   0  0  0  0  0  0  0  0  0  0  0  0
   68.6529   46.8860   54.3869 C   0  0  0  0  0  0  0  0  0  0  0  0
   68.7274   46.6674   53.0270 C   0  0  0  0  0  0  0  0  0  0  0  0
   68.1694   45.4762   52.5976 O   0  0  0  0  0  0  0  0  0  0  0  0
   69.2804   47.4806   52.0727 C   0  0  0  0  0  0  0  0  0  0  0  0
   69.4870   46.9738   50.9575 O   0  0  0  0  0  0  0  0  0  0  0  0
   69.6400   48.8118   52.1968 C   0  0  0  0  0  0  0  0  0  0  0  0
   70.0679   49.4020   51.0404 O   0  0  0  0  0  0  0  0  0  0  0  0
   69.6199   49.6157   53.3414 C   0  0  0  0  0  0  0  0  0  0  0  0
   69.5104   49.1720   54.6314 C   0  0  0  0  0  0  0  0  0  0  0  0
   70.0398   49.9798   55.7198 C   0  0  0  0  0  0  0  0  0  0  0  0
   70.6929   51.2723   55.3075 C   0  0  2  0  0  0  0  0  0  0  0  0
   70.0869   51.9238   54.1371 C   0  0  0  0  0  0  0  0  0  0  0  0
   69.7318   51.0236   52.9945 C   0  0  0  0  0  0  0  0  0  0  0  0
   72.1926   51.0611   55.2478 C   0  0  2  0  0  0  0  0  0  0  0  0
   72.9550   52.2604   54.8190 C   0  0  0  0  0  0  0  0  0  0  0  0
   72.4329   50.0987   54.1967 O   0  0  0  0  0  0  0  0  0  0  0  0
   72.6860   50.3697   56.4751 C   0  0  0  0  0  0  0  0  0  0  0  0
   73.7447   49.4384   56.2927 N   0  0  0  0  0  0  0  0  0  0  0  0
   75.0957   49.6912   56.6141 C   0  0  0  0  0  0  0  0  0  0  0  0
   75.6156   49.7878   57.8843 C   0  0  0  0  0  0  0  0  0  0  0  0
   76.9483   50.0594   58.1267 C   0  0  0  0  0  0  0  0  0  0  0  0
   77.8425   50.2490   57.0979 C   0  0  0  0  0  0  0  0  0  0  0  0
   77.3427   50.1549   55.8165 C   0  0  0  0  0  0  0  0  0  0  0  0
   76.0171   49.8861   55.5737 C   0  0  0  0  0  0  0  0  0  0  0  0
  1  2  1  0
  2  3  1  0
  2 11  2  0
  3  4  2  0
  4  5  1  0
  4  6  1  0
  6  7  2  0
  6  8  1  0
  8  9  1  0
  8 10  2  0
 10 11  1  0
 10 15  1  0
 11 12  1  0
 13 12  1  6
 13 16  1  0
 13 14  1  0
 16 17  1  6
 16 18  1  0
 16 19  1  0
 19 20  1  0
 20 21  1  0
 21 22  2  0
 21 26  1  0
 22 23  1  0
 23 24  2  0
 24 25  1  0
 25 26  2  0
 14 15  1  0
M  END
>  <minimizedAffinity>  (957) 
-8.72426

$$$$
data/200k_reference_output/data/smiles/83849.pdb
     RDKit          3D

 21 22  0  0  0  0  0  0  0  0999 V2000
   68.3150   42.6464   56.4630 C   0  0  0  0  0  0  0  0  0  0  0  0
   67.7146   43.7336   56.1239 N   0  0  0  0  0  0  0  0  0  0  0  0
   68.1411   44.5379   55.0632 N   0  0  0  0  0  0  0  0  0  0  0  0
   68.2995   45.9400   55.1647 C   0  0  0  0  0  0  0  0  0  0  0  0
   68.0198   46.4202   56.3125 O   0  0  0  0  0  0  0  0  0  0  0  0
   68.7405   46.7985   54.0769 C   0  0  0  0  0  0  0  0  0  0  0  0
   69.4004   47.9875   54.2413 C   0  0  0  0  0  0  0  0  0  0  0  0
   69.7956   48.7502   53.1583 C   0  0  0  0  0  0  0  0  0  0  0  0
   69.5476   48.3540   51.8557 C   0  0  0  0  0  0  0  0  0  0  0  0
   68.8827   47.1556   51.6918 C   0  0  0  0  0  0  0  0  0  0  0  0
   68.4842   46.3875   52.7715 C   0  0  0  0  0  0  0  0  0  0  0  0
   67.8206   45.1921   52.5876 O   0  0  0  0  0  0  0  0  0  0  0  0
   67.8972   41.7801   57.5681 C   0  0  0  0  0  0  0  0  0  0  0  0
   67.8361   40.0450   55.9184 O   0  0  0  0  0  0  0  0  0  0  0  0
   68.0440   40.3635   57.0964 C   0  0  0  0  0  0  0  0  0  0  0  0
   68.4485   39.3652   58.1021 C   0  0  0  0  0  0  0  0  0  0  0  0
   67.4841   38.7946   58.9097 C   0  0  0  0  0  0  0  0  0  0  0  0
   67.8137   37.8730   59.8662 C   0  0  0  0  0  0  0  0  0  0  0  0
   69.1311   37.4672   60.0709 C   0  0  0  0  0  0  0  0  0  0  0  0
   70.0922   38.0376   59.2639 C   0  0  0  0  0  0  0  0  0  0  0  0
   69.7535   38.9809   58.2857 C   0  0  0  0  0  0  0  0  0  0  0  0
 14 15  2  0
 15 13  1  0
 15 16  1  0
 13  1  1  0
  1  2  2  0
  2  3  1  0
  3  4  1  0
  4  5  2  0
  4  6  1  0
  6  7  2  0
  6 11  1  0
  7  8  1  0
  8  9  2  0
  9 10  1  0
 10 11  2  0
 11 12  1  0
 16 17  2  0
 16 21  1  0
 17 18  1  0
 18 19  2  0
 19 20  1  0
 20 21  2  0
M  END
>  <minimizedAffinity>  (958) 
-8.69450

$$$$
data/200k_reference_output/data/smiles/83949.pdb
     RDKit          3D

 28 30  0  0  0  0  0  0  0  0999 V2000
   70.9607   38.9582   59.1804 C   0  0  0  0  0  0  0  0  0  0  0  0
   71.2539   40.3344   58.6956 C   0  0  0  0  0  0  0  0  0  0  0  0
   70.2755   41.1134   58.1129 C   0  0  0  0  0  0  0  0  0  0  0  0
   70.5279   42.4139   57.6476 C   0  0  0  0  0  0  0  0  0  0  0  0
   71.8056   42.8546   57.8111 C   0  0  0  0  0  0  0  0  0  0  0  0
   72.1270   44.0798   57.3950 F   0  0  0  0  0  0  0  0  0  0  0  0
   72.8359   42.1175   58.3903 C   0  0  0  0  0  0  0  0  0  0  0  0
   72.5283   40.8568   58.8242 C   0  0  0  0  0  0  0  0  0  0  0  0
   74.1781   42.6908   58.5173 C   0  0  0  0  0  0  0  0  0  0  0  0
   75.3164   42.0355   58.1540 C   0  0  0  0  0  0  0  0  0  0  0  0
   76.5636   42.6592   58.3091 C   0  0  0  0  0  0  0  0  0  0  0  0
   76.6795   43.9330   58.8238 C   0  0  0  0  0  0  0  0  0  0  0  0
   75.5008   44.5568   59.1773 C   0  0  0  0  0  0  0  0  0  0  0  0
   74.3148   43.9459   59.0227 N   0  0  0  0  0  0  0  0  0  0  0  0
   69.4184   43.1188   57.0598 C   0  0  0  0  0  0  0  0  0  0  0  0
   68.3518   42.4962   56.7195 O   0  0  0  0  0  0  0  0  0  0  0  0
   69.4001   44.5066   56.8127 N   0  0  0  0  0  0  0  0  0  0  0  0
   68.2894   45.1555   56.2342 N   0  0  0  0  0  0  0  0  0  0  0  0
   68.5978   46.8002   55.9130 S   0  0  0  0  0  0  0  0  0  0  0  0
   67.4296   47.5996   56.4104 O   0  0  0  0  0  0  0  0  0  0  0  0
   69.7887   47.2405   56.7349 O   0  0  0  0  0  0  0  0  0  0  0  0
   68.8797   47.1654   54.2607 C   0  0  0  0  0  0  0  0  0  0  0  0
   69.6287   48.2743   53.9272 C   0  0  0  0  0  0  0  0  0  0  0  0
   69.9015   48.6389   52.6310 C   0  0  0  0  0  0  0  0  0  0  0  0
   69.4113   47.8697   51.5804 C   0  0  0  0  0  0  0  0  0  0  0  0
   68.6659   46.7651   51.9001 C   0  0  0  0  0  0  0  0  0  0  0  0
   68.4018   46.4153   53.2036 C   0  0  0  0  0  0  0  0  0  0  0  0
   67.6619   45.3190   53.5373 F   0  0  0  0  0  0  0  0  0  0  0  0
  1  2  1  0
  2  3  2  0
  2  8  1  0
  3  4  1  0
  4 15  1  0
  4  5  2  0
 15 16  2  0
 15 17  1  0
 17 18  1  0
 18 19  1  0
 19 20  2  0
 19 21  2  0
 19 22  1  0
 22 23  2  0
 22 27  1  0
 23 24  1  0
 24 25  2  0
 25 26  1  0
 26 27  2  0
 27 28  1  0
  5  6  1  0
  5  7  1  0
  7  9  1  0
  7  8  2  0
  9 10  2  0
  9 14  1  0
 10 11  1  0
 11 12  2  0
 12 13  1  0
 13 14  2  0
M  END
>  <minimizedAffinity>  (959) 
-8.72381

$$$$
data/200k_reference_output/data/smiles/83956.pdb
     RDKit          3D

 25 27  0  0  0  0  0  0  0  0999 V2000
   67.9406   44.1140   55.2345 N   0  0  0  0  0  0  0  0  0  0  0  0
   68.1537   45.5003   55.1773 C   0  0  0  0  0  0  0  0  0  0  0  0
   68.2388   46.1245   56.2550 O   0  0  0  0  0  0  0  0  0  0  0  0
   68.2694   46.2252   53.9035 C   0  0  0  0  0  0  0  0  0  0  0  0
   67.6624   45.6339   52.8110 C   0  0  0  0  0  0  0  0  0  0  0  0
   67.7833   46.2774   51.5840 C   0  0  0  0  0  0  0  0  0  0  0  0
   67.2246   45.7293   50.5847 O   0  0  0  0  0  0  0  0  0  0  0  0
   68.4582   47.4247   51.4575 N   0  0  0  0  0  0  0  0  0  0  0  0
   69.0551   48.0238   52.4942 C   0  0  0  0  0  0  0  0  0  0  0  0
   69.7356   49.2130   52.3357 C   0  0  0  0  0  0  0  0  0  0  0  0
   70.3276   49.8025   53.4291 C   0  0  0  0  0  0  0  0  0  0  0  0
   70.2182   49.1784   54.6551 C   0  0  0  0  0  0  0  0  0  0  0  0
   69.5418   47.9866   54.8391 C   0  0  0  0  0  0  0  0  0  0  0  0
   68.9507   47.4018   53.7433 C   0  0  0  0  0  0  0  0  0  0  0  0
   67.7268   42.0057   56.2711 C   0  0  0  0  0  0  0  0  0  0  0  0
   67.7809   43.2888   56.3279 N   0  0  0  0  0  0  0  0  0  0  0  0
   67.1418   39.4158   59.6012 C   0  0  0  0  0  0  0  0  0  0  0  0
   67.9264   39.0501   58.5194 C   0  0  0  0  0  0  0  0  0  0  0  0
   68.1314   39.9066   57.4466 C   0  0  0  0  0  0  0  0  0  0  0  0
   67.5453   41.1578   57.4483 C   0  0  0  0  0  0  0  0  0  0  0  0
   66.7811   41.5058   58.5156 C   0  0  0  0  0  0  0  0  0  0  0  0
   66.5737   40.6578   59.5822 C   0  0  0  0  0  0  0  0  0  0  0  0
   67.9601   37.6120   61.1249 C   0  0  0  0  0  0  0  0  0  0  0  0
   66.9029   38.4812   60.6593 N   0  0  0  0  0  0  0  0  0  0  0  0
   65.5941   38.4060   61.2559 C   0  0  0  0  0  0  0  0  0  0  0  0
 23 24  1  0
 24 25  1  0
 24 17  1  0
 17 18  2  0
 17 22  1  0
 18 19  1  0
 19 20  2  0
 20 15  1  0
 20 21  1  0
 15 16  2  0
 16  1  1  0
  1  2  1  0
  2  3  2  0
  2  4  1  0
  4  5  2  0
  4 14  1  0
  5  6  1  0
  6  7  2  0
  6  8  1  0
  8  9  1  0
  9 10  1  0
  9 14  2  0
 10 11  2  0
 11 12  1  0
 12 13  2  0
 13 14  1  0
 21 22  2  0
M  END
>  <minimizedAffinity>  (960) 
-8.89389

$$$$
data/200k_reference_output/data/smiles/83973.pdb
     RDKit          3D

 31 34  0  0  0  0  0  0  0  0999 V2000
   71.5170   47.2418   58.8425 C   0  0  0  0  0  0  0  0  0  0  0  0
   70.5033   47.7985   58.1002 C   0  0  0  0  0  0  0  0  0  0  0  0
   69.7090   46.9820   57.3006 C   0  0  0  0  0  0  0  0  0  0  0  0
   69.9511   45.6278   57.2671 C   0  0  0  0  0  0  0  0  0  0  0  0
   70.9756   45.0621   58.0168 C   0  0  0  0  0  0  0  0  0  0  0  0
   71.7456   45.8747   58.7954 C   0  0  0  0  0  0  0  0  0  0  0  0
   72.7635   45.3510   59.5466 F   0  0  0  0  0  0  0  0  0  0  0  0
   73.1864   52.2875   57.5329 C   0  0  0  0  0  0  0  0  0  0  0  0
   72.9459   52.1818   56.2340 O   0  0  0  0  0  0  0  0  0  0  0  0
   73.8346   51.1918   58.0801 N   0  0  0  0  0  0  0  0  0  0  0  0
   74.1820   50.0756   57.1693 C   0  0  0  0  0  0  0  0  0  0  0  0
   73.6549   48.7591   57.6674 C   0  0  0  0  0  0  0  0  0  0  0  0
   73.4267   48.7843   59.0977 N   0  0  0  0  0  0  0  0  0  0  0  0
   72.3870   48.0488   59.6848 C   0  0  0  0  0  0  0  0  0  0  0  0
   72.1675   48.0544   60.9208 O   0  0  0  0  0  0  0  0  0  0  0  0
   74.3421   49.6188   59.8765 C   0  0  0  0  0  0  0  0  0  0  0  0
   74.1710   51.0879   59.4699 C   0  0  0  0  0  0  0  0  0  0  0  0
   73.6813   54.6322   58.3590 C   0  0  0  0  0  0  0  0  0  0  0  0
   72.7224   53.5284   58.1210 C   0  0  0  0  0  0  0  0  0  0  0  0
   68.6130   47.5598   56.4783 C   0  0  0  0  0  0  0  0  0  0  0  0
   69.1621   47.9248   55.1539 C   0  0  0  0  0  0  0  0  0  0  0  0
   70.1007   48.9131   55.0389 N   0  0  0  0  0  0  0  0  0  0  0  0
   70.6187   49.2694   53.8822 N   0  0  0  0  0  0  0  0  0  0  0  0
   70.2513   48.6773   52.7385 C   0  0  0  0  0  0  0  0  0  0  0  0
   70.7393   49.0065   51.6111 O   0  0  0  0  0  0  0  0  0  0  0  0
   69.3026   47.6578   52.7387 C   0  0  0  0  0  0  0  0  0  0  0  0
   68.9115   47.0389   51.5732 C   0  0  0  0  0  0  0  0  0  0  0  0
   67.9680   46.0375   51.6309 C   0  0  0  0  0  0  0  0  0  0  0  0
   67.4290   45.6667   52.8400 C   0  0  0  0  0  0  0  0  0  0  0  0
   67.8410   46.3084   54.0023 C   0  0  0  0  0  0  0  0  0  0  0  0
   68.7795   47.3110   53.9810 C   0  0  0  0  0  0  0  0  0  0  0  0
 18 19  1  0
 19  8  1  0
  8  9  2  0
  8 10  1  0
 10 11  1  0
 10 17  1  0
 11 12  1  0
 12 13  1  0
 13 14  1  0
 13 16  1  0
 14 15  2  0
 14  1  1  0
  1  2  2  0
  1  6  1  0
  2  3  1  0
  3 20  1  0
  3  4  2  0
 20 21  1  0
 21 22  2  0
 21 31  1  0
 22 23  1  0
 23 24  1  0
 24 25  2  0
 24 26  1  0
 26 27  1  0
 26 31  2  0
 27 28  2  0
 28 29  1  0
 29 30  2  0
 30 31  1  0
  4  5  1  0
  5  6  2  0
  6  7  1  0
 16 17  1  0
M  END
>  <minimizedAffinity>  (961) 
-9.15720

$$$$
data/200k_reference_output/data/smiles/84038.pdb
     RDKit          3D

 24 26  0  0  0  0  0  0  0  0999 V2000
   69.3724   43.0632   56.9239 O   0  0  0  0  0  0  0  0  0  0  0  0
   68.2409   42.6749   56.5395 C   0  0  0  0  0  0  0  0  0  0  0  0
   67.5303   43.4960   55.6304 N   0  0  0  0  0  0  0  0  0  0  0  0
   68.1129   44.6881   55.2054 N   0  0  0  0  0  0  0  0  0  0  0  0
   67.8420   45.1912   54.0493 C   0  0  0  0  0  0  0  0  0  0  0  0
   68.4743   46.4451   53.6377 C   0  0  0  0  0  0  0  0  0  0  0  0
   68.8792   46.6327   52.3328 C   0  0  0  0  0  0  0  0  0  0  0  0
   69.4746   47.8031   51.9268 C   0  0  0  0  0  0  0  0  0  0  0  0
   69.6822   48.8365   52.8411 C   0  0  0  0  0  0  0  0  0  0  0  0
   70.2778   49.9897   52.4072 O   0  0  0  0  0  0  0  0  0  0  0  0
   69.2848   48.6657   54.1447 C   0  0  0  0  0  0  0  0  0  0  0  0
   68.6843   47.4713   54.5311 C   0  0  0  0  0  0  0  0  0  0  0  0
   67.7106   41.3893   57.0516 C   0  0  0  0  0  0  0  0  0  0  0  0
   68.7508   40.5507   57.4838 O   0  0  0  0  0  0  0  0  0  0  0  0
   68.5556   39.5408   58.4234 C   0  0  0  0  0  0  0  0  0  0  0  0
   67.3943   39.3591   59.1398 C   0  0  0  0  0  0  0  0  0  0  0  0
   67.2878   38.3193   60.0645 C   0  0  0  0  0  0  0  0  0  0  0  0
   68.3150   37.4384   60.3052 C   0  0  0  0  0  0  0  0  0  0  0  0
   69.4869   37.6048   59.5974 C   0  0  0  0  0  0  0  0  0  0  0  0
   70.5426   36.7396   59.8133 C   0  0  0  0  0  0  0  0  0  0  0  0
   71.7055   36.9169   59.0997 C   0  0  0  0  0  0  0  0  0  0  0  0
   71.7680   37.9564   58.1965 C   0  0  0  0  0  0  0  0  0  0  0  0
   70.7407   38.7987   57.9874 N   0  0  0  0  0  0  0  0  0  0  0  0
   69.5868   38.6308   58.6876 C   0  0  0  0  0  0  0  0  0  0  0  0
  1  2  2  0
  2 13  1  0
  2  3  1  0
 13 14  1  0
 14 15  1  0
 15 16  2  0
 15 24  1  0
 16 17  1  0
 17 18  2  0
 18 19  1  0
 19 20  1  0
 19 24  2  0
 20 21  2  0
 21 22  1  0
 22 23  2  0
 23 24  1  0
  3  4  1  0
  4  5  2  0
  5  6  1  0
  6  7  2  0
  6 12  1  0
  7  8  1  0
  8  9  2  0
  9 10  1  0
  9 11  1  0
 11 12  2  0
M  END
>  <minimizedAffinity>  (962) 
-8.58585

$$$$
data/200k_reference_output/data/smiles/84039.pdb
     RDKit          3D

 27 28  0  0  0  0  0  0  0  0999 V2000
   69.5768   47.9250   57.2171 S   0  0  0  0  0  0  0  0  0  0  0  0
   69.9088   49.1264   58.0210 O   0  0  0  0  0  0  0  0  0  0  0  0
   68.2688   47.3679   57.6939 O   0  0  0  0  0  0  0  0  0  0  0  0
   70.7757   46.6516   57.4723 C   0  0  0  0  0  0  0  0  0  0  0  0
   70.4083   45.4027   57.6933 C   0  0  0  0  0  0  0  0  0  0  0  0
   71.3228   44.2952   57.9125 C   0  0  0  0  0  0  0  0  0  0  0  0
   72.6480   44.4377   58.2525 C   0  0  0  0  0  0  0  0  0  0  0  0
   73.4717   43.3385   58.4514 C   0  0  0  0  0  0  0  0  0  0  0  0
   73.0067   42.0523   58.3180 C   0  0  0  0  0  0  0  0  0  0  0  0
   71.6910   41.8975   57.9803 C   0  0  0  0  0  0  0  0  0  0  0  0
   70.8643   43.0024   57.7805 C   0  0  0  0  0  0  0  0  0  0  0  0
   69.4531   42.7798   57.4128 C   0  0  0  0  0  0  0  0  0  0  0  0
   68.9787   43.5996   56.4368 F   0  0  0  0  0  0  0  0  0  0  0  0
   69.2789   41.4687   56.9459 F   0  0  0  0  0  0  0  0  0  0  0  0
   68.5993   42.8989   58.5170 F   0  0  0  0  0  0  0  0  0  0  0  0
   69.5143   48.3886   55.5545 N   0  0  0  0  0  0  0  0  0  0  0  0
   69.1187   47.8489   53.2546 C   0  0  0  0  0  0  0  0  0  0  0  0
   68.5684   46.9878   52.3167 C   0  0  0  0  0  0  0  0  0  0  0  0
   67.8836   45.8424   52.6597 C   0  0  0  0  0  0  0  0  0  0  0  0
   67.3491   45.0078   51.7195 F   0  0  0  0  0  0  0  0  0  0  0  0
   67.7463   45.5521   54.0000 C   0  0  0  0  0  0  0  0  0  0  0  0
   68.2871   46.3956   54.9573 C   0  0  0  0  0  0  0  0  0  0  0  0
   68.9598   47.5222   54.6056 C   0  0  0  0  0  0  0  0  0  0  0  0
   69.8977   49.4459   51.1007 N   0  0  0  0  0  0  0  0  0  0  0  0
   69.9846   49.2968   52.8222 S   0  0  0  0  0  0  0  0  0  0  0  0
   69.3314   50.5341   53.3870 O   0  0  0  0  0  0  0  0  0  0  0  0
   71.4366   49.2189   53.1940 O   0  0  0  0  0  0  0  0  0  0  0  0
 24 25  1  0
 25 26  2  0
 25 27  2  0
 25 17  1  0
 17 18  2  0
 17 23  1  0
 18 19  1  0
 19 20  1  0
 19 21  2  0
 21 22  1  0
 22 23  2  0
 23 16  1  0
 16  1  1  0
  1  2  2  0
  1  3  2  0
  1  4  1  0
  4  5  2  0
  5  6  1  0
  6  7  2  0
  6 11  1  0
  7  8  1  0
  8  9  2  0
  9 10  1  0
 10 11  2  0
 11 12  1  0
 12 13  1  0
 12 14  1  0
 12 15  1  0
M  END
>  <minimizedAffinity>  (963) 
-8.55913

$$$$
data/200k_reference_output/data/smiles/84040.pdb
     RDKit          3D

 23 25  0  0  0  0  0  0  0  0999 V2000
   69.5358   43.4594   56.7874 O   0  0  0  0  0  0  0  0  0  0  0  0
   68.3907   43.0735   56.4584 C   0  0  0  0  0  0  0  0  0  0  0  0
   67.8265   41.8702   57.0104 N   0  0  0  0  0  0  0  0  0  0  0  0
   67.6566   43.8438   55.5306 N   0  0  0  0  0  0  0  0  0  0  0  0
   68.0866   45.0366   54.9169 C   0  0  0  0  0  0  0  0  0  0  0  0
   68.6595   46.1178   55.5144 C   0  0  0  0  0  0  0  0  0  0  0  0
   69.0566   47.2639   54.8170 C   0  0  0  0  0  0  0  0  0  0  0  0
   68.8801   47.3511   53.4545 C   0  0  0  0  0  0  0  0  0  0  0  0
   68.3030   46.2708   52.8262 C   0  0  0  0  0  0  0  0  0  0  0  0
   67.9188   45.1517   53.5285 C   0  0  0  0  0  0  0  0  0  0  0  0
   69.2941   48.5477   52.7214 C   0  0  0  0  0  0  0  0  0  0  0  0
   69.5228   49.7491   53.2389 N   0  0  0  0  0  0  0  0  0  0  0  0
   69.8770   50.5628   52.2506 N   0  0  0  0  0  0  0  0  0  0  0  0
   69.8812   49.9032   51.1057 N   0  0  0  0  0  0  0  0  0  0  0  0
   69.5226   48.6659   51.4027 N   0  0  0  0  0  0  0  0  0  0  0  0
   68.5785   41.0861   57.9392 C   0  0  0  0  0  0  0  0  0  0  0  0
   68.1519   39.6418   57.8382 C   0  0  0  0  0  0  0  0  0  0  0  0
   69.1037   38.7699   58.5768 C   0  0  0  0  0  0  0  0  0  0  0  0
   68.6485   38.0394   59.6366 C   0  0  0  0  0  0  0  0  0  0  0  0
   69.4958   37.2053   60.3667 C   0  0  0  0  0  0  0  0  0  0  0  0
   70.8148   37.1208   60.0053 C   0  0  0  0  0  0  0  0  0  0  0  0
   71.2976   37.8537   58.9324 C   0  0  0  0  0  0  0  0  0  0  0  0
   70.4303   38.6829   58.2163 C   0  0  0  0  0  0  0  0  0  0  0  0
  1  2  2  0
  2  3  1  0
  2  4  1  0
  3 16  1  0
 16 17  1  0
 17 18  1  0
 18 19  2  0
 18 23  1  0
 19 20  1  0
 20 21  2  0
 21 22  1  0
 22 23  2  0
  4  5  1  0
  5  6  2  0
  5 10  1  0
  6  7  1  0
  7  8  2  0
  8 11  1  0
  8  9  1  0
 11 12  2  0
 11 15  1  0
 12 13  1  0
 13 14  2  0
 14 15  1  0
  9 10  2  0
M  END
>  <minimizedAffinity>  (964) 
-8.53726

$$$$
data/200k_reference_output/data/smiles/84070.pdb
     RDKit          3D

 22 24  0  0  0  0  0  0  0  0999 V2000
   69.0202   47.4955   54.0137 C   0  0  0  0  0  0  0  0  0  0  0  0
   68.3584   46.3460   53.6395 C   0  0  0  0  0  0  0  0  0  0  0  0
   68.0131   45.4224   54.6238 C   0  0  0  0  0  0  0  0  0  0  0  0
   68.3414   45.6850   55.9206 N   0  0  0  0  0  0  0  0  0  0  0  0
   68.9827   46.7953   56.2867 C   0  0  0  0  0  0  0  0  0  0  0  0
   69.3096   47.6802   55.3231 N   0  0  0  0  0  0  0  0  0  0  0  0
   70.0362   46.9944   51.2999 O   0  0  0  0  0  0  0  0  0  0  0  0
   69.8839   48.1653   51.7459 C   0  0  0  0  0  0  0  0  0  0  0  0
   70.1468   49.2912   51.0677 N   0  0  0  0  0  0  0  0  0  0  0  0
   69.8611   50.3157   51.8638 N   0  0  0  0  0  0  0  0  0  0  0  0
   69.4100   49.8579   53.0672 C   0  0  0  0  0  0  0  0  0  0  0  0
   69.4129   48.4816   53.0191 C   0  0  0  0  0  0  0  0  0  0  0  0
   69.3311   47.0918   57.6296 N   0  0  0  0  0  0  0  0  0  0  0  0
   70.5617   47.8223   57.8284 C   0  0  0  0  0  0  0  0  0  0  0  0
   70.1493   49.1253   58.5020 C   0  0  0  0  0  0  0  0  0  0  0  0
   69.7039   50.1654   57.5551 C   0  0  0  0  0  0  0  0  0  0  0  0
   68.3844   50.5133   57.3780 C   0  0  0  0  0  0  0  0  0  0  0  0
   67.9813   51.4856   56.4615 C   0  0  0  0  0  0  0  0  0  0  0  0
   68.9174   52.1598   55.6725 C   0  0  0  0  0  0  0  0  0  0  0  0
   68.5069   53.1002   54.7877 F   0  0  0  0  0  0  0  0  0  0  0  0
   70.2394   51.8162   55.8472 C   0  0  0  0  0  0  0  0  0  0  0  0
   70.6345   50.8495   56.7591 C   0  0  0  0  0  0  0  0  0  0  0  0
  7  8  2  0
  8  9  1  0
  8 12  1  0
  9 10  1  0
 10 11  1  0
 11 12  2  0
 12  1  1  0
  1  2  2  0
  1  6  1  0
  2  3  1  0
  3  4  2  0
  4  5  1  0
  5 13  1  0
  5  6  2  0
 13 14  1  0
 14 15  1  0
 15 16  1  0
 16 17  2  0
 16 22  1  0
 17 18  1  0
 18 19  2  0
 19 20  1  0
 19 21  1  0
 21 22  2  0
M  END
>  <minimizedAffinity>  (965) 
-8.53566

$$$$
data/200k_reference_output/data/smiles/84345.pdb
     RDKit          3D

 28 32  0  0  0  0  0  0  0  0999 V2000
   76.9453   36.1608   53.2663 N   0  0  0  0  0  0  0  0  0  0  0  0
   76.7146   35.5776   51.9861 C   0  0  0  0  0  0  0  0  0  0  0  0
   77.5156   35.8206   50.9410 N   0  0  0  0  0  0  0  0  0  0  0  0
   77.2555   35.2427   49.7389 C   0  0  0  0  0  0  0  0  0  0  0  0
   78.0957   35.5064   48.6713 C   0  0  0  0  0  0  0  0  0  0  0  0
   77.8381   34.9243   47.4506 C   0  0  0  0  0  0  0  0  0  0  0  0
   76.7603   34.0865   47.2798 C   0  0  0  0  0  0  0  0  0  0  0  0
   75.9159   33.8157   48.3356 C   0  0  0  0  0  0  0  0  0  0  0  0
   76.1856   34.4115   49.5711 C   0  0  0  0  0  0  0  0  0  0  0  0
   75.3222   34.1318   50.6383 C   0  0  0  0  0  0  0  0  0  0  0  0
   75.6121   34.7319   51.8436 C   0  0  0  0  0  0  0  0  0  0  0  0
   76.7470   33.6492   45.9632 O   0  0  0  0  0  0  0  0  0  0  0  0
   77.7667   34.3327   45.2671 C   0  0  0  0  0  0  0  0  0  0  0  0
   78.5250   35.0287   46.2318 O   0  0  0  0  0  0  0  0  0  0  0  0
   74.7749   34.4895   53.0093 C   0  0  0  0  0  0  0  0  0  0  0  0
   74.8957   33.3742   53.6261 O   0  0  0  0  0  0  0  0  0  0  0  0
   73.8477   35.4531   53.4606 N   0  0  0  0  0  0  0  0  0  0  0  0
   73.0341   35.1748   54.6272 C   0  0  0  0  0  0  0  0  0  0  0  0
   73.7238   35.4788   55.9042 C   0  0  0  0  0  0  0  0  0  0  0  0
   72.9178   35.2065   57.1104 C   0  0  0  0  0  0  0  0  0  0  0  0
   72.7716   33.9699   57.7092 C   0  0  0  0  0  0  0  0  0  0  0  0
   71.9662   34.1210   58.7787 N   0  0  0  0  0  0  0  0  0  0  0  0
   71.5809   35.3948   58.9041 C   0  0  0  0  0  0  0  0  0  0  0  0
   70.7797   36.0149   59.8133 C   0  0  0  0  0  0  0  0  0  0  0  0
   70.5600   37.3786   59.6782 C   0  0  0  0  0  0  0  0  0  0  0  0
   71.1374   38.0951   58.6473 C   0  0  0  0  0  0  0  0  0  0  0  0
   71.9412   37.4216   57.7529 C   0  0  0  0  0  0  0  0  0  0  0  0
   72.1788   36.0745   57.8579 C   0  0  0  0  0  0  0  0  0  0  0  0
  1  2  1  0
  2  3  2  0
  2 11  1  0
  3  4  1  0
  4  5  2  0
  4  9  1  0
  5  6  1  0
  6  7  2  0
  6 14  1  0
  7  8  1  0
  7 12  1  0
  8  9  2  0
  9 10  1  0
 10 11  2  0
 11 15  1  0
 15 16  2  0
 15 17  1  0
 17 18  1  0
 18 19  1  0
 19 20  1  0
 20 21  2  0
 20 28  1  0
 21 22  1  0
 22 23  1  0
 23 24  1  0
 23 28  2  0
 24 25  2  0
 25 26  1  0
 26 27  2  0
 27 28  1  0
 12 13  1  0
 13 14  1  0
M  END
>  <minimizedAffinity>  (966) 
-9.00018

$$$$
data/200k_reference_output/data/smiles/84438.pdb
     RDKit          3D

 28 30  0  0  0  0  0  0  0  0999 V2000
   68.1906   45.9317   53.9783 C   0  0  0  0  0  0  0  0  0  0  0  0
   67.7515   45.7390   52.6928 C   0  0  0  0  0  0  0  0  0  0  0  0
   68.0988   46.5792   51.6259 C   0  0  0  0  0  0  0  0  0  0  0  0
   68.9236   47.6499   51.8932 C   0  0  0  0  0  0  0  0  0  0  0  0
   69.3956   47.8934   53.1609 C   0  0  0  0  0  0  0  0  0  0  0  0
   69.0365   47.0591   54.1575 C   0  0  0  0  0  0  0  0  0  0  0  0
   70.2505   49.0422   53.3858 C   0  0  0  0  0  0  0  0  0  0  0  0
   71.3199   49.0865   52.6941 O   0  0  0  0  0  0  0  0  0  0  0  0
   69.9744   50.0809   54.2968 N   0  0  0  0  0  0  0  0  0  0  0  0
   70.8118   51.2547   54.5455 C   0  0  0  0  0  0  0  0  0  0  0  0
   70.8894   51.2161   56.0680 C   0  0  0  0  0  0  0  0  0  0  0  0
   69.4801   50.7789   56.4391 C   0  0  2  0  0  0  0  0  0  0  0  0
   68.8527   50.2385   55.1734 C   0  0  0  0  0  0  0  0  0  0  0  0
   68.6731   51.9664   56.9244 C   0  0  0  0  0  0  0  0  0  0  0  0
   67.3801   51.5614   57.1713 O   0  0  0  0  0  0  0  0  0  0  0  0
   67.9058   45.1839   55.0217 O   0  0  0  0  0  0  0  0  0  0  0  0
   68.4610   42.1009   56.9463 C   0  0  0  0  0  0  0  0  0  0  0  0
   67.9325   42.9795   56.0111 C   0  0  0  0  0  0  0  0  0  0  0  0
   68.3426   44.2722   55.8785 C   0  0  0  0  0  0  0  0  0  0  0  0
   69.3314   44.6605   56.7437 N   0  0  0  0  0  0  0  0  0  0  0  0
   69.8873   43.8914   57.6605 C   0  0  0  0  0  0  0  0  0  0  0  0
   69.4511   42.5750   57.7768 C   0  0  0  0  0  0  0  0  0  0  0  0
   70.9625   44.4047   58.5579 C   0  0  0  0  0  0  0  0  0  0  0  0
   70.6295   45.6549   59.0318 F   0  0  0  0  0  0  0  0  0  0  0  0
   71.0802   43.5068   59.5988 F   0  0  0  0  0  0  0  0  0  0  0  0
   72.1532   44.4653   57.8400 F   0  0  0  0  0  0  0  0  0  0  0  0
   67.7371   40.1785   55.7330 N   0  0  0  0  0  0  0  0  0  0  0  0
   68.0156   40.7017   57.0712 C   0  0  0  0  0  0  0  0  0  0  0  0
 27 28  1  0
 28 17  1  0
 17 18  2  0
 17 22  1  0
 18 19  1  0
 19 16  1  0
 19 20  2  0
 16  1  1  0
  1  2  2  0
  1  6  1  0
  2  3  1  0
  3  4  2  0
  4  5  1  0
  5  7  1  0
  5  6  2  0
  7  8  2  0
  7  9  1  0
  9 10  1  0
  9 13  1  0
 10 11  1  0
 11 12  1  0
 12 14  1  6
 12 13  1  0
 14 15  1  0
 20 21  1  0
 21 23  1  0
 21 22  2  0
 23 24  1  0
 23 25  1  0
 23 26  1  0
M  CHG  1  27   1
M  END
>  <minimizedAffinity>  (967) 
-9.04263

$$$$
data/200k_reference_output/data/smiles/84581.pdb
     RDKit          3D

 29 33  0  0  0  0  0  0  0  0999 V2000
   73.1086   50.0872   56.6529 C   0  0  0  0  0  0  0  0  0  0  0  0
   73.7049   49.1830   57.5040 C   0  0  0  0  0  0  0  0  0  0  0  0
   72.9291   48.2273   58.1289 C   0  0  0  0  0  0  0  0  0  0  0  0
   71.5536   48.1217   57.9466 C   0  0  0  0  0  0  0  0  0  0  0  0
   70.9580   49.0183   57.1019 C   0  0  0  0  0  0  0  0  0  0  0  0
   71.7455   49.9802   56.4738 C   0  0  0  0  0  0  0  0  0  0  0  0
   73.3384   53.3873   56.4320 C   0  0  1  0  0  0  0  0  0  0  0  0
   73.9266   52.2360   56.7402 O   0  0  0  0  0  0  0  0  0  0  0  0
   73.8989   51.1524   55.9368 C   0  0  2  0  0  0  0  0  0  0  0  0
   73.3736   51.3847   54.5466 C   0  0  2  0  0  0  0  0  0  0  0  0
   73.9007   50.5200   53.6196 O   0  0  0  0  0  0  0  0  0  0  0  0
   73.8568   52.7918   54.1539 C   0  0  1  0  0  0  0  0  0  0  0  0
   73.6585   53.0500   52.8225 O   0  0  0  0  0  0  0  0  0  0  0  0
   73.0226   53.7129   55.0209 C   0  0  2  0  0  0  0  0  0  0  0  0
   73.2741   55.0518   54.7338 O   0  0  0  0  0  0  0  0  0  0  0  0
   72.1229   52.8134   58.4363 O   0  0  0  0  0  0  0  0  0  0  0  0
   72.0116   53.4673   57.2075 C   0  0  0  0  0  0  0  0  0  0  0  0
   70.7904   47.0481   58.6693 C   0  0  0  0  0  0  0  0  0  0  0  0
   70.8396   45.6636   58.0160 C   0  0  0  0  0  0  0  0  0  0  0  0
   71.6200   45.9020   59.2295 C   0  0  0  0  0  0  0  0  0  0  0  0
   69.5106   49.0305   56.8115 C   0  0  0  0  0  0  0  0  0  0  0  0
   69.1332   48.2129   55.6358 C   0  0  0  0  0  0  0  0  0  0  0  0
   68.3288   47.1274   55.7354 C   0  0  0  0  0  0  0  0  0  0  0  0
   67.9937   46.3903   54.6253 C   0  0  0  0  0  0  0  0  0  0  0  0
   68.4882   46.7627   53.3767 C   0  0  0  0  0  0  0  0  0  0  0  0
   69.3078   47.8701   53.2867 C   0  0  0  0  0  0  0  0  0  0  0  0
   69.6338   48.5931   54.3857 C   0  0  0  0  0  0  0  0  0  0  0  0
   69.4276   47.6708   51.8091 C   0  0  0  0  0  0  0  0  0  0  0  0
   68.5289   46.4583   51.9189 C   0  0  0  0  0  0  0  0  0  0  0  0
 16 17  1  0
  7 17  1  1
  7  8  1  0
  7 14  1  0
  8  9  1  0
  9  1  1  1
  9 10  1  0
  1  2  2  0
  1  6  1  0
  2  3  1  0
  3  4  2  0
  4 18  1  0
  4  5  1  0
 18 19  1  0
 18 20  1  0
 19 20  1  0
  5 21  1  0
  5  6  2  0
 21 22  1  0
 22 23  2  0
 22 27  1  0
 23 24  1  0
 24 25  2  0
 25 26  1  0
 25 29  1  0
 26 27  2  0
 26 28  1  0
 28 29  1  0
 10 11  1  6
 10 12  1  0
 12 13  1  6
 12 14  1  0
 14 15  1  6
M  END
>  <minimizedAffinity>  (968) 
-8.57978

$$$$
data/200k_reference_output/data/smiles/84639.pdb
     RDKit          3D

 33 36  0  0  0  0  0  0  0  0999 V2000
   71.6381   47.5651   59.4038 C   0  0  2  0  0  0  0  0  0  0  0  0
   72.9788   48.3066   59.5434 C   0  0  0  0  0  0  0  0  0  0  0  0
   73.7187   47.7757   58.3189 C   0  0  2  0  0  0  0  0  0  0  0  0
   73.1417   48.3921   57.1381 N   0  0  0  0  0  0  0  0  0  0  0  0
   73.3286   46.3321   58.3331 C   0  0  0  0  0  0  0  0  0  0  0  0
   71.9780   46.3071   58.8090 N   0  0  0  0  0  0  0  0  0  0  0  0
   71.1123   45.1887   58.7078 C   0  0  0  0  0  0  0  0  0  0  0  0
   69.9246   45.2449   59.1647 O   0  0  0  0  0  0  0  0  0  0  0  0
   71.5564   43.9763   58.0900 N   0  0  0  0  0  0  0  0  0  0  0  0
   70.7308   42.8296   57.9635 C   0  0  0  0  0  0  0  0  0  0  0  0
   70.9208   41.5916   58.5386 C   0  0  0  0  0  0  0  0  0  0  0  0
   69.9065   40.7658   58.1722 N   0  0  0  0  0  0  0  0  0  0  0  0
   69.7674   39.4082   58.5734 C   0  0  0  0  0  0  0  0  0  0  0  0
   70.7224   38.7963   59.4250 N   0  0  0  0  0  0  0  0  0  0  0  0
   68.7895   38.7288   58.1775 O   0  0  0  0  0  0  0  0  0  0  0  0
   69.0518   41.4284   57.3678 C   0  0  0  0  0  0  0  0  0  0  0  0
   67.8827   41.0788   56.7255 C   0  0  0  0  0  0  0  0  0  0  0  0
   67.1998   41.9884   55.9452 C   0  0  0  0  0  0  0  0  0  0  0  0
   67.7304   43.2552   55.8339 C   0  0  0  0  0  0  0  0  0  0  0  0
   68.8955   43.6486   56.4580 C   0  0  0  0  0  0  0  0  0  0  0  0
   69.5498   42.7061   57.2314 C   0  0  0  0  0  0  0  0  0  0  0  0
   70.0247   47.9299   57.4600 N   0  0  0  0  0  0  0  0  0  0  0  0
   70.8052   48.4386   58.5146 C   0  0  0  0  0  0  0  0  0  0  0  0
   70.8244   49.6660   58.7394 O   0  0  0  0  0  0  0  0  0  0  0  0
   69.1829   48.5987   56.5401 C   0  0  0  0  0  0  0  0  0  0  0  0
   69.6386   50.2945   54.6870 C   0  0  0  0  0  0  0  0  0  0  0  0
   69.7307   48.9023   55.1961 C   0  0  2  0  0  0  0  0  0  0  0  0
   69.1788   47.9240   54.1936 C   0  0  0  0  0  0  0  0  0  0  0  0
   68.3380   46.9043   54.5885 C   0  0  0  0  0  0  0  0  0  0  0  0
   67.8370   46.0013   53.6717 C   0  0  0  0  0  0  0  0  0  0  0  0
   68.1765   46.1131   52.3395 C   0  0  0  0  0  0  0  0  0  0  0  0
   69.0171   47.1283   51.9285 C   0  0  0  0  0  0  0  0  0  0  0  0
   69.5089   48.0246   52.8651 C   0  0  0  0  0  0  0  0  0  0  0  0
 27 26  1  6
 27 25  1  0
 27 28  1  0
 25 22  1  0
 22 23  1  0
 23 24  2  0
  1 23  1  6
  1  2  1  0
  1  6  1  0
  2  3  1  0
  3  4  1  6
  3  5  1  0
  5  6  1  0
  6  7  1  0
  7  8  2  0
  7  9  1  0
  9 10  1  0
 10 11  2  0
 10 21  1  0
 11 12  1  0
 12 13  1  0
 12 16  1  0
 13 14  1  0
 13 15  2  0
 16 17  1  0
 16 21  2  0
 17 18  2  0
 18 19  1  0
 19 20  2  0
 20 21  1  0
 28 29  2  0
 28 33  1  0
 29 30  1  0
 30 31  2  0
 31 32  1  0
 32 33  2  0
M  CHG  1   4   1
M  END
>  <minimizedAffinity>  (969) 
-8.92295

$$$$
data/200k_reference_output/data/smiles/84702.pdb
     RDKit          3D

 28 30  0  0  0  0  0  0  0  0999 V2000
   70.0688   46.3505   57.9718 C   0  0  0  0  0  0  0  0  0  0  0  0
   67.7386   47.2925   56.6129 O   0  0  0  0  0  0  0  0  0  0  0  0
   68.6261   46.6958   55.9609 C   0  0  0  0  0  0  0  0  0  0  0  0
   69.7983   46.2088   56.5845 N   0  0  0  0  0  0  0  0  0  0  0  0
   68.4251   46.5117   54.5298 C   0  0  0  0  0  0  0  0  0  0  0  0
   67.7502   45.4288   54.0069 C   0  0  0  0  0  0  0  0  0  0  0  0
   67.5948   45.2940   52.6450 C   0  0  0  0  0  0  0  0  0  0  0  0
   68.1051   46.2288   51.7830 C   0  0  0  0  0  0  0  0  0  0  0  0
   68.7836   47.3193   52.3080 C   0  0  0  0  0  0  0  0  0  0  0  0
   69.2942   48.2491   51.5059 N   0  0  0  0  0  0  0  0  0  0  0  0
   69.9593   49.3223   51.9497 C   0  0  0  0  0  0  0  0  0  0  0  0
   70.1450   49.5100   53.2990 C   0  0  0  0  0  0  0  0  0  0  0  0
   69.6276   48.5618   54.1668 C   0  0  0  0  0  0  0  0  0  0  0  0
   68.9519   47.4729   53.6874 C   0  0  0  0  0  0  0  0  0  0  0  0
   71.4921   46.4280   58.3809 C   0  0  0  0  0  0  0  0  0  0  0  0
   71.9717   48.0346   58.9496 S   0  0  0  0  0  0  0  0  0  0  0  0
   73.4229   48.2941   58.8331 O   0  0  0  0  0  0  0  0  0  0  0  0
   71.5717   48.1533   60.3923 O   0  0  0  0  0  0  0  0  0  0  0  0
   71.1176   49.2936   58.0696 C   0  0  0  0  0  0  0  0  0  0  0  0
   71.7236   50.0056   57.0596 C   0  0  0  0  0  0  0  0  0  0  0  0
   71.0197   50.9757   56.3900 C   0  0  0  0  0  0  0  0  0  0  0  0
   69.7073   51.2693   56.6922 C   0  0  0  0  0  0  0  0  0  0  0  0
   69.1400   50.5338   57.7094 C   0  0  0  0  0  0  0  0  0  0  0  0
   69.8379   49.5864   58.3597 N   0  0  0  0  0  0  0  0  0  0  0  0
   68.9597   52.3297   55.9394 C   0  0  0  0  0  0  0  0  0  0  0  0
   69.6105   52.5610   54.7299 F   0  0  0  0  0  0  0  0  0  0  0  0
   67.6909   51.8950   55.6449 F   0  0  0  0  0  0  0  0  0  0  0  0
   68.9723   53.5000   56.6515 F   0  0  0  0  0  0  0  0  0  0  0  0
  2  3  2  0
  3  4  1  0
  3  5  1  0
  4  1  1  0
  1 15  1  0
 15 16  1  0
 16 17  2  0
 16 18  2  0
 16 19  1  0
 19 20  2  0
 19 24  1  0
 20 21  1  0
 21 22  2  0
 22 25  1  0
 22 23  1  0
 25 26  1  0
 25 27  1  0
 25 28  1  0
 23 24  2  0
  5  6  2  0
  5 14  1  0
  6  7  1  0
  7  8  2  0
  8  9  1  0
  9 10  1  0
  9 14  2  0
 10 11  2  0
 11 12  1  0
 12 13  2  0
 13 14  1  0
M  END
>  <minimizedAffinity>  (970) 
-8.58021

$$$$
data/200k_reference_output/data/smiles/84730.pdb
     RDKit          3D

 25 28  0  0  0  0  0  0  0  0999 V2000
   70.2108   39.9648   58.2293 C   0  0  0  0  0  0  0  0  0  0  0  0
   68.9630   40.3791   57.7999 C   0  0  0  0  0  0  0  0  0  0  0  0
   68.7510   41.6895   57.4156 C   0  0  0  0  0  0  0  0  0  0  0  0
   69.7495   42.6401   57.4379 C   0  0  0  0  0  0  0  0  0  0  0  0
   70.9947   42.2354   57.8649 C   0  0  0  0  0  0  0  0  0  0  0  0
   71.2043   40.9225   58.2488 C   0  0  0  0  0  0  0  0  0  0  0  0
   69.0766   38.3963   60.6929 C   0  0  0  0  0  0  0  0  0  0  0  0
   70.0053   37.9133   59.6964 N   0  0  0  0  0  0  0  0  0  0  0  0
   70.4850   38.5953   58.6443 C   0  0  0  0  0  0  0  0  0  0  0  0
   71.3228   37.7055   58.0077 C   0  0  0  0  0  0  0  0  0  0  0  0
   71.3348   36.5292   58.6724 N   0  0  0  0  0  0  0  0  0  0  0  0
   71.9660   35.3600   58.4805 C   0  0  0  0  0  0  0  0  0  0  0  0
   71.8177   34.2821   59.3086 C   0  0  0  0  0  0  0  0  0  0  0  0
   70.9797   34.3895   60.3959 C   0  0  0  0  0  0  0  0  0  0  0  0
   70.3322   35.5870   60.5928 C   0  0  0  0  0  0  0  0  0  0  0  0
   70.5089   36.6531   59.7331 C   0  0  0  0  0  0  0  0  0  0  0  0
   69.4772   44.0169   57.0216 C   0  0  0  0  0  0  0  0  0  0  0  0
   68.5171   44.2951   56.2074 N   0  0  0  0  0  0  0  0  0  0  0  0
   68.1791   45.5418   55.7567 N   0  0  0  0  0  0  0  0  0  0  0  0
   68.1947   45.8289   54.3681 C   0  0  0  0  0  0  0  0  0  0  0  0
   68.8418   46.8925   53.7586 C   0  0  0  0  0  0  0  0  0  0  0  0
   68.5932   46.7852   52.4187 C   0  0  0  0  0  0  0  0  0  0  0  0
   69.0457   47.6456   51.3841 N   0  0  0  0  0  0  0  0  0  0  0  0
   67.8278   45.6937   52.2671 N   0  0  0  0  0  0  0  0  0  0  0  0
   67.5785   45.1088   53.4218 N   0  0  0  0  0  0  0  0  0  0  0  0
  7  8  1  0
  8  9  1  0
  8 16  2  0
  9  1  1  0
  9 10  2  0
  1  2  2  0
  1  6  1  0
  2  3  1  0
  3  4  2  0
  4 17  1  0
  4  5  1  0
 17 18  2  0
 18 19  1  0
 19 20  1  0
 20 21  1  0
 20 25  2  0
 21 22  2  0
 22 23  1  0
 22 24  1  0
 24 25  1  0
  5  6  2  0
 10 11  1  0
 11 12  1  0
 11 16  1  0
 12 13  2  0
 13 14  1  0
 14 15  2  0
 15 16  1  0
M  CHG  1   8   1
M  END
>  <minimizedAffinity>  (971) 
-8.74269

$$$$
data/200k_reference_output/data/smiles/84868.pdb
     RDKit          3D

 33 36  0  0  0  0  0  0  0  0999 V2000
   72.5196   41.5797   58.7863 C   0  0  0  0  0  0  0  0  0  0  0  0
   72.1478   42.2445   57.6369 C   0  0  0  0  0  0  0  0  0  0  0  0
   72.0158   43.6130   57.5769 C   0  0  0  0  0  0  0  0  0  0  0  0
   72.2589   44.4037   58.7093 C   0  0  0  0  0  0  0  0  0  0  0  0
   72.6277   43.7355   59.8489 C   0  0  0  0  0  0  0  0  0  0  0  0
   72.7613   42.3453   59.9049 C   0  0  0  0  0  0  0  0  0  0  0  0
   72.9006   44.5493   61.0215 C   0  0  0  0  0  0  0  0  0  0  0  0
   73.2402   43.9248   62.0766 O   0  0  0  0  0  0  0  0  0  0  0  0
   72.7946   45.9542   60.9923 N   0  0  0  0  0  0  0  0  0  0  0  0
   73.0576   46.6749   62.1133 O   0  0  0  0  0  0  0  0  0  0  0  0
   72.4170   46.6225   59.8071 C   0  0  0  0  0  0  0  0  0  0  0  0
   72.3638   47.9076   59.7835 O   0  0  0  0  0  0  0  0  0  0  0  0
   72.0814   45.8673   58.5897 C   0  0  2  0  0  0  0  0  0  0  0  0
   70.4268   39.8154   58.4034 O   0  0  0  0  0  0  0  0  0  0  0  0
   71.5482   39.2881   58.6003 C   0  0  0  0  0  0  0  0  0  0  0  0
   72.6433   40.1562   58.8001 N   0  0  0  0  0  0  0  0  0  0  0  0
   71.6355   37.8253   58.6084 C   0  0  0  0  0  0  0  0  0  0  0  0
   71.0012   37.0793   59.5835 C   0  0  0  0  0  0  0  0  0  0  0  0
   71.0696   35.6951   59.6123 C   0  0  0  0  0  0  0  0  0  0  0  0
   71.7813   35.0012   58.6576 C   0  0  0  0  0  0  0  0  0  0  0  0
   72.4204   35.7303   57.6783 C   0  0  0  0  0  0  0  0  0  0  0  0
   72.3438   37.1184   57.6611 C   0  0  0  0  0  0  0  0  0  0  0  0
   70.6679   46.2009   58.2267 C   0  0  0  0  0  0  0  0  0  0  0  0
   69.7324   45.7325   58.9350 O   0  0  0  0  0  0  0  0  0  0  0  0
   70.3403   47.0140   57.1262 N   0  0  0  0  0  0  0  0  0  0  0  0
   69.0067   47.3612   56.7482 C   0  0  0  0  0  0  0  0  0  0  0  0
   68.8489   47.2083   55.2867 C   0  0  0  0  0  0  0  0  0  0  0  0
   68.2129   46.0670   54.7782 C   0  0  0  0  0  0  0  0  0  0  0  0
   68.0164   45.8523   53.4375 C   0  0  0  0  0  0  0  0  0  0  0  0
   68.4523   46.7832   52.5239 C   0  0  0  0  0  0  0  0  0  0  0  0
   68.2816   46.6166   51.1850 F   0  0  0  0  0  0  0  0  0  0  0  0
   69.0850   47.9233   52.9972 C   0  0  0  0  0  0  0  0  0  0  0  0
   69.2721   48.1179   54.3474 C   0  0  0  0  0  0  0  0  0  0  0  0
 14 15  2  0
 15 16  1  0
 15 17  1  0
 16  1  1  0
  1  2  2  0
  1  6  1  0
  2  3  1  0
  3  4  2  0
  4  5  1  0
  4 13  1  0
  5  6  2  0
  5  7  1  0
  7  8  2  0
  7  9  1  0
  9 10  1  0
  9 11  1  0
 11 12  2  0
 11 13  1  0
 13 23  1  1
 23 24  2  0
 23 25  1  0
 25 26  1  0
 26 27  1  0
 27 28  2  0
 27 33  1  0
 28 29  1  0
 29 30  2  0
 30 31  1  0
 30 32  1  0
 32 33  2  0
 17 18  2  0
 17 22  1  0
 18 19  1  0
 19 20  2  0
 20 21  1  0
 21 22  2  0
M  END
>  <minimizedAffinity>  (972) 
-9.61048

$$$$
data/200k_reference_output/data/smiles/84986.pdb
     RDKit          3D

 27 29  0  0  0  0  0  0  0  0999 V2000
   70.9071   44.1809   58.0616 O   0  0  0  0  0  0  0  0  0  0  0  0
   69.8405   43.9916   57.4166 C   0  0  0  0  0  0  0  0  0  0  0  0
   69.2458   45.1618   56.8663 N   0  0  0  0  0  0  0  0  0  0  0  0
   69.2625   42.6652   57.2529 C   0  0  0  0  0  0  0  0  0  0  0  0
   68.2013   42.5304   56.3609 C   0  0  0  0  0  0  0  0  0  0  0  0
   67.6172   41.2939   56.1699 C   0  0  0  0  0  0  0  0  0  0  0  0
   66.5750   41.1219   55.3040 F   0  0  0  0  0  0  0  0  0  0  0  0
   68.0805   40.1927   56.8597 C   0  0  0  0  0  0  0  0  0  0  0  0
   69.1333   40.2851   57.7547 C   0  0  0  0  0  0  0  0  0  0  0  0
   69.6818   41.5434   57.9090 C   0  0  0  0  0  0  0  0  0  0  0  0
   69.5885   39.1049   58.4576 C   0  0  0  0  0  0  0  0  0  0  0  0
   68.8664   38.5118   59.4590 C   0  0  0  0  0  0  0  0  0  0  0  0
   69.4011   37.3765   60.0701 C   0  0  0  0  0  0  0  0  0  0  0  0
   70.6199   36.8594   59.6835 C   0  0  0  0  0  0  0  0  0  0  0  0
   71.3079   37.4882   58.6753 C   0  0  0  0  0  0  0  0  0  0  0  0
   70.7652   38.5710   58.1156 N   0  0  0  0  0  0  0  0  0  0  0  0
   69.8447   46.4372   57.0515 N   0  0  0  0  0  0  0  0  0  0  0  0
   68.8060   47.5871   56.2891 S   0  0  0  0  0  0  0  0  0  0  0  0
   69.2517   48.9787   56.6240 O   0  0  0  0  0  0  0  0  0  0  0  0
   67.3917   47.4571   56.7858 O   0  0  0  0  0  0  0  0  0  0  0  0
   68.8750   47.3880   54.5596 C   0  0  0  0  0  0  0  0  0  0  0  0
   69.5155   48.3237   53.7892 C   0  0  0  0  0  0  0  0  0  0  0  0
   69.6007   48.2165   52.4256 C   0  0  0  0  0  0  0  0  0  0  0  0
   69.0207   47.1277   51.7949 C   0  0  0  0  0  0  0  0  0  0  0  0
   68.3855   46.2028   52.5738 C   0  0  0  0  0  0  0  0  0  0  0  0
   68.3001   46.3058   53.9243 C   0  0  0  0  0  0  0  0  0  0  0  0
   67.6719   45.3849   54.6559 F   0  0  0  0  0  0  0  0  0  0  0  0
  1  2  2  0
  2  3  1  0
  2  4  1  0
  3 17  1  0
 17 18  1  0
 18 19  2  0
 18 20  2  0
 18 21  1  0
 21 22  2  0
 21 26  1  0
 22 23  1  0
 23 24  2  0
 24 25  1  0
 25 26  2  0
 26 27  1  0
  4  5  2  0
  4 10  1  0
  5  6  1  0
  6  7  1  0
  6  8  2  0
  8  9  1  0
  9 11  1  0
  9 10  2  0
 11 12  2  0
 11 16  1  0
 12 13  1  0
 13 14  2  0
 14 15  1  0
 15 16  2  0
M  END
>  <minimizedAffinity>  (973) 
-9.40742

$$$$
data/200k_reference_output/data/smiles/85010.pdb
     RDKit          3D

 28 30  0  0  0  0  0  0  0  0999 V2000
   71.6485   43.4687   57.6934 S   0  0  0  0  0  0  0  0  0  0  0  0
   70.7254   36.2852   60.2204 C   0  0  0  0  0  0  0  0  0  0  0  0
   70.1828   37.5903   59.7594 C   0  0  0  0  0  0  0  0  0  0  0  0
   68.8370   37.7451   59.6122 C   0  0  0  0  0  0  0  0  0  0  0  0
   68.2822   38.7903   58.9180 C   0  0  0  0  0  0  0  0  0  0  0  0
   69.0908   39.7453   58.3946 C   0  0  0  0  0  0  0  0  0  0  0  0
   68.7202   40.8459   57.7456 C   0  0  0  0  0  0  0  0  0  0  0  0
   69.4545   41.8598   57.3858 C   0  0  0  0  0  0  0  0  0  0  0  0
   70.8223   41.8397   57.6457 C   0  0  0  0  0  0  0  0  0  0  0  0
   71.3169   40.7331   58.2000 N   0  0  0  0  0  0  0  0  0  0  0  0
   70.4508   39.6818   58.5750 C   0  0  0  0  0  0  0  0  0  0  0  0
   71.0177   38.5880   59.2279 C   0  0  0  0  0  0  0  0  0  0  0  0
   68.7369   43.0578   56.7168 C   0  0  0  0  0  0  0  0  0  0  0  0
   68.1805   44.0015   56.2118 N   0  0  0  0  0  0  0  0  0  0  0  0
   71.3212   44.2203   59.5026 C   0  0  0  0  0  0  0  0  0  0  0  0
   70.9852   45.4918   58.8994 C   0  0  0  0  0  0  0  0  0  0  0  0
   71.9857   46.2780   58.7179 O   0  0  0  0  0  0  0  0  0  0  0  0
   69.7625   45.9774   58.3892 N   0  0  0  0  0  0  0  0  0  0  0  0
   69.8952   46.9578   57.3162 N   0  0  0  0  0  0  0  0  0  0  0  0
   68.7863   47.5542   56.7435 C   0  0  0  0  0  0  0  0  0  0  0  0
   67.6882   47.4490   57.1117 O   0  0  0  0  0  0  0  0  0  0  0  0
   69.0506   48.4252   55.4739 C   0  0  0  0  0  0  0  0  0  0  0  0
   69.0721   47.5682   54.2698 C   0  0  0  0  0  0  0  0  0  0  0  0
   68.1457   46.5757   54.2952 C   0  0  0  0  0  0  0  0  0  0  0  0
   67.7006   45.9014   53.1237 C   0  0  0  0  0  0  0  0  0  0  0  0
   68.3270   46.4003   52.0199 C   0  0  0  0  0  0  0  0  0  0  0  0
   69.2118   47.3647   51.9138 C   0  0  0  0  0  0  0  0  0  0  0  0
   69.6421   48.0370   53.1063 C   0  0  0  0  0  0  0  0  0  0  0  0
  2  3  1  0
  3  4  2  0
  3 12  1  0
  4  5  1  0
  5  6  2  0
  6  7  1  0
  6 11  1  0
  7  8  2  0
  8 13  1  0
  8  9  1  0
 13 14  3  0
  9  1  1  0
  9 10  2  0
  1 15  1  0
 15 16  1  0
 16 17  2  0
 16 18  1  0
 18 19  1  0
 19 20  1  0
 20 21  2  0
 20 22  1  0
 22 23  1  0
 23 24  2  0
 23 28  1  0
 24 25  1  0
 25 26  2  0
 26 27  1  0
 27 28  2  0
 10 11  1  0
 11 12  2  0
M  END
>  <minimizedAffinity>  (974) 
-9.17819

$$$$
data/200k_reference_output/data/smiles/85239.pdb
     RDKit          3D

 28 31  0  0  0  0  0  0  0  0999 V2000
   69.0952   49.4513   56.4361 C   0  0  0  0  0  0  0  0  0  0  0  0
   68.3454   50.6338   56.4675 C   0  0  0  0  0  0  0  0  0  0  0  0
   68.5311   51.5517   57.4707 C   0  0  0  0  0  0  0  0  0  0  0  0
   69.4347   51.3313   58.4369 N   0  0  0  0  0  0  0  0  0  0  0  0
   70.1966   50.2133   58.4751 C   0  0  0  0  0  0  0  0  0  0  0  0
   70.0032   49.2963   57.4646 C   0  0  0  0  0  0  0  0  0  0  0  0
   70.9542   48.1821   57.7466 C   0  0  0  0  0  0  0  0  0  0  0  0
   71.1049   48.3377   59.2503 C   0  0  2  0  0  0  0  0  0  0  0  0
   71.1931   49.7454   59.3560 O   0  0  0  0  0  0  0  0  0  0  0  0
   69.2202   47.7590   53.1124 C   0  0  0  0  0  0  0  0  0  0  0  0
   68.5865   46.5659   53.3780 C   0  0  0  0  0  0  0  0  0  0  0  0
   68.1227   46.3250   54.6433 C   0  0  0  0  0  0  0  0  0  0  0  0
   68.2915   47.2809   55.6569 C   0  0  0  0  0  0  0  0  0  0  0  0
   68.9219   48.4688   55.3968 C   0  0  0  0  0  0  0  0  0  0  0  0
   69.3784   48.6929   54.1281 C   0  0  0  0  0  0  0  0  0  0  0  0
   69.9707   49.3895   51.3799 N   0  0  0  0  0  0  0  0  0  0  0  0
   69.7262   48.0531   51.7834 C   0  0  0  0  0  0  0  0  0  0  0  0
   69.9601   47.1366   50.9604 O   0  0  0  0  0  0  0  0  0  0  0  0
   72.2767   47.6445   59.8004 C   0  0  0  0  0  0  0  0  0  0  0  0
   72.4293   47.5442   61.0228 O   0  0  0  0  0  0  0  0  0  0  0  0
   73.2555   47.0772   58.9468 N   0  0  0  0  0  0  0  0  0  0  0  0
   74.4357   46.3808   59.3463 C   0  0  0  0  0  0  0  0  0  0  0  0
   74.4141   45.0185   58.7642 C   0  0  0  0  0  0  0  0  0  0  0  0
   73.3894   44.4821   58.0335 C   0  0  0  0  0  0  0  0  0  0  0  0
   73.4136   43.2033   57.5162 C   0  0  0  0  0  0  0  0  0  0  0  0
   74.5216   42.3938   57.7314 C   0  0  0  0  0  0  0  0  0  0  0  0
   75.5684   42.9139   58.4669 C   0  0  0  0  0  0  0  0  0  0  0  0
   75.5199   44.1876   58.9697 C   0  0  0  0  0  0  0  0  0  0  0  0
 16 17  1  0
 17 18  2  0
 17 10  1  0
 10 11  2  0
 10 15  1  0
 11 12  1  0
 12 13  2  0
 13 14  1  0
 14  1  1  0
 14 15  2  0
  1  2  2  0
  1  6  1  0
  2  3  1  0
  3  4  2  0
  4  5  1  0
  5  6  2  0
  5  9  1  0
  6  7  1  0
  7  8  1  0
  8 19  1  6
  8  9  1  0
 19 20  2  0
 19 21  1  0
 21 22  1  0
 22 23  1  0
 23 24  2  0
 23 28  1  0
 24 25  1  0
 25 26  2  0
 26 27  1  0
 27 28  2  0
M  END
>  <minimizedAffinity>  (975) 
-8.93420

$$$$
data/200k_reference_output/data/smiles/85392.pdb
     RDKit          3D

 31 34  0  0  0  0  0  0  0  0999 V2000
   70.8007   45.8187   58.4685 C   0  0  0  0  0  0  0  0  0  0  0  0
   69.9692   46.4702   57.5616 C   0  0  0  0  0  0  0  0  0  0  0  0
   70.1058   47.8041   57.2396 C   0  0  0  0  0  0  0  0  0  0  0  0
   71.1347   48.5098   57.8656 C   0  0  0  0  0  0  0  0  0  0  0  0
   71.9654   47.8766   58.7659 C   0  0  0  0  0  0  0  0  0  0  0  0
   71.8088   46.5404   59.0736 C   0  0  0  0  0  0  0  0  0  0  0  0
   72.6153   45.9011   59.9549 F   0  0  0  0  0  0  0  0  0  0  0  0
   74.7323   41.9563   59.4211 C   0  0  0  0  0  0  0  0  0  0  0  0
   75.7534   42.5720   59.0226 O   0  0  0  0  0  0  0  0  0  0  0  0
   73.5863   41.9227   58.6131 N   0  0  0  0  0  0  0  0  0  0  0  0
   72.3577   41.2369   58.9893 C   0  0  0  0  0  0  0  0  0  0  0  0
   71.1379   42.0084   58.5916 C   0  0  0  0  0  0  0  0  0  0  0  0
   71.4303   43.3807   58.2477 N   0  0  0  0  0  0  0  0  0  0  0  0
   70.5909   44.4051   58.7554 C   0  0  0  0  0  0  0  0  0  0  0  0
   69.6133   44.1196   59.4901 O   0  0  0  0  0  0  0  0  0  0  0  0
   72.5595   43.7032   57.4022 C   0  0  0  0  0  0  0  0  0  0  0  0
   73.5849   42.5937   57.3316 C   0  0  0  0  0  0  0  0  0  0  0  0
   75.7900   40.1778   60.7334 C   0  0  0  0  0  0  0  0  0  0  0  0
   74.7653   41.2727   60.7534 C   0  0  0  0  0  0  0  0  0  0  0  0
   69.2463   48.4011   56.3269 O   0  0  0  0  0  0  0  0  0  0  0  0
   69.6216   48.4466   54.9961 C   0  0  0  0  0  0  0  0  0  0  0  0
   70.5687   49.2863   54.5427 N   0  0  0  0  0  0  0  0  0  0  0  0
   70.9358   49.3405   53.2839 N   0  0  0  0  0  0  0  0  0  0  0  0
   70.3791   48.5502   52.3595 C   0  0  0  0  0  0  0  0  0  0  0  0
   70.7232   48.5963   51.1633 O   0  0  0  0  0  0  0  0  0  0  0  0
   69.3882   47.6430   52.7270 C   0  0  0  0  0  0  0  0  0  0  0  0
   68.8253   46.8403   51.7841 C   0  0  0  0  0  0  0  0  0  0  0  0
   67.8309   45.9358   52.1712 C   0  0  0  0  0  0  0  0  0  0  0  0
   67.4697   45.9036   53.4988 C   0  0  0  0  0  0  0  0  0  0  0  0
   68.0456   46.7225   54.4488 C   0  0  0  0  0  0  0  0  0  0  0  0
   69.0270   47.6166   54.0731 C   0  0  0  0  0  0  0  0  0  0  0  0
 18 19  1  0
 19  8  1  0
  8  9  2  0
  8 10  1  0
 10 11  1  0
 10 17  1  0
 11 12  1  0
 12 13  1  0
 13 14  1  0
 13 16  1  0
 14 15  2  0
 14  1  1  0
  1  2  2  0
  1  6  1  0
  2  3  1  0
  3 20  1  0
  3  4  2  0
 20 21  1  0
 21 22  2  0
 21 31  1  0
 22 23  1  0
 23 24  1  0
 24 25  2  0
 24 26  1  0
 26 27  1  0
 26 31  2  0
 27 28  2  0
 28 29  1  0
 29 30  2  0
 30 31  1  0
  4  5  1  0
  5  6  2  0
  6  7  1  0
 16 17  1  0
M  END
>  <minimizedAffinity>  (976) 
-8.66886

$$$$
data/200k_reference_output/data/smiles/85644.pdb
     RDKit          3D

 20 21  0  0  0  0  0  0  0  0999 V2000
   71.5125   49.3731   53.5629 O   0  0  0  0  0  0  0  0  0  0  0  0
   70.2226   49.4962   53.4947 C   0  0  0  0  0  0  0  0  0  0  0  0
   69.4681   48.2993   53.1785 C   0  0  0  0  0  0  0  0  0  0  0  0
   68.6073   47.8010   54.1646 C   0  0  0  0  0  0  0  0  0  0  0  0
   67.8311   46.6964   53.9319 C   0  0  0  0  0  0  0  0  0  0  0  0
   67.9245   46.0929   52.6964 C   0  0  0  0  0  0  0  0  0  0  0  0
   67.1363   44.9608   52.4384 O   0  0  0  0  0  0  0  0  0  0  0  0
   68.7635   46.5656   51.7119 C   0  0  0  0  0  0  0  0  0  0  0  0
   69.5604   47.6983   51.9531 C   0  0  0  0  0  0  0  0  0  0  0  0
   70.3935   48.1496   50.9625 O   0  0  0  0  0  0  0  0  0  0  0  0
   69.7252   50.8375   53.7505 C   0  0  2  0  0  0  0  0  0  0  0  0
   70.5781   51.7288   53.0009 O   0  0  0  0  0  0  0  0  0  0  0  0
   69.9960   51.2771   55.1911 C   0  0  0  0  0  0  0  0  0  0  0  0
   68.9928   50.8325   56.1507 C   0  0  0  0  0  0  0  0  0  0  0  0
   67.8579   51.5767   56.4009 C   0  0  0  0  0  0  0  0  0  0  0  0
   66.9147   51.1533   57.3061 C   0  0  0  0  0  0  0  0  0  0  0  0
   67.1174   49.9755   57.9605 C   0  0  0  0  0  0  0  0  0  0  0  0
   66.1822   49.5250   58.8796 O   0  0  0  0  0  0  0  0  0  0  0  0
   68.2435   49.2101   57.7309 C   0  0  0  0  0  0  0  0  0  0  0  0
   69.1750   49.6305   56.8346 C   0  0  0  0  0  0  0  0  0  0  0  0
  1  2  2  0
  2  3  1  0
  2 11  1  0
  3  4  2  0
  3  9  1  0
  4  5  1  0
  5  6  2  0
  6  7  1  0
  6  8  1  0
  8  9  2  0
  9 10  1  0
 11 12  1  6
 11 13  1  0
 13 14  1  0
 14 15  2  0
 14 20  1  0
 15 16  1  0
 16 17  2  0
 17 18  1  0
 17 19  1  0
 19 20  2  0
M  END
>  <minimizedAffinity>  (977) 
-8.67289

$$$$
data/200k_reference_output/data/smiles/85881.pdb
     RDKit          3D

 24 26  0  0  0  0  0  0  0  0999 V2000
   68.6327   47.9091   56.4540 P   0  0  0  0  0  0  0  0  0  0  0  0
   67.2740   47.4685   56.9445 O   0  0  0  0  0  0  0  0  0  0  0  0
   69.4331   47.9692   52.4790 C   0  0  0  0  0  0  0  0  0  0  0  0
   68.9417   46.7480   52.0609 C   0  0  0  0  0  0  0  0  0  0  0  0
   68.3672   45.9039   52.9856 C   0  0  0  0  0  0  0  0  0  0  0  0
   68.2681   46.2547   54.3373 C   0  0  0  0  0  0  0  0  0  0  0  0
   67.6833   45.3790   55.2376 O   0  0  0  0  0  0  0  0  0  0  0  0
   68.7562   47.4642   54.7411 C   0  0  0  0  0  0  0  0  0  0  0  0
   69.3311   48.3127   53.8310 C   0  0  0  0  0  0  0  0  0  0  0  0
   70.7945   48.4723   50.6904 O   0  0  0  0  0  0  0  0  0  0  0  0
   70.0344   48.8800   51.5791 N   0  0  0  0  0  0  0  0  0  0  0  0
   69.7892   50.2208   51.6733 O   0  0  0  0  0  0  0  0  0  0  0  0
   68.8148   49.6605   56.7065 C   0  0  0  0  0  0  0  0  0  0  0  0
   69.9589   50.3398   56.3467 C   0  0  0  0  0  0  0  0  0  0  0  0
   70.0527   51.7117   56.5661 C   0  0  0  0  0  0  0  0  0  0  0  0
   69.0245   52.4290   57.1391 C   0  0  0  0  0  0  0  0  0  0  0  0
   67.8776   51.7483   57.4996 C   0  0  0  0  0  0  0  0  0  0  0  0
   67.7872   50.3789   57.2800 C   0  0  0  0  0  0  0  0  0  0  0  0
   69.8953   47.0911   57.4113 C   0  0  0  0  0  0  0  0  0  0  0  0
   69.9872   45.7191   57.3199 C   0  0  0  0  0  0  0  0  0  0  0  0
   70.9658   45.0405   58.0557 C   0  0  0  0  0  0  0  0  0  0  0  0
   71.8454   45.7138   58.8762 C   0  0  0  0  0  0  0  0  0  0  0  0
   71.7463   47.0827   58.9626 C   0  0  0  0  0  0  0  0  0  0  0  0
   70.7754   47.7549   58.2314 C   0  0  0  0  0  0  0  0  0  0  0  0
 10 11  2  0
 11 12  1  0
 11  3  1  0
  3  4  2  0
  3  9  1  0
  4  5  1  0
  5  6  2  0
  6  7  1  0
  6  8  1  0
  8  1  1  0
  8  9  2  0
  1  2  2  0
  1 13  1  0
  1 19  1  0
 13 14  2  0
 13 18  1  0
 14 15  1  0
 15 16  2  0
 16 17  1  0
 17 18  2  0
 19 20  2  0
 19 24  1  0
 20 21  1  0
 21 22  2  0
 22 23  1  0
 23 24  2  0
M  CHG  2  11   1  12  -1
M  END
>  <minimizedAffinity>  (978) 
-8.72466

$$$$
data/200k_reference_output/data/smiles/85961.pdb
     RDKit          3D

 29 32  0  0  0  0  0  0  0  0999 V2000
   66.6404   41.9013   56.8997 O   0  0  0  0  0  0  0  0  0  0  0  0
   67.8759   42.0702   57.0306 C   0  0  0  0  0  0  0  0  0  0  0  0
   68.6760   41.1938   57.7829 N   0  0  0  0  0  0  0  0  0  0  0  0
   68.4850   40.8770   58.9951 C   0  0  0  0  0  0  0  0  0  0  0  0
   67.1581   41.4647   60.0367 S   0  0  0  0  0  0  0  0  0  0  0  0
   67.6158   40.3798   61.4587 C   0  0  2  0  0  0  0  0  0  0  0  0
   67.3398   41.0149   62.7578 C   0  0  0  0  0  0  0  0  0  0  0  0
   68.6639   42.2220   62.8982 S   0  0  0  0  0  0  0  0  0  0  0  0
   69.4992   41.9249   64.0926 O   0  0  0  0  0  0  0  0  0  0  0  0
   68.1423   43.6062   62.8619 O   0  0  0  0  0  0  0  0  0  0  0  0
   69.5686   41.8179   61.3970 C   0  0  0  0  0  0  0  0  0  0  0  0
   69.1164   40.3633   61.2124 C   0  0  2  0  0  0  0  0  0  0  0  0
   69.2505   40.0036   59.8042 N   0  0  0  0  0  0  0  0  0  0  0  0
   70.0696   38.8966   59.3578 C   0  0  0  0  0  0  0  0  0  0  0  0
   69.8141   37.5997   59.7541 C   0  0  0  0  0  0  0  0  0  0  0  0
   70.5862   36.5352   59.3365 C   0  0  0  0  0  0  0  0  0  0  0  0
   71.6605   36.7460   58.4897 C   0  0  0  0  0  0  0  0  0  0  0  0
   72.3964   35.6790   58.0989 F   0  0  0  0  0  0  0  0  0  0  0  0
   71.9227   38.0392   58.0885 C   0  0  0  0  0  0  0  0  0  0  0  0
   71.1414   39.0978   58.5140 C   0  0  0  0  0  0  0  0  0  0  0  0
   71.3844   40.3784   58.1292 F   0  0  0  0  0  0  0  0  0  0  0  0
   68.5123   43.2263   56.3745 C   0  0  0  0  0  0  0  0  0  0  0  0
   67.6944   43.8893   55.4467 O   0  0  0  0  0  0  0  0  0  0  0  0
   68.0602   45.0848   54.8517 C   0  0  0  0  0  0  0  0  0  0  0  0
   68.6307   46.1023   55.6279 C   0  0  0  0  0  0  0  0  0  0  0  0
   69.0154   47.3130   55.1018 C   0  0  0  0  0  0  0  0  0  0  0  0
   68.8495   47.5776   53.7588 C   0  0  0  0  0  0  0  0  0  0  0  0
   68.2912   46.5948   52.9746 C   0  0  0  0  0  0  0  0  0  0  0  0
   67.9015   45.3661   53.5133 C   0  0  0  0  0  0  0  0  0  0  0  0
  1  2  2  0
  2 22  1  0
  2  3  1  0
 22 23  1  0
 23 24  1  0
 24 25  2  0
 24 29  1  0
 25 26  1  0
 26 27  2  0
 27 28  1  0
 28 29  2  0
  3  4  2  0
  4  5  1  0
  4 13  1  0
  5  6  1  0
  6  7  1  1
  6 12  1  0
  7  8  1  0
  8  9  2  0
  8 10  2  0
  8 11  1  0
 12 11  1  6
 12 13  1  0
 13 14  1  0
 14 15  2  0
 14 20  1  0
 15 16  1  0
 16 17  2  0
 17 18  1  0
 17 19  1  0
 19 20  2  0
 20 21  1  0
M  CHG  1   3   1
M  END
>  <minimizedAffinity>  (979) 
-8.58706

$$$$
data/200k_reference_output/data/smiles/86070.pdb
     RDKit          3D

 27 30  0  0  0  0  0  0  0  0999 V2000
   71.6331   47.0377   58.9550 C   0  0  0  0  0  0  0  0  0  0  0  0
   71.6561   45.6710   58.7823 C   0  0  0  0  0  0  0  0  0  0  0  0
   70.7919   45.0705   57.8998 C   0  0  0  0  0  0  0  0  0  0  0  0
   69.9007   45.8308   57.1844 C   0  0  0  0  0  0  0  0  0  0  0  0
   69.8286   47.2291   57.3167 C   0  0  0  0  0  0  0  0  0  0  0  0
   70.7081   47.7752   58.2046 C   0  0  0  0  0  0  0  0  0  0  0  0
   72.1724   47.8882   61.0711 O   0  0  0  0  0  0  0  0  0  0  0  0
   72.5124   47.7369   59.8827 C   0  0  0  0  0  0  0  0  0  0  0  0
   73.7329   48.2254   59.4084 N   0  0  0  0  0  0  0  0  0  0  0  0
   74.0507   48.0099   57.9839 C   0  0  0  0  0  0  0  0  0  0  0  0
   74.6223   49.2970   57.4803 C   0  0  0  0  0  0  0  0  0  0  0  0
   76.1201   49.4103   57.6357 C   0  0  0  0  0  0  0  0  0  0  0  0
   76.5442   49.5703   58.9956 N   0  0  0  0  0  0  0  0  0  0  0  0
   76.0578   48.6012   59.9182 C   0  0  0  0  0  0  0  0  0  0  0  0
   74.6188   48.9164   60.3429 C   0  0  0  0  0  0  0  0  0  0  0  0
   68.8382   47.9616   56.4927 C   0  0  0  0  0  0  0  0  0  0  0  0
   69.2543   48.1498   55.0866 C   0  0  0  0  0  0  0  0  0  0  0  0
   70.1973   49.0927   54.8022 N   0  0  0  0  0  0  0  0  0  0  0  0
   70.6510   49.2705   53.5824 N   0  0  0  0  0  0  0  0  0  0  0  0
   70.2440   48.5581   52.5167 C   0  0  0  0  0  0  0  0  0  0  0  0
   70.7111   48.7649   51.3595 O   0  0  0  0  0  0  0  0  0  0  0  0
   69.2797   47.5846   52.7629 C   0  0  0  0  0  0  0  0  0  0  0  0
   68.8292   46.8501   51.6806 C   0  0  0  0  0  0  0  0  0  0  0  0
   67.8602   45.8854   51.8610 C   0  0  0  0  0  0  0  0  0  0  0  0
   67.3879   45.7060   53.1411 C   0  0  0  0  0  0  0  0  0  0  0  0
   67.8355   46.4396   54.2300 C   0  0  0  0  0  0  0  0  0  0  0  0
   68.7987   47.3936   54.0383 C   0  0  0  0  0  0  0  0  0  0  0  0
  7  8  2  0
  8  1  1  0
  8  9  1  0
  1  2  2  0
  1  6  1  0
  2  3  1  0
  3  4  2  0
  4  5  1  0
  5 16  1  0
  5  6  2  0
 16 17  1  0
 17 18  2  0
 17 27  1  0
 18 19  1  0
 19 20  1  0
 20 21  2  0
 20 22  1  0
 22 23  1  0
 22 27  2  0
 23 24  2  0
 24 25  1  0
 25 26  2  0
 26 27  1  0
  9 10  1  0
  9 15  1  0
 10 11  1  0
 11 12  1  0
 12 13  1  0
 13 14  1  0
 14 15  1  0
M  CHG  1  13   1
M  END
>  <minimizedAffinity>  (980) 
-8.84367

$$$$
data/200k_reference_output/data/smiles/86101.pdb
     RDKit          3D

 28 30  0  0  0  0  0  0  0  0999 V2000
   68.2758   45.9447   53.9105 C   0  0  0  0  0  0  0  0  0  0  0  0
   67.6721   45.3718   52.8449 C   0  0  0  0  0  0  0  0  0  0  0  0
   67.7395   45.9489   51.5830 C   0  0  0  0  0  0  0  0  0  0  0  0
   68.4323   47.1393   51.3882 C   0  0  0  0  0  0  0  0  0  0  0  0
   69.0542   47.7510   52.4462 C   0  0  0  0  0  0  0  0  0  0  0  0
   68.9673   47.1495   53.6769 C   0  0  0  0  0  0  0  0  0  0  0  0
   67.9160   44.2274   55.4328 N   0  0  0  0  0  0  0  0  0  0  0  0
   68.3709   45.3952   55.2557 C   0  0  0  0  0  0  0  0  0  0  0  0
   68.9803   46.1068   56.3380 C   0  0  0  0  0  0  0  0  0  0  0  0
   68.7524   47.4402   56.5553 C   0  0  0  0  0  0  0  0  0  0  0  0
   69.4726   48.1845   57.4992 C   0  0  0  0  0  0  0  0  0  0  0  0
   70.4555   47.5704   58.2541 C   0  0  0  0  0  0  0  0  0  0  0  0
   71.1948   48.2592   59.2004 O   0  0  0  0  0  0  0  0  0  0  0  0
   70.7138   46.2388   58.0674 C   0  0  0  0  0  0  0  0  0  0  0  0
   69.9809   45.5254   57.1176 C   0  0  0  0  0  0  0  0  0  0  0  0
   67.8527   43.4001   56.4970 N   0  0  0  0  0  0  0  0  0  0  0  0
   66.3773   41.7440   55.3689 N   0  0  0  0  0  0  0  0  0  0  0  0
   67.3768   42.0587   56.3224 C   0  0  0  0  0  0  0  0  0  0  0  0
   67.9709   40.8339   57.2162 S   0  0  0  0  0  0  0  0  0  0  0  0
   69.7588   48.9974   52.2781 C   0  0  0  0  0  0  0  0  0  0  0  0
   70.2336   49.2283   51.1192 O   0  0  0  0  0  0  0  0  0  0  0  0
   69.9855   50.0132   53.2847 C   0  0  0  0  0  0  0  0  0  0  0  0
   71.1032   50.0808   54.0863 C   0  0  0  0  0  0  0  0  0  0  0  0
   71.2522   51.0814   55.0554 C   0  0  0  0  0  0  0  0  0  0  0  0
   70.2841   52.0429   55.2470 C   0  0  0  0  0  0  0  0  0  0  0  0
   70.4559   53.0258   56.2162 O   0  0  0  0  0  0  0  0  0  0  0  0
   69.1605   51.9888   54.4511 C   0  0  0  0  0  0  0  0  0  0  0  0
   69.0174   51.0022   53.4987 C   0  0  0  0  0  0  0  0  0  0  0  0
 17 18  1  0
 18 19  2  0
 18 16  1  0
 16  7  1  0
  7  8  2  0
  8  9  1  0
  8  1  1  0
  9 10  2  0
  9 15  1  0
 10 11  1  0
 11 12  2  0
 12 13  1  0
 12 14  1  0
 14 15  2  0
  1  2  2  0
  1  6  1  0
  2  3  1  0
  3  4  2  0
  4  5  1  0
  5 20  1  0
  5  6  2  0
 20 21  2  0
 20 22  1  0
 22 23  2  0
 22 28  1  0
 23 24  1  0
 24 25  2  0
 25 26  1  0
 25 27  1  0
 27 28  2  0
M  END
>  <minimizedAffinity>  (981) 
-9.38183

$$$$
data/200k_reference_output/data/smiles/86154.pdb
     RDKit          3D

 28 30  0  0  0  0  0  0  0  0999 V2000
   68.5218   46.6679   54.8944 C   0  0  0  0  0  0  0  0  0  0  0  0
   68.0636   46.1214   53.7040 C   0  0  0  0  0  0  0  0  0  0  0  0
   68.3736   46.6951   52.4889 C   0  0  0  0  0  0  0  0  0  0  0  0
   69.1537   47.8329   52.4698 C   0  0  0  0  0  0  0  0  0  0  0  0
   69.6244   48.4015   53.6203 C   0  0  0  0  0  0  0  0  0  0  0  0
   69.3087   47.8208   54.8279 C   0  0  0  0  0  0  0  0  0  0  0  0
   70.4563   49.6062   53.6447 C   0  0  0  0  0  0  0  0  0  0  0  0
   71.6798   49.5026   53.3096 O   0  0  0  0  0  0  0  0  0  0  0  0
   69.8863   50.8380   54.0352 N   0  0  0  0  0  0  0  0  0  0  0  0
   68.5431   51.1559   54.4421 C   0  0  0  0  0  0  0  0  0  0  0  0
   68.8296   51.9951   55.6956 C   0  0  1  0  0  0  0  0  0  0  0  0
   68.8134   51.0933   56.7646 O   0  0  0  0  0  0  0  0  0  0  0  0
   70.2326   52.5339   55.5173 C   0  0  2  0  0  0  0  0  0  0  0  0
   70.3128   53.8892   55.6559 F   0  0  0  0  0  0  0  0  0  0  0  0
   70.6162   52.0836   54.0989 C   0  0  0  0  0  0  0  0  0  0  0  0
   68.2324   46.1230   56.1298 O   0  0  0  0  0  0  0  0  0  0  0  0
   71.0124   46.2144   58.4896 C   0  0  0  0  0  0  0  0  0  0  0  0
   69.9812   46.6352   57.6815 C   0  0  0  0  0  0  0  0  0  0  0  0
   69.2824   45.6968   56.9534 C   0  0  0  0  0  0  0  0  0  0  0  0
   69.6009   44.3771   57.0272 N   0  0  0  0  0  0  0  0  0  0  0  0
   70.6000   43.9297   57.8050 C   0  0  0  0  0  0  0  0  0  0  0  0
   71.2981   44.8677   58.5326 C   0  0  0  0  0  0  0  0  0  0  0  0
   70.9444   42.4679   57.8809 C   0  0  0  0  0  0  0  0  0  0  0  0
   72.1242   42.2539   57.2227 F   0  0  0  0  0  0  0  0  0  0  0  0
   71.1203   42.1424   59.2137 F   0  0  0  0  0  0  0  0  0  0  0  0
   69.9088   41.6912   57.3958 F   0  0  0  0  0  0  0  0  0  0  0  0
   71.6757   46.9474   60.7133 N   0  0  0  0  0  0  0  0  0  0  0  0
   71.7960   47.1660   59.2901 C   0  0  0  0  0  0  0  0  0  0  0  0
 27 28  1  0
 28 17  1  0
 17 18  2  0
 17 22  1  0
 18 19  1  0
 19 16  1  0
 19 20  2  0
 16  1  1  0
  1  2  2  0
  1  6  1  0
  2  3  1  0
  3  4  2  0
  4  5  1  0
  5  7  1  0
  5  6  2  0
  7  8  2  0
  7  9  1  0
  9 10  1  0
  9 15  1  0
 10 11  1  0
 11 12  1  1
 11 13  1  0
 13 14  1  6
 13 15  1  0
 20 21  1  0
 21 23  1  0
 21 22  2  0
 23 24  1  0
 23 25  1  0
 23 26  1  0
M  CHG  1  27   1
M  END
>  <minimizedAffinity>  (982) 
-8.69965

$$$$
data/200k_reference_output/data/smiles/86183.pdb
     RDKit          3D

 28 31  0  0  0  0  0  0  0  0999 V2000
   72.7469   39.4484   58.8848 O   0  0  0  0  0  0  0  0  0  0  0  0
   71.7331   38.7026   58.5969 C   0  0  0  0  0  0  0  0  0  0  0  0
   70.4886   39.3647   58.5944 N   0  0  0  0  0  0  0  0  0  0  0  0
   69.2474   38.6686   58.3236 C   0  0  0  0  0  0  0  0  0  0  0  0
   68.0735   39.6000   58.6445 C   0  0  0  0  0  0  0  0  0  0  0  0
   68.2212   40.8194   57.8372 N   0  0  0  0  0  0  0  0  0  0  0  0
   67.4539   41.4817   57.0046 N   0  0  0  0  0  0  0  0  0  0  0  0
   68.1035   42.5391   56.4872 C   0  0  0  0  0  0  0  0  0  0  0  0
   69.3751   42.4830   57.0820 C   0  0  0  0  0  0  0  0  0  0  0  0
   69.4431   41.3995   57.9308 C   0  0  0  0  0  0  0  0  0  0  0  0
   70.4285   40.7837   58.8427 C   0  0  0  0  0  0  0  0  0  0  0  0
   71.9738   37.3064   58.3150 C   0  0  0  0  0  0  0  0  0  0  0  0
   72.4923   36.8048   57.2012 N   0  0  0  0  0  0  0  0  0  0  0  0
   72.6826   35.4887   56.9899 C   0  0  0  0  0  0  0  0  0  0  0  0
   72.3314   34.5661   57.9648 C   0  0  0  0  0  0  0  0  0  0  0  0
   72.5047   33.2433   57.7874 F   0  0  0  0  0  0  0  0  0  0  0  0
   71.7916   35.0473   59.1345 C   0  0  0  0  0  0  0  0  0  0  0  0
   71.6087   36.4076   59.3212 C   0  0  0  0  0  0  0  0  0  0  0  0
   71.0750   36.7965   60.5050 F   0  0  0  0  0  0  0  0  0  0  0  0
   67.6529   43.5753   55.5183 C   0  0  0  0  0  0  0  0  0  0  0  0
   68.1421   44.8634   55.8430 O   0  0  0  0  0  0  0  0  0  0  0  0
   68.3958   45.8632   54.9861 C   0  0  0  0  0  0  0  0  0  0  0  0
   68.9258   47.0740   55.4369 C   0  0  0  0  0  0  0  0  0  0  0  0
   69.1863   48.0968   54.5607 C   0  0  0  0  0  0  0  0  0  0  0  0
   68.9396   47.9765   53.2134 C   0  0  0  0  0  0  0  0  0  0  0  0
   68.4140   46.7789   52.7645 C   0  0  0  0  0  0  0  0  0  0  0  0
   68.1563   46.6092   51.4376 F   0  0  0  0  0  0  0  0  0  0  0  0
   68.1540   45.7567   53.6348 C   0  0  0  0  0  0  0  0  0  0  0  0
  1  2  2  0
  2 12  1  0
  2  3  1  0
 12 13  2  0
 12 18  1  0
 13 14  1  0
 14 15  2  0
 15 16  1  0
 15 17  1  0
 17 18  2  0
 18 19  1  0
  3  4  1  0
  3 11  1  0
  4  5  1  0
  5  6  1  0
  6  7  1  0
  6 10  1  0
  7  8  2  0
  8 20  1  0
  8  9  1  0
 20 21  1  0
 21 22  1  0
 22 23  2  0
 22 28  1  0
 23 24  1  0
 24 25  2  0
 25 26  1  0
 26 27  1  0
 26 28  2  0
  9 10  2  0
 10 11  1  0
M  END
>  <minimizedAffinity>  (983) 
-8.63352

$$$$
data/200k_reference_output/data/smiles/86231.pdb
     RDKit          3D

 26 28  0  0  0  0  0  0  0  0999 V2000
   66.9024   42.0382   55.7111 O   0  0  0  0  0  0  0  0  0  0  0  0
   67.6418   41.4757   56.5638 C   0  0  0  0  0  0  0  0  0  0  0  0
   67.4254   40.1204   56.9706 N   0  0  0  0  0  0  0  0  0  0  0  0
   68.2511   39.4699   57.9324 C   0  0  0  0  0  0  0  0  0  0  0  0
   67.9919   38.2799   58.2326 O   0  0  0  0  0  0  0  0  0  0  0  0
   69.3466   40.1420   58.5466 N   0  0  0  0  0  0  0  0  0  0  0  0
   69.5789   41.4898   58.1563 C   0  0  0  0  0  0  0  0  0  0  0  0
   70.5304   42.1735   58.6462 O   0  0  0  0  0  0  0  0  0  0  0  0
   68.7487   42.1851   57.1715 C   0  0  0  0  0  0  0  0  0  0  0  0
   68.9750   43.4441   56.8148 C   0  0  0  0  0  0  0  0  0  0  0  0
   70.2095   39.5210   59.5250 C   0  0  0  0  0  0  0  0  0  0  0  0
   70.8198   38.2788   59.0784 C   0  0  0  0  0  0  0  0  0  0  0  0
   71.6620   38.2174   57.9934 C   0  0  0  0  0  0  0  0  0  0  0  0
   72.2291   37.0121   57.5937 C   0  0  0  0  0  0  0  0  0  0  0  0
   71.9575   35.8498   58.2807 C   0  0  0  0  0  0  0  0  0  0  0  0
   72.5167   34.6531   57.8890 F   0  0  0  0  0  0  0  0  0  0  0  0
   71.1223   35.8956   59.3600 C   0  0  0  0  0  0  0  0  0  0  0  0
   70.5721   37.0989   59.7376 C   0  0  0  0  0  0  0  0  0  0  0  0
   68.1959   44.1461   55.8689 N   0  0  0  0  0  0  0  0  0  0  0  0
   68.2276   45.5325   55.7843 N   0  0  0  0  0  0  0  0  0  0  0  0
   68.4404   46.1929   54.5339 C   0  0  0  0  0  0  0  0  0  0  0  0
   67.9918   45.6483   53.3500 C   0  0  0  0  0  0  0  0  0  0  0  0
   68.1829   46.2638   52.1322 C   0  0  0  0  0  0  0  0  0  0  0  0
   68.8531   47.4836   52.0834 C   0  0  0  0  0  0  0  0  0  0  0  0
   69.3022   48.0295   53.2617 C   0  0  0  0  0  0  0  0  0  0  0  0
   69.1038   47.3990   54.4873 C   0  0  0  0  0  0  0  0  0  0  0  0
  1  2  2  0
  2  3  1  0
  2  9  1  0
  3  4  1  0
  4  5  2  0
  4  6  1  0
  6 11  1  0
  6  7  1  0
 11 12  1  0
 12 13  2  0
 12 18  1  0
 13 14  1  0
 14 15  2  0
 15 16  1  0
 15 17  1  0
 17 18  2  0
  7  8  2  0
  7  9  1  0
  9 10  2  0
 10 19  1  0
 19 20  1  0
 20 21  1  0
 21 22  2  0
 21 26  1  0
 22 23  1  0
 23 24  2  0
 24 25  1  0
 25 26  2  0
M  END
>  <minimizedAffinity>  (984) 
-9.26818

$$$$
data/200k_reference_output/data/smiles/86270.pdb
     RDKit          3D

 28 31  0  0  0  0  0  0  0  0999 V2000
   68.9632   44.6865   56.3247 C   0  0  0  0  0  0  0  0  0  0  0  0
   69.8303   44.1111   57.2233 C   0  0  0  0  0  0  0  0  0  0  0  0
   69.4754   42.7790   57.4122 C   0  0  0  0  0  0  0  0  0  0  0  0
   68.4144   42.5872   56.6305 N   0  0  0  0  0  0  0  0  0  0  0  0
   68.1013   43.7302   55.9736 N   0  0  0  0  0  0  0  0  0  0  0  0
   67.7593   41.3087   56.5601 C   0  0  0  0  0  0  0  0  0  0  0  0
   68.3207   40.2409   57.3858 C   0  0  0  0  0  0  0  0  0  0  0  0
   67.7890   39.0752   57.3720 O   0  0  0  0  0  0  0  0  0  0  0  0
   69.4412   40.4038   58.2250 N   0  0  0  0  0  0  0  0  0  0  0  0
   70.0261   41.6978   58.2348 C   0  0  0  0  0  0  0  0  0  0  0  0
   71.0247   41.9026   58.9620 O   0  0  0  0  0  0  0  0  0  0  0  0
   68.8701   48.6763   54.8164 C   0  0  0  0  0  0  0  0  0  0  0  0
   69.2699   48.4265   56.1099 C   0  0  0  0  0  0  0  0  0  0  0  0
   69.2986   47.1261   56.5951 C   0  0  0  0  0  0  0  0  0  0  0  0
   68.9330   46.0501   55.8159 C   0  0  0  0  0  0  0  0  0  0  0  0
   68.5345   46.3141   54.5217 C   0  0  0  0  0  0  0  0  0  0  0  0
   68.5048   47.6045   54.0324 C   0  0  0  0  0  0  0  0  0  0  0  0
   69.6443   50.4054   53.2538 C   0  0  0  0  0  0  0  0  0  0  0  0
   68.8373   49.9890   54.3124 O   0  0  0  0  0  0  0  0  0  0  0  0
   69.9060   39.2756   58.9975 C   0  0  0  0  0  0  0  0  0  0  0  0
   71.2634   38.8835   58.4210 C   0  0  0  0  0  0  0  0  0  0  0  0
   71.5183   37.4607   58.4501 C   0  0  0  0  0  0  0  0  0  0  0  0
   70.9877   36.6695   59.4390 C   0  0  0  0  0  0  0  0  0  0  0  0
   71.2281   35.2928   59.4747 C   0  0  0  0  0  0  0  0  0  0  0  0
   72.0107   34.7521   58.4926 C   0  0  0  0  0  0  0  0  0  0  0  0
   72.2608   33.4206   58.5023 F   0  0  0  0  0  0  0  0  0  0  0  0
   72.5634   35.5089   57.4818 C   0  0  0  0  0  0  0  0  0  0  0  0
   72.2971   36.8642   57.4883 C   0  0  0  0  0  0  0  0  0  0  0  0
 18 19  1  0
 19 12  1  0
 12 13  2  0
 12 17  1  0
 13 14  1  0
 14 15  2  0
 15  1  1  0
 15 16  1  0
  1  2  1  0
  1  5  2  0
  2  3  2  0
  3  4  1  0
  3 10  1  0
  4  5  1  0
  4  6  1  0
  6  7  1  0
  7  8  2  0
  7  9  1  0
  9 20  1  0
  9 10  1  0
 20 21  1  0
 21 22  1  0
 22 23  2  0
 22 28  1  0
 23 24  1  0
 24 25  2  0
 25 26  1  0
 25 27  1  0
 27 28  2  0
 10 11  2  0
 16 17  2  0
M  END
>  <minimizedAffinity>  (985) 
-8.89705

$$$$
data/200k_reference_output/data/smiles/86417.pdb
     RDKit          3D

 32 36  0  0  0  0  0  0  0  0999 V2000
   71.6041   47.1175   59.1012 C   0  0  0  0  0  0  0  0  0  0  0  0
   71.7144   45.7908   58.6816 C   0  0  0  0  0  0  0  0  0  0  0  0
   70.8387   45.2461   57.7702 C   0  0  0  0  0  0  0  0  0  0  0  0
   69.8147   45.9933   57.2342 C   0  0  0  0  0  0  0  0  0  0  0  0
   69.6772   47.3162   57.6320 C   0  0  0  0  0  0  0  0  0  0  0  0
   70.5664   47.8395   58.5462 C   0  0  0  0  0  0  0  0  0  0  0  0
   72.2630   47.5997   61.2742 O   0  0  0  0  0  0  0  0  0  0  0  0
   72.5307   47.7062   60.0561 C   0  0  0  0  0  0  0  0  0  0  0  0
   73.6890   48.3724   59.6076 N   0  0  0  0  0  0  0  0  0  0  0  0
   74.6392   48.9823   60.5211 C   0  0  0  0  0  0  0  0  0  0  0  0
   74.7626   50.4475   60.2157 C   0  0  0  0  0  0  0  0  0  0  0  0
   74.3295   50.7357   58.8939 N   0  0  0  0  0  0  0  0  0  0  0  0
   74.5384   49.7812   57.8260 C   0  0  0  0  0  0  0  0  0  0  0  0
   73.9153   48.4438   58.1711 C   0  0  0  0  0  0  0  0  0  0  0  0
   73.6796   51.9796   58.5645 C   0  0  0  0  0  0  0  0  0  0  0  0
   72.4243   52.0247   58.0062 C   0  0  0  0  0  0  0  0  0  0  0  0
   71.8562   53.2668   57.6996 C   0  0  0  0  0  0  0  0  0  0  0  0
   72.5367   54.4335   57.9493 C   0  0  0  0  0  0  0  0  0  0  0  0
   73.7846   54.3370   58.5071 C   0  0  0  0  0  0  0  0  0  0  0  0
   74.3048   53.1432   58.7897 N   0  0  0  0  0  0  0  0  0  0  0  0
   68.3834   48.3253   56.9629 S   0  0  0  0  0  0  0  0  0  0  0  0
   67.0804   47.6104   56.9589 O   0  0  0  0  0  0  0  0  0  0  0  0
   68.3568   49.5717   57.7757 O   0  0  0  0  0  0  0  0  0  0  0  0
   68.8621   48.7053   55.3502 N   0  0  0  0  0  0  0  0  0  0  0  0
   69.4297   49.9736   54.9310 C   0  0  0  0  0  0  0  0  0  0  0  0
   70.3770   49.5577   53.8285 C   0  0  0  0  0  0  0  0  0  0  0  0
   69.6798   48.3573   53.2649 C   0  0  0  0  0  0  0  0  0  0  0  0
   69.7949   47.7197   52.0493 C   0  0  0  0  0  0  0  0  0  0  0  0
   69.0367   46.6217   51.7683 C   0  0  0  0  0  0  0  0  0  0  0  0
   68.1328   46.1145   52.6862 C   0  0  0  0  0  0  0  0  0  0  0  0
   68.0249   46.7649   53.9072 C   0  0  0  0  0  0  0  0  0  0  0  0
   68.7848   47.8732   54.2007 C   0  0  0  0  0  0  0  0  0  0  0  0
  7  8  2  0
  8  1  1  0
  8  9  1  0
  1  2  2  0
  1  6  1  0
  2  3  1  0
  3  4  2  0
  4  5  1  0
  5 21  1  0
  5  6  2  0
 21 22  2  0
 21 23  2  0
 21 24  1  0
 24 25  1  0
 24 32  1  0
 25 26  1  0
 26 27  1  0
 27 28  1  0
 27 32  2  0
 28 29  2  0
 29 30  1  0
 30 31  2  0
 31 32  1  0
  9 10  1  0
  9 14  1  0
 10 11  1  0
 11 12  1  0
 12 15  1  0
 12 13  1  0
 15 16  2  0
 15 20  1  0
 16 17  1  0
 17 18  2  0
 18 19  1  0
 19 20  2  0
 13 14  1  0
M  END
>  <minimizedAffinity>  (986) 
-8.90236

$$$$
data/200k_reference_output/data/smiles/86467.pdb
     RDKit          3D

 33 37  0  0  0  0  0  0  0  0999 V2000
   71.9959   45.9914   59.4353 C   0  0  0  0  0  0  0  0  0  0  0  0
   72.2203   47.3417   59.4895 C   0  0  0  0  0  0  0  0  0  0  0  0
   71.3951   48.2377   58.8422 C   0  0  0  0  0  0  0  0  0  0  0  0
   70.2983   47.7826   58.1083 C   0  0  0  0  0  0  0  0  0  0  0  0
   70.1083   46.4188   58.0768 C   0  0  0  0  0  0  0  0  0  0  0  0
   70.9277   45.5159   58.7217 C   0  0  0  0  0  0  0  0  0  0  0  0
   72.8370   45.0485   61.3859 O   0  0  0  0  0  0  0  0  0  0  0  0
   72.8638   45.0354   60.1291 C   0  0  0  0  0  0  0  0  0  0  0  0
   73.6980   44.1353   59.4332 N   0  0  0  0  0  0  0  0  0  0  0  0
   73.7463   44.0894   57.9870 C   0  0  0  0  0  0  0  0  0  0  0  0
   73.6088   42.6368   57.5330 C   0  0  0  0  0  0  0  0  0  0  0  0
   73.2737   41.7859   58.6377 N   0  0  0  0  0  0  0  0  0  0  0  0
   74.0036   41.8251   59.8984 C   0  0  0  0  0  0  0  0  0  0  0  0
   74.5386   43.2233   60.1420 C   0  0  0  0  0  0  0  0  0  0  0  0
   72.1935   40.8913   58.5559 C   0  0  0  0  0  0  0  0  0  0  0  0
   72.3790   39.5161   58.7304 C   0  0  0  0  0  0  0  0  0  0  0  0
   71.3106   38.6460   58.6738 C   0  0  0  0  0  0  0  0  0  0  0  0
   70.0447   39.1368   58.4428 C   0  0  0  0  0  0  0  0  0  0  0  0
   69.8106   40.4964   58.2636 C   0  0  0  0  0  0  0  0  0  0  0  0
   70.9238   41.3273   58.3298 C   0  0  0  0  0  0  0  0  0  0  0  0
   69.3672   48.7163   57.4056 C   0  0  0  0  0  0  0  0  0  0  0  0
   69.3479   48.4310   55.9589 N   0  0  0  0  0  0  0  0  0  0  0  0
   70.1497   49.0753   55.0895 C   0  0  0  0  0  0  0  0  0  0  0  0
   70.9262   49.9620   55.4986 O   0  0  0  0  0  0  0  0  0  0  0  0
   70.1247   48.7725   53.7574 N   0  0  0  0  0  0  0  0  0  0  0  0
   69.3159   47.8362   53.2522 C   0  0  0  0  0  0  0  0  0  0  0  0
   69.2715   47.4974   51.8992 C   0  0  0  0  0  0  0  0  0  0  0  0
   68.4291   46.5204   51.4126 C   0  0  0  0  0  0  0  0  0  0  0  0
   67.5969   45.8459   52.2747 C   0  0  0  0  0  0  0  0  0  0  0  0
   67.6361   46.1786   53.6210 C   0  0  0  0  0  0  0  0  0  0  0  0
   68.4844   47.1628   54.1138 C   0  0  0  0  0  0  0  0  0  0  0  0
   68.5250   47.4823   55.4571 C   0  0  0  0  0  0  0  0  0  0  0  0
   67.7583   46.8608   56.2367 O   0  0  0  0  0  0  0  0  0  0  0  0
  7  8  2  0
  8  1  1  0
  8  9  1  0
  1  2  2  0
  1  6  1  0
  2  3  1  0
  3  4  2  0
  4 21  1  0
  4  5  1  0
 21 22  1  0
 22 23  1  0
 22 32  1  0
 23 24  2  0
 23 25  1  0
 25 26  1  0
 26 27  2  0
 26 31  1  0
 27 28  1  0
 28 29  2  0
 29 30  1  0
 30 31  2  0
 31 32  1  0
 32 33  2  0
  5  6  2  0
  9 10  1  0
  9 14  1  0
 10 11  1  0
 11 12  1  0
 12 15  1  0
 12 13  1  0
 15 16  2  0
 15 20  1  0
 16 17  1  0
 17 18  2  0
 18 19  1  0
 19 20  2  0
 13 14  1  0
M  END
>  <minimizedAffinity>  (987) 
-8.58327

$$$$
data/200k_reference_output/data/smiles/86528.pdb
     RDKit          3D

 26 29  0  0  0  0  0  0  0  0999 V2000
   74.1270   34.8766   55.2784 C   0  0  0  0  0  0  0  0  0  0  0  0
   73.1665   35.2013   54.4525 C   0  0  0  0  0  0  0  0  0  0  0  0
   73.1627   34.8858   53.0163 C   0  0  0  0  0  0  0  0  0  0  0  0
   72.1375   35.3694   52.2399 C   0  0  0  0  0  0  0  0  0  0  0  0
   72.0875   35.0969   50.8649 C   0  0  0  0  0  0  0  0  0  0  0  0
   73.0874   34.3367   50.3064 C   0  0  0  0  0  0  0  0  0  0  0  0
   74.0908   33.8643   51.0683 N   0  0  0  0  0  0  0  0  0  0  0  0
   74.1307   34.1338   52.4021 C   0  0  0  0  0  0  0  0  0  0  0  0
   75.1362   33.0637   50.4596 C   0  0  0  0  0  0  0  0  0  0  0  0
   76.0892   33.9957   49.7992 C   0  0  0  0  0  0  0  0  0  0  0  0
   76.8498   34.8658   50.5521 C   0  0  0  0  0  0  0  0  0  0  0  0
   77.7402   35.7393   49.9516 C   0  0  0  0  0  0  0  0  0  0  0  0
   77.9032   35.7729   48.5775 C   0  0  0  0  0  0  0  0  0  0  0  0
   77.1464   34.9058   47.8213 C   0  0  0  0  0  0  0  0  0  0  0  0
   76.2506   34.0286   48.4302 C   0  0  0  0  0  0  0  0  0  0  0  0
   75.1618   34.8547   57.3488 O   0  0  0  0  0  0  0  0  0  0  0  0
   74.1207   35.1884   56.6771 C   0  0  0  0  0  0  0  0  0  0  0  0
   73.0575   35.8454   57.4234 C   0  0  0  0  0  0  0  0  0  0  0  0
   72.3402   35.2852   58.4937 C   0  0  0  0  0  0  0  0  0  0  0  0
   71.4208   36.2028   58.9416 C   0  0  0  0  0  0  0  0  0  0  0  0
   70.4604   36.2317   59.9344 C   0  0  0  0  0  0  0  0  0  0  0  0
   69.6534   37.3242   60.1662 C   0  0  0  0  0  0  0  0  0  0  0  0
   69.8637   38.4122   59.3315 C   0  0  0  0  0  0  0  0  0  0  0  0
   70.8032   38.4177   58.3416 C   0  0  0  0  0  0  0  0  0  0  0  0
   71.6001   37.3172   58.1252 C   0  0  0  0  0  0  0  0  0  0  0  0
   72.5548   37.0397   57.2788 O   0  0  0  0  0  0  0  0  0  0  0  0
 16 17  2  0
 17  1  1  0
 17 18  1  0
  1  2  2  0
  2  3  1  0
  3  4  2  0
  3  8  1  0
  4  5  1  0
  5  6  2  0
  6  7  1  0
  7  9  1  0
  7  8  2  0
  9 10  1  0
 10 11  2  0
 10 15  1  0
 11 12  1  0
 12 13  2  0
 13 14  1  0
 14 15  2  0
 18 19  2  0
 18 26  1  0
 19 20  1  0
 20 21  2  0
 20 25  1  0
 21 22  1  0
 22 23  2  0
 23 24  1  0
 24 25  2  0
 25 26  1  0
M  CHG  1   7   1
M  END
>  <minimizedAffinity>  (988) 
-8.82439

$$$$
data/200k_reference_output/data/smiles/86598.pdb
     RDKit          3D

 30 33  0  0  0  0  0  0  0  0999 V2000
   71.6017   47.3871   58.9009 C   0  0  0  0  0  0  0  0  0  0  0  0
   70.8221   48.1708   58.0792 C   0  0  0  0  0  0  0  0  0  0  0  0
   69.9405   47.6093   57.1454 C   0  0  0  0  0  0  0  0  0  0  0  0
   69.8552   46.2439   57.0519 C   0  0  0  0  0  0  0  0  0  0  0  0
   70.6370   45.4221   57.8766 C   0  0  0  0  0  0  0  0  0  0  0  0
   71.4896   46.0169   58.7797 C   0  0  0  0  0  0  0  0  0  0  0  0
   72.2806   45.2732   59.6144 F   0  0  0  0  0  0  0  0  0  0  0  0
   77.9783   49.6092   56.9767 C   0  0  0  0  0  0  0  0  0  0  0  0
   77.6724   49.3259   58.3881 C   0  0  0  0  0  0  0  0  0  0  0  0
   78.5952   49.0306   59.1762 O   0  0  0  0  0  0  0  0  0  0  0  0
   76.3362   49.3933   58.8295 N   0  0  0  0  0  0  0  0  0  0  0  0
   75.2359   49.7357   57.9336 C   0  0  0  0  0  0  0  0  0  0  0  0
   74.0917   48.7457   58.1133 C   0  0  0  0  0  0  0  0  0  0  0  0
   73.7113   48.6343   59.5014 N   0  0  0  0  0  0  0  0  0  0  0  0
   72.5134   47.9785   59.8669 C   0  0  0  0  0  0  0  0  0  0  0  0
   72.2124   47.8976   61.0812 O   0  0  0  0  0  0  0  0  0  0  0  0
   74.5629   49.1975   60.5206 C   0  0  0  0  0  0  0  0  0  0  0  0
   76.0229   49.1146   60.2166 C   0  0  0  0  0  0  0  0  0  0  0  0
   69.1538   48.5621   56.2971 C   0  0  0  0  0  0  0  0  0  0  0  0
   69.5410   48.4630   54.8811 C   0  0  0  0  0  0  0  0  0  0  0  0
   70.6057   49.1977   54.4152 N   0  0  0  0  0  0  0  0  0  0  0  0
   70.9698   49.1633   53.1450 N   0  0  0  0  0  0  0  0  0  0  0  0
   70.3217   48.4104   52.2351 C   0  0  0  0  0  0  0  0  0  0  0  0
   70.6763   48.3857   51.0282 O   0  0  0  0  0  0  0  0  0  0  0  0
   69.2278   47.6360   52.6422 C   0  0  0  0  0  0  0  0  0  0  0  0
   68.8779   47.6953   53.9721 C   0  0  0  0  0  0  0  0  0  0  0  0
   67.7411   46.8473   54.3962 C   0  0  0  0  0  0  0  0  0  0  0  0
   67.9719   45.5005   53.6714 C   0  0  0  0  0  0  0  0  0  0  0  0
   67.7145   45.7064   52.2066 C   0  0  0  0  0  0  0  0  0  0  0  0
   68.5125   46.8337   51.6423 C   0  0  0  0  0  0  0  0  0  0  0  0
  8  9  1  0
  9 10  2  0
  9 11  1  0
 11 12  1  0
 11 18  1  0
 12 13  1  0
 13 14  1  0
 14 15  1  0
 14 17  1  0
 15 16  2  0
 15  1  1  0
  1  2  2  0
  1  6  1  0
  2  3  1  0
  3 19  1  0
  3  4  2  0
 19 20  1  0
 20 21  2  0
 20 26  1  0
 21 22  1  0
 22 23  1  0
 23 24  2  0
 23 25  1  0
 25 26  2  0
 25 30  1  0
 26 27  1  0
 27 28  1  0
 28 29  1  0
 29 30  1  0
  4  5  1  0
  5  6  2  0
  6  7  1  0
 17 18  1  0
M  END
>  <minimizedAffinity>  (989) 
-9.18254

$$$$
data/200k_reference_output/data/smiles/86601.pdb
     RDKit          3D

 31 34  0  0  0  0  0  0  0  0999 V2000
   70.1189   46.8396   57.9138 C   0  0  0  0  0  0  0  0  0  0  0  0
   69.8728   44.3389   57.8945 N   0  0  0  0  0  0  0  0  0  0  0  0
   70.4731   45.5593   58.6325 C   0  0  0  0  0  0  0  0  0  0  0  0
   71.0761   45.3692   59.5487 O   0  0  0  0  0  0  0  0  0  0  0  0
   70.5272   41.1459   57.9448 N   0  0  0  0  0  0  0  0  0  0  0  0
   71.3320   42.3025   57.8586 C   0  0  0  0  0  0  0  0  0  0  0  0
   70.2786   43.1094   58.5242 C   0  0  0  0  0  0  0  0  0  0  0  0
   69.3674   41.9222   58.2287 C   0  0  0  0  0  0  0  0  0  0  0  0
   71.5736   37.3835   59.3625 C   0  0  1  0  0  0  0  0  0  0  0  0
   72.3702   38.3460   58.5357 C   0  0  0  0  0  0  0  0  0  0  0  0
   72.1316   39.7209   59.1254 C   0  0  0  0  0  0  0  0  0  0  0  0
   70.7251   40.1441   58.9331 C   0  0  2  0  0  0  0  0  0  0  0  0
   69.8932   38.9449   58.4929 C   0  0  0  0  0  0  0  0  0  0  0  0
   70.0660   37.7421   59.3602 C   0  0  0  0  0  0  0  0  0  0  0  0
   71.8872   34.8130   58.6484 C   0  0  0  0  0  0  0  0  0  0  0  0
   71.7336   36.0174   58.9778 C   0  0  0  0  0  0  0  0  0  0  0  0
   68.8475   46.7121   57.2012 N   0  0  0  0  0  0  0  0  0  0  0  0
   68.7516   46.9691   55.8095 C   0  0  0  0  0  0  0  0  0  0  0  0
   68.0992   45.8573   55.0395 N   0  0  0  0  0  0  0  0  0  0  0  0
   68.1786   46.2419   53.7758 N   0  0  0  0  0  0  0  0  0  0  0  0
   67.7191   45.5053   52.5998 C   0  0  0  0  0  0  0  0  0  0  0  0
   68.7887   47.4449   53.6586 C   0  0  0  0  0  0  0  0  0  0  0  0
   69.0306   48.1285   52.5472 C   0  0  0  0  0  0  0  0  0  0  0  0
   69.7072   49.4388   52.6399 C   0  0  0  0  0  0  0  0  0  0  0  0
   69.9981   49.7763   53.9238 C   0  0  0  0  0  0  0  0  0  0  0  0
   69.7524   49.0791   55.0606 C   0  0  0  0  0  0  0  0  0  0  0  0
   69.0928   47.7999   54.9382 C   0  0  0  0  0  0  0  0  0  0  0  0
   70.6688   51.1614   54.1051 C   0  0  0  0  0  0  0  0  0  0  0  0
   70.3049   51.8347   52.9302 F   0  0  0  0  0  0  0  0  0  0  0  0
   72.0050   51.0237   54.2245 F   0  0  0  0  0  0  0  0  0  0  0  0
   70.1363   51.8270   55.1737 F   0  0  0  0  0  0  0  0  0  0  0  0
 15 16  3  0
  9 16  1  6
  9 10  1  0
  9 14  1  0
 10 11  1  0
 11 12  1  0
 12  5  1  6
 12 13  1  0
  5  6  1  0
  5  8  1  0
  6  7  1  0
  7  2  1  0
  7  8  1  0
  2  3  1  0
  3  4  2  0
  3  1  1  0
  1 17  1  0
 17 18  1  0
 18 19  2  0
 18 27  1  0
 19 20  1  0
 20 21  1  0
 20 22  1  0
 22 23  1  0
 22 27  2  0
 23 24  2  0
 24 25  1  0
 25 28  1  0
 25 26  2  0
 28 29  1  0
 28 30  1  0
 28 31  1  0
 26 27  1  0
 13 14  1  0
M  CHG  1   5   1
M  END
>  <minimizedAffinity>  (990) 
-8.73516

$$$$
data/200k_reference_output/data/smiles/86703.pdb
     RDKit          3D

 26 28  0  0  0  0  0  0  0  0999 V2000
   68.5046   44.8289   55.6089 N   0  0  0  0  0  0  0  0  0  0  0  0
   67.9781   45.1416   54.2906 C   0  0  0  0  0  0  0  0  0  0  0  0
   67.0796   44.3614   53.9475 O   0  0  0  0  0  0  0  0  0  0  0  0
   68.5313   46.2706   53.5595 C   0  0  0  0  0  0  0  0  0  0  0  0
   68.7684   46.1383   52.2168 N   0  0  0  0  0  0  0  0  0  0  0  0
   69.2646   47.1020   51.4802 N   0  0  0  0  0  0  0  0  0  0  0  0
   69.5859   48.3081   51.9718 C   0  0  0  0  0  0  0  0  0  0  0  0
   70.0657   49.2373   51.2523 O   0  0  0  0  0  0  0  0  0  0  0  0
   69.3673   48.5004   53.3250 C   0  0  0  0  0  0  0  0  0  0  0  0
   69.6873   49.7236   53.8513 C   0  0  0  0  0  0  0  0  0  0  0  0
   69.4746   49.9318   55.2042 C   0  0  0  0  0  0  0  0  0  0  0  0
   68.9537   48.9297   55.9958 C   0  0  0  0  0  0  0  0  0  0  0  0
   68.6274   47.6883   55.4704 C   0  0  0  0  0  0  0  0  0  0  0  0
   68.8341   47.4715   54.1275 C   0  0  0  0  0  0  0  0  0  0  0  0
   68.7058   42.7944   57.0044 C   0  0  0  0  0  0  0  0  0  0  0  0
   69.9508   43.0121   57.0280 O   0  0  0  0  0  0  0  0  0  0  0  0
   67.9402   43.7404   56.2633 N   0  0  0  0  0  0  0  0  0  0  0  0
   67.1449   39.3112   58.9353 C   0  0  0  0  0  0  0  0  0  0  0  0
   66.6944   40.5655   59.2852 C   0  0  0  0  0  0  0  0  0  0  0  0
   67.1886   41.7158   58.6699 C   0  0  0  0  0  0  0  0  0  0  0  0
   68.1350   41.6443   57.6990 C   0  0  0  0  0  0  0  0  0  0  0  0
   68.5884   40.3896   57.3455 C   0  0  0  0  0  0  0  0  0  0  0  0
   68.1050   39.2327   57.9511 C   0  0  0  0  0  0  0  0  0  0  0  0
   67.6383   37.5023   60.5665 C   0  0  0  0  0  0  0  0  0  0  0  0
   66.6236   38.0620   59.5877 C   0  0  0  0  0  0  0  0  0  0  0  0
   65.3772   38.3952   60.3636 C   0  0  0  0  0  0  0  0  0  0  0  0
 24 25  1  0
 25 26  1  0
 25 18  1  0
 18 19  2  0
 18 23  1  0
 19 20  1  0
 20 21  2  0
 21 15  1  0
 21 22  1  0
 15 16  2  0
 15 17  1  0
 17  1  1  0
  1  2  1  0
  2  3  2  0
  2  4  1  0
  4  5  2  0
  4 14  1  0
  5  6  1  0
  6  7  1  0
  7  8  2  0
  7  9  1  0
  9 10  1  0
  9 14  2  0
 10 11  2  0
 11 12  1  0
 12 13  2  0
 13 14  1  0
 22 23  2  0
M  END
>  <minimizedAffinity>  (991) 
-8.54969

$$$$
data/200k_reference_output/data/smiles/86806.pdb
     RDKit          3D

 27 29  0  0  0  0  0  0  0  0999 V2000
   68.4080   46.0363   54.0823 C   0  0  0  0  0  0  0  0  0  0  0  0
   67.9082   45.6526   52.8785 C   0  0  0  0  0  0  0  0  0  0  0  0
   68.0747   46.4356   51.7391 C   0  0  0  0  0  0  0  0  0  0  0  0
   68.7535   47.6220   51.8115 C   0  0  0  0  0  0  0  0  0  0  0  0
   69.2698   48.0386   53.0080 C   0  0  0  0  0  0  0  0  0  0  0  0
   69.0889   47.2357   54.1314 C   0  0  0  0  0  0  0  0  0  0  0  0
   67.7929   43.9093   55.3146 N   0  0  0  0  0  0  0  0  0  0  0  0
   68.2588   45.2495   55.3003 C   0  0  0  0  0  0  0  0  0  0  0  0
   68.5523   45.7569   56.4203 O   0  0  0  0  0  0  0  0  0  0  0  0
   67.4567   41.2241   55.4433 O   0  0  0  0  0  0  0  0  0  0  0  0
   67.4979   41.8007   56.5723 C   0  0  0  0  0  0  0  0  0  0  0  0
   67.6735   43.2065   56.5379 N   0  0  0  0  0  0  0  0  0  0  0  0
   67.3690   41.0294   57.8119 C   0  0  0  0  0  0  0  0  0  0  0  0
   66.6579   41.4598   58.9070 C   0  0  0  0  0  0  0  0  0  0  0  0
   66.5373   40.7440   60.0594 C   0  0  0  0  0  0  0  0  0  0  0  0
   67.1415   39.5279   60.1715 C   0  0  0  0  0  0  0  0  0  0  0  0
   67.8736   39.0553   59.0818 C   0  0  0  0  0  0  0  0  0  0  0  0
   67.9855   39.7939   57.9212 C   0  0  0  0  0  0  0  0  0  0  0  0
   70.1549   49.5489   53.1817 S   0  0  0  0  0  0  0  0  0  0  0  0
   71.6138   49.2184   53.0457 O   0  0  0  0  0  0  0  0  0  0  0  0
   69.7835   50.4578   52.0523 O   0  0  0  0  0  0  0  0  0  0  0  0
   69.9093   50.2881   54.6897 N   0  0  0  0  0  0  0  0  0  0  0  0
   71.0078   51.1397   55.0977 C   0  0  0  0  0  0  0  0  0  0  0  0
   70.6502   51.9825   56.3001 C   0  0  0  0  0  0  0  0  0  0  0  0
   69.4704   52.8904   56.0261 C   0  0  0  0  0  0  0  0  0  0  0  0
   68.9222   52.4611   54.6584 C   0  0  0  0  0  0  0  0  0  0  0  0
   68.6614   50.9840   54.7502 C   0  0  0  0  0  0  0  0  0  0  0  0
 10 11  2  0
 11 12  1  0
 11 13  1  0
 12  7  1  0
  7  8  1  0
  8  9  2  0
  8  1  1  0
  1  2  2  0
  1  6  1  0
  2  3  1  0
  3  4  2  0
  4  5  1  0
  5 19  1  0
  5  6  2  0
 19 20  2  0
 19 21  2  0
 19 22  1  0
 22 23  1  0
 22 27  1  0
 23 24  1  0
 24 25  1  0
 25 26  1  0
 26 27  1  0
 13 14  2  0
 13 18  1  0
 14 15  1  0
 15 16  2  0
 16 17  1  0
 17 18  2  0
M  END
>  <minimizedAffinity>  (992) 
-9.47724

$$$$
data/200k_reference_output/data/smiles/86889.pdb
     RDKit          3D

 25 28  0  0  0  0  0  0  0  0999 V2000
   73.3483   35.4580   55.8691 C   0  0  0  0  0  0  0  0  0  0  0  0
   74.6672   35.0875   55.9364 C   0  0  0  0  0  0  0  0  0  0  0  0
   75.4003   34.8062   54.7518 C   0  0  0  0  0  0  0  0  0  0  0  0
   74.8402   34.8939   53.6631 C   0  0  0  0  0  0  0  0  0  0  0  0
   73.4974   35.2627   53.4658 C   0  0  0  0  0  0  0  0  0  0  0  0
   72.6702   35.5653   54.5819 C   0  0  0  0  0  0  0  0  0  0  0  0
   71.1928   38.7178   58.5557 O   0  0  0  0  0  0  0  0  0  0  0  0
   71.4807   37.5328   58.3992 C   0  0  0  0  0  0  0  0  0  0  0  0
   72.2057   37.0947   57.3033 N   0  0  0  0  0  0  0  0  0  0  0  0
   72.5790   35.9207   57.0445 C   0  0  0  0  0  0  0  0  0  0  0  0
   72.2519   34.9250   57.9692 N   0  0  0  0  0  0  0  0  0  0  0  0
   71.5333   35.3185   59.0656 C   0  0  0  0  0  0  0  0  0  0  0  0
   71.1255   36.5379   59.3303 C   0  0  0  0  0  0  0  0  0  0  0  0
   70.2803   36.8909   60.4861 C   0  0  0  0  0  0  0  0  0  0  0  0
   70.1485   35.9183   61.4722 N   0  0  0  0  0  0  0  0  0  0  0  0
   70.8799   34.7231   61.4304 C   0  0  0  0  0  0  0  0  0  0  0  0
   71.2280   34.2137   60.0497 C   0  0  0  0  0  0  0  0  0  0  0  0
   75.5084   34.7695   52.3182 C   0  0  0  0  0  0  0  0  0  0  0  0
   76.0389   34.6699   51.2037 C   0  0  0  0  0  0  0  0  0  0  0  0
   76.6709   34.5459   49.8343 C   0  0  0  0  0  0  0  0  0  0  0  0
   76.2237   33.9761   48.8188 C   0  0  0  0  0  0  0  0  0  0  0  0
   76.6944   34.2275   47.5555 C   0  0  0  0  0  0  0  0  0  0  0  0
   77.6704   35.0736   47.2399 C   0  0  0  0  0  0  0  0  0  0  0  0
   78.2238   35.7538   48.4101 C   0  0  0  0  0  0  0  0  0  0  0  0
   77.7808   35.5475   49.7154 C   0  0  0  0  0  0  0  0  0  0  0  0
  7  8  2  0
  8  9  1  0
  8 13  1  0
  9 10  1  0
 10  1  1  0
 10 11  2  0
  1  2  2  0
  1  6  1  0
  2  3  1  0
  3  4  2  0
  4 18  1  0
  4  5  1  0
 18 19  3  0
 19 20  1  0
 20 21  2  0
 20 25  1  0
 21 22  1  0
 22 23  2  0
 23 24  1  0
 24 25  2  0
  5  6  2  0
 11 12  1  0
 12 13  2  0
 12 17  1  0
 13 14  1  0
 14 15  1  0
 15 16  1  0
 16 17  1  0
M  CHG  1  15   1
M  END
>  <minimizedAffinity>  (993) 
-8.72923

$$$$
data/200k_reference_output/data/smiles/86908.pdb
     RDKit          3D

 24 25  0  0  0  0  0  0  0  0999 V2000
   73.8625   50.6581   53.6679 O   0  0  0  0  0  0  0  0  0  0  0  0
   73.1066   50.6132   54.6458 C   0  0  0  0  0  0  0  0  0  0  0  0
   73.9536   50.3782   56.0961 N   0  0  0  0  0  0  0  0  0  0  0  0
   75.1837   50.0129   55.4682 C   0  0  0  0  0  0  0  0  0  0  0  0
   75.4138   49.3706   54.5436 O   0  0  0  0  0  0  0  0  0  0  0  0
   76.2944   50.6687   56.2813 N   0  0  0  0  0  0  0  0  0  0  0  0
   71.7358   50.7568   54.4004 C   0  0  0  0  0  0  0  0  0  0  0  0
   71.7391   49.4961   53.3336 O   0  0  0  0  0  0  0  0  0  0  0  0
   70.4662   49.2550   52.9896 C   0  0  0  0  0  0  0  0  0  0  0  0
   69.9008   50.2427   52.2304 O   0  0  0  0  0  0  0  0  0  0  0  0
   69.5311   48.1832   53.2274 C   0  0  0  0  0  0  0  0  0  0  0  0
   68.8649   47.9444   54.3527 C   0  0  0  0  0  0  0  0  0  0  0  0
   67.9722   46.8320   54.5811 C   0  0  0  0  0  0  0  0  0  0  0  0
   67.8976   46.0364   53.4871 C   0  0  0  0  0  0  0  0  0  0  0  0
   68.5280   46.1719   52.3143 C   0  0  0  0  0  0  0  0  0  0  0  0
   69.3344   47.2033   52.1525 C   0  0  0  0  0  0  0  0  0  0  0  0
   70.1030   47.4816   51.0018 O   0  0  0  0  0  0  0  0  0  0  0  0
   77.5851   50.8501   55.9208 C   0  0  0  0  0  0  0  0  0  0  0  0
   78.6019   50.2720   56.8725 C   0  0  0  0  0  0  0  0  0  0  0  0
   79.4593   49.3392   56.4007 C   0  0  0  0  0  0  0  0  0  0  0  0
   80.3165   48.6563   57.2875 C   0  0  0  0  0  0  0  0  0  0  0  0
   80.2968   48.9207   58.5924 C   0  0  0  0  0  0  0  0  0  0  0  0
   79.3875   49.9256   59.1762 C   0  0  0  0  0  0  0  0  0  0  0  0
   78.6348   50.4922   58.2053 C   0  0  0  0  0  0  0  0  0  0  0  0
  1  2  2  0
  2  7  1  0
  2  3  1  0
  7  8  1  0
  8  9  1  0
  9 10  2  0
  9 11  1  0
 11 12  2  0
 11 16  1  0
 12 13  1  0
 13 14  2  0
 14 15  1  0
 15 16  2  0
 16 17  1  0
  3  4  1  0
  4  5  2  0
  4  6  1  0
  6 18  1  0
 18 19  1  0
 19 20  2  0
 19 24  1  0
 20 21  1  0
 21 22  2  0
 22 23  1  0
 23 24  2  0
M  END
>  <minimizedAffinity>  (994) 
-9.31822

$$$$
data/200k_reference_output/data/smiles/86931.pdb
     RDKit          3D

 27 30  0  0  0  0  0  0  0  0999 V2000
   73.6780   34.9577   54.9937 C   0  0  0  0  0  0  0  0  0  0  0  0
   74.2643   33.5639   54.9502 C   0  0  0  0  0  0  0  0  0  0  0  0
   74.6883   33.2938   53.5119 C   0  0  0  0  0  0  0  0  0  0  0  0
   74.7913   34.4548   52.7470 N   0  0  0  0  0  0  0  0  0  0  0  0
   73.6677   35.2717   52.5815 C   0  0  0  0  0  0  0  0  0  0  0  0
   72.7602   35.1025   53.8079 C   0  0  0  0  0  0  0  0  0  0  0  0
   71.3729   37.1572   58.7926 C   0  0  0  0  0  0  0  0  0  0  0  0
   70.8919   36.6593   59.9847 C   0  0  0  0  0  0  0  0  0  0  0  0
   71.0114   35.3290   60.2976 C   0  0  0  0  0  0  0  0  0  0  0  0
   71.6091   34.4255   59.4531 C   0  0  0  0  0  0  0  0  0  0  0  0
   72.0985   34.9218   58.2437 C   0  0  0  0  0  0  0  0  0  0  0  0
   72.7190   34.3156   57.2267 N   0  0  0  0  0  0  0  0  0  0  0  0
   72.9942   35.2322   56.2783 C   0  0  0  0  0  0  0  0  0  0  0  0
   72.5409   36.4085   56.7149 N   0  0  0  0  0  0  0  0  0  0  0  0
   71.9750   36.2650   57.9322 C   0  0  0  0  0  0  0  0  0  0  0  0
   72.2881   39.5029   58.6286 N   0  0  0  0  0  0  0  0  0  0  0  0
   71.2369   38.5656   58.4790 C   0  0  0  0  0  0  0  0  0  0  0  0
   70.1399   39.0099   58.0505 O   0  0  0  0  0  0  0  0  0  0  0  0
   76.3010   35.0701   52.3849 S   0  0  0  0  0  0  0  0  0  0  0  0
   76.4259   36.5180   52.8369 O   0  0  0  0  0  0  0  0  0  0  0  0
   77.3590   34.2996   53.1244 O   0  0  0  0  0  0  0  0  0  0  0  0
   76.7128   35.0455   50.6891 C   0  0  0  0  0  0  0  0  0  0  0  0
   76.0745   34.2250   49.7860 C   0  0  0  0  0  0  0  0  0  0  0  0
   76.4128   34.2184   48.4505 C   0  0  0  0  0  0  0  0  0  0  0  0
   77.4096   35.0359   47.9570 C   0  0  0  0  0  0  0  0  0  0  0  0
   78.0574   35.8618   48.8463 C   0  0  0  0  0  0  0  0  0  0  0  0
   77.7119   35.8614   50.1815 C   0  0  0  0  0  0  0  0  0  0  0  0
 16 17  1  0
 17 18  2  0
 17  7  1  0
  7  8  2  0
  7 15  1  0
  8  9  1  0
  9 10  2  0
 10 11  1  0
 11 12  1  0
 11 15  2  0
 12 13  1  0
 13  1  1  0
 13 14  2  0
  1  2  1  0
  1  6  1  0
  2  3  1  0
  3  4  1  0
  4 19  1  0
  4  5  1  0
 19 20  2  0
 19 21  2  0
 19 22  1  0
 22 23  2  0
 22 27  1  0
 23 24  1  0
 24 25  2  0
 25 26  1  0
 26 27  2  0
  5  6  1  0
 14 15  1  0
M  CHG  1  14   1
M  END
>  <minimizedAffinity>  (995) 
-8.53166

$$$$
data/200k_reference_output/data/smiles/86957.pdb
     RDKit          3D

 30 33  0  0  0  0  0  0  0  0999 V2000
   71.9611   47.9712   58.8453 C   0  0  0  0  0  0  0  0  0  0  0  0
   70.6996   48.1417   58.3156 C   0  0  0  0  0  0  0  0  0  0  0  0
   70.4282   48.9410   57.2447 C   0  0  0  0  0  0  0  0  0  0  0  0
   71.5245   49.6141   56.6717 C   0  0  0  0  0  0  0  0  0  0  0  0
   72.7944   49.4742   57.1633 C   0  0  0  0  0  0  0  0  0  0  0  0
   73.0075   48.6442   58.2601 C   0  0  0  0  0  0  0  0  0  0  0  0
   74.2924   48.5417   58.7066 F   0  0  0  0  0  0  0  0  0  0  0  0
   71.8341   43.1095   59.8093 C   0  0  0  0  0  0  0  0  0  0  0  0
   72.0265   43.8012   61.1245 C   0  0  0  0  0  0  0  0  0  0  0  0
   72.9557   44.9872   61.0588 C   0  0  0  0  0  0  0  0  0  0  0  0
   72.6845   45.7742   59.8677 N   0  0  0  0  0  0  0  0  0  0  0  0
   72.2581   47.1114   59.9829 C   0  0  0  0  0  0  0  0  0  0  0  0
   72.1298   47.5796   61.1665 O   0  0  0  0  0  0  0  0  0  0  0  0
   72.8861   45.0781   58.6141 C   0  0  0  0  0  0  0  0  0  0  0  0
   72.7011   43.6006   58.6961 C   0  0  0  0  0  0  0  0  0  0  0  0
   69.5488   44.1029   59.5930 N   0  0  0  0  0  0  0  0  0  0  0  0
   70.4096   42.9997   59.4260 C   0  0  0  0  0  0  0  0  0  0  0  0
   69.9623   41.9362   58.9553 O   0  0  0  0  0  0  0  0  0  0  0  0
   69.0955   49.1644   56.6307 C   0  0  0  0  0  0  0  0  0  0  0  0
   68.7478   48.0381   55.7808 C   0  0  0  0  0  0  0  0  0  0  0  0
   68.3826   46.8816   56.4197 N   0  0  0  0  0  0  0  0  0  0  0  0
   68.0768   45.7714   55.7719 N   0  0  0  0  0  0  0  0  0  0  0  0
   68.0968   45.6750   54.4108 C   0  0  0  0  0  0  0  0  0  0  0  0
   67.7971   44.5933   53.8496 O   0  0  0  0  0  0  0  0  0  0  0  0
   68.4545   46.8025   53.7206 C   0  0  0  0  0  0  0  0  0  0  0  0
   68.7685   47.9529   54.4277 C   0  0  0  0  0  0  0  0  0  0  0  0
   69.0977   49.1236   53.6104 C   0  0  0  0  0  0  0  0  0  0  0  0
   70.1499   48.7369   52.5967 C   0  0  0  0  0  0  0  0  0  0  0  0
   69.9201   47.4109   51.9566 C   0  0  0  0  0  0  0  0  0  0  0  0
   68.5282   46.8441   52.2460 C   0  0  0  0  0  0  0  0  0  0  0  0
 16 17  1  0
 17 18  2  0
 17  8  1  0
  8  9  1  0
  8 15  1  0
  9 10  1  0
 10 11  1  0
 11 12  1  0
 11 14  1  0
 12 13  2  0
 12  1  1  0
  1  2  2  0
  1  6  1  0
  2  3  1  0
  3 19  1  0
  3  4  2  0
 19 20  1  0
 20 21  2  0
 20 26  1  0
 21 22  1  0
 22 23  1  0
 23 24  2  0
 23 25  1  0
 25 26  2  0
 25 30  1  0
 26 27  1  0
 27 28  1  0
 28 29  1  0
 29 30  1  0
  4  5  1  0
  5  6  2  0
  6  7  1  0
 14 15  1  0
M  END
>  <minimizedAffinity>  (996) 
-8.57419

$$$$
data/200k_reference_output/data/smiles/87025.pdb
     RDKit          3D

 28 31  0  0  0  0  0  0  0  0999 V2000
   68.7157   43.4608   56.8515 C   0  0  0  0  0  0  0  0  0  0  0  0
   69.5361   44.2304   57.5875 N   0  0  0  0  0  0  0  0  0  0  0  0
   70.3152   43.7191   58.5554 C   0  0  0  0  0  0  0  0  0  0  0  0
   70.2825   42.3906   58.8077 N   0  0  0  0  0  0  0  0  0  0  0  0
   69.4914   41.5605   58.1174 C   0  0  0  0  0  0  0  0  0  0  0  0
   68.6973   42.1107   57.1245 C   0  0  0  0  0  0  0  0  0  0  0  0
   67.8007   41.2680   56.3212 C   0  0  0  0  0  0  0  0  0  0  0  0
   67.0765   41.7526   55.4205 O   0  0  0  0  0  0  0  0  0  0  0  0
   67.8144   39.8753   56.6405 N   0  0  0  0  0  0  0  0  0  0  0  0
   68.2563   39.4199   57.9190 C   0  0  0  0  0  0  0  0  0  0  0  0
   69.4910   40.1269   58.4283 C   0  0  0  0  0  0  0  0  0  0  0  0
   71.2101   44.5788   59.3517 C   0  0  0  0  0  0  0  0  0  0  0  0
   71.3755   45.9080   59.0284 C   0  0  0  0  0  0  0  0  0  0  0  0
   72.2239   46.7235   59.7833 C   0  0  0  0  0  0  0  0  0  0  0  0
   72.9136   46.2204   60.8649 C   0  0  0  0  0  0  0  0  0  0  0  0
   72.7325   44.8867   61.1697 C   0  0  0  0  0  0  0  0  0  0  0  0
   71.8847   44.0653   60.4193 C   0  0  0  0  0  0  0  0  0  0  0  0
   67.8777   43.9545   55.8240 N   0  0  0  0  0  0  0  0  0  0  0  0
   68.7597   47.5453   53.7031 C   0  0  0  0  0  0  0  0  0  0  0  0
   68.2249   46.4439   53.0663 C   0  0  0  0  0  0  0  0  0  0  0  0
   67.9426   45.2843   53.7608 C   0  0  0  0  0  0  0  0  0  0  0  0
   68.1747   45.1611   55.1133 C   0  0  0  0  0  0  0  0  0  0  0  0
   68.7096   46.2638   55.7460 C   0  0  0  0  0  0  0  0  0  0  0  0
   68.9930   47.4246   55.0570 C   0  0  0  0  0  0  0  0  0  0  0  0
   69.0604   48.7893   52.9486 C   0  0  0  0  0  0  0  0  0  0  0  0
   71.4116   49.0303   52.7901 O   0  0  0  0  0  0  0  0  0  0  0  0
   70.3504   48.6432   52.2434 C   0  0  0  0  0  0  0  0  0  0  0  0
   70.4649   48.0892   50.9798 O   0  0  0  0  0  0  0  0  0  0  0  0
 26 27  2  0
 27 28  1  0
 27 25  1  0
 25 19  1  0
 19 20  2  0
 19 24  1  0
 20 21  1  0
 21 22  2  0
 22 18  1  0
 22 23  1  0
 18  1  1  0
  1  2  2  0
  1  6  1  0
  2  3  1  0
  3 12  1  0
  3  4  2  0
 12 13  2  0
 12 17  1  0
 13 14  1  0
 14 15  2  0
 15 16  1  0
 16 17  2  0
  4  5  1  0
  5  6  2  0
  5 11  1  0
  6  7  1  0
  7  8  2  0
  7  9  1  0
  9 10  1  0
 10 11  1  0
 23 24  2  0
M  END
>  <minimizedAffinity>  (997) 
-9.65360

$$$$
data/200k_reference_output/data/smiles/87028.pdb
     RDKit          3D

 27 29  0  0  0  0  0  0  0  0999 V2000
   69.0575   42.8114   57.3102 C   0  0  0  0  0  0  0  0  0  0  0  0
   67.8636   42.4247   57.5151 O   0  0  0  0  0  0  0  0  0  0  0  0
   69.2225   44.0406   56.6661 N   0  0  0  0  0  0  0  0  0  0  0  0
   73.8909   42.7337   58.2068 C   0  0  0  0  0  0  0  0  0  0  0  0
   72.5914   42.0141   58.1576 C   0  0  0  0  0  0  0  0  0  0  0  0
   71.4344   42.6382   57.7986 C   0  0  0  0  0  0  0  0  0  0  0  0
   70.1795   42.0007   57.7366 C   0  0  0  0  0  0  0  0  0  0  0  0
   70.1737   40.6803   58.0647 C   0  0  0  0  0  0  0  0  0  0  0  0
   69.0071   39.9830   58.0592 F   0  0  0  0  0  0  0  0  0  0  0  0
   71.3302   39.9763   58.4430 C   0  0  0  0  0  0  0  0  0  0  0  0
   72.5006   40.6697   58.4757 C   0  0  0  0  0  0  0  0  0  0  0  0
   71.2212   38.5904   58.7685 N   0  0  0  0  0  0  0  0  0  0  0  0
   71.8064   37.5767   58.1364 C   0  0  0  0  0  0  0  0  0  0  0  0
   71.4627   36.3813   58.7448 C   0  0  0  0  0  0  0  0  0  0  0  0
   70.6320   36.7330   59.7850 C   0  0  0  0  0  0  0  0  0  0  0  0
   70.5169   38.0638   59.7599 N   0  0  0  0  0  0  0  0  0  0  0  0
   68.2982   44.9212   56.2079 N   0  0  0  0  0  0  0  0  0  0  0  0
   68.6429   46.5290   55.9402 S   0  0  0  0  0  0  0  0  0  0  0  0
   67.4604   47.3366   56.4905 O   0  0  0  0  0  0  0  0  0  0  0  0
   69.8147   47.0131   56.8051 O   0  0  0  0  0  0  0  0  0  0  0  0
   68.8831   47.0268   54.2985 C   0  0  0  0  0  0  0  0  0  0  0  0
   69.5291   48.1958   53.9967 C   0  0  0  0  0  0  0  0  0  0  0  0
   69.6903   48.6111   52.6909 C   0  0  0  0  0  0  0  0  0  0  0  0
   69.1982   47.8515   51.6502 C   0  0  0  0  0  0  0  0  0  0  0  0
   68.5489   46.6794   51.9433 C   0  0  0  0  0  0  0  0  0  0  0  0
   68.3903   46.2662   53.2618 C   0  0  0  0  0  0  0  0  0  0  0  0
   67.7404   45.0984   53.4878 F   0  0  0  0  0  0  0  0  0  0  0  0
  4  5  1  0
  5  6  2  0
  5 11  1  0
  6  7  1  0
  7  1  1  0
  7  8  2  0
  1  2  2  0
  1  3  1  0
  3 17  1  0
 17 18  1  0
 18 19  2  0
 18 20  2  0
 18 21  1  0
 21 22  2  0
 21 26  1  0
 22 23  1  0
 23 24  2  0
 24 25  1  0
 25 26  2  0
 26 27  1  0
  8  9  1  0
  8 10  1  0
 10 12  1  0
 10 11  2  0
 12 13  1  0
 12 16  1  0
 13 14  2  0
 14 15  1  0
 15 16  2  0
M  END
>  <minimizedAffinity>  (998) 
-9.29235

$$$$
data/200k_reference_output/data/smiles/87045.pdb
     RDKit          3D

 28 30  0  0  0  0  0  0  0  0999 V2000
   68.2320   46.1739   54.0457 C   0  0  0  0  0  0  0  0  0  0  0  0
   68.1850   45.9820   52.6482 C   0  0  0  0  0  0  0  0  0  0  0  0
   68.7445   46.8601   51.7589 C   0  0  0  0  0  0  0  0  0  0  0  0
   69.3843   47.9846   52.2175 C   0  0  0  0  0  0  0  0  0  0  0  0
   69.4636   48.2306   53.5744 C   0  0  0  0  0  0  0  0  0  0  0  0
   68.8848   47.3162   54.4352 C   0  0  0  0  0  0  0  0  0  0  0  0
   70.1499   49.4332   54.0231 C   0  0  0  0  0  0  0  0  0  0  0  0
   71.3441   49.6207   53.6042 O   0  0  0  0  0  0  0  0  0  0  0  0
   69.5402   50.3770   54.8908 N   0  0  0  0  0  0  0  0  0  0  0  0
   70.3235   51.5304   55.2651 C   0  0  2  0  0  0  0  0  0  0  0  0
   70.9984   51.3419   56.6217 C   0  0  0  0  0  0  0  0  0  0  0  0
   71.3921   52.7689   56.9466 C   0  0  0  0  0  0  0  0  0  0  0  0
   70.5176   53.6703   56.1392 C   0  0  0  0  0  0  0  0  0  0  0  0
   69.4654   52.7378   55.5772 C   0  0  2  0  0  0  0  0  0  0  0  0
   68.6060   52.3931   56.6131 O   0  0  0  0  0  0  0  0  0  0  0  0
   67.6413   45.2337   54.8275 O   0  0  0  0  0  0  0  0  0  0  0  0
   68.3782   42.2246   56.7151 C   0  0  0  0  0  0  0  0  0  0  0  0
   67.8203   43.1011   55.8293 C   0  0  0  0  0  0  0  0  0  0  0  0
   68.2638   44.4441   55.7444 C   0  0  0  0  0  0  0  0  0  0  0  0
   69.2495   44.7797   56.5810 N   0  0  0  0  0  0  0  0  0  0  0  0
   69.8351   43.9668   57.4704 C   0  0  0  0  0  0  0  0  0  0  0  0
   69.3877   42.6609   57.5370 C   0  0  0  0  0  0  0  0  0  0  0  0
   70.9329   44.4330   58.3665 C   0  0  0  0  0  0  0  0  0  0  0  0
   72.1637   44.1475   57.8321 F   0  0  0  0  0  0  0  0  0  0  0  0
   70.8099   45.8025   58.4873 F   0  0  0  0  0  0  0  0  0  0  0  0
   70.7978   43.8502   59.6333 F   0  0  0  0  0  0  0  0  0  0  0  0
   67.5843   40.3412   55.4570 N   0  0  0  0  0  0  0  0  0  0  0  0
   67.8836   40.7979   56.7825 C   0  0  0  0  0  0  0  0  0  0  0  0
 27 28  1  0
 28 17  1  0
 17 18  2  0
 17 22  1  0
 18 19  1  0
 19 16  1  0
 19 20  2  0
 16  1  1  0
  1  2  2  0
  1  6  1  0
  2  3  1  0
  3  4  2  0
  4  5  1  0
  5  7  1  0
  5  6  2  0
  7  8  2  0
  7  9  1  0
 10  9  1  1
 10 11  1  0
 10 14  1  0
 11 12  1  0
 12 13  1  0
 13 14  1  0
 14 15  1  1
 20 21  1  0
 21 23  1  0
 21 22  2  0
 23 24  1  0
 23 25  1  0
 23 26  1  0
M  CHG  1  27   1
M  END
>  <minimizedAffinity>  (999) 
-9.25091

$$$$
data/200k_reference_output/data/smiles/87116.pdb
     RDKit          3D

 19 20  0  0  0  0  0  0  0  0999 V2000
   69.2462   47.7854   52.6936 C   0  0  0  0  0  0  0  0  0  0  0  0
   69.3617   47.6944   54.0554 C   0  0  0  0  0  0  0  0  0  0  0  0
   68.7404   46.7635   54.7937 N   0  0  0  0  0  0  0  0  0  0  0  0
   67.9632   45.8765   54.1519 C   0  0  0  0  0  0  0  0  0  0  0  0
   67.7783   45.8799   52.7749 C   0  0  0  0  0  0  0  0  0  0  0  0
   66.9713   44.9543   52.1266 O   0  0  0  0  0  0  0  0  0  0  0  0
   68.4474   46.8704   52.0479 C   0  0  0  0  0  0  0  0  0  0  0  0
   68.2873   46.8835   50.7998 O   0  0  0  0  0  0  0  0  0  0  0  0
   70.6103   48.4982   50.9102 O   0  0  0  0  0  0  0  0  0  0  0  0
   69.9287   48.8006   51.9220 C   0  0  0  0  0  0  0  0  0  0  0  0
   69.8781   50.1561   52.2426 O   0  0  0  0  0  0  0  0  0  0  0  0
   68.9154   46.7358   56.2301 C   0  0  0  0  0  0  0  0  0  0  0  0
   69.5702   48.0406   56.6232 C   0  0  0  0  0  0  0  0  0  0  0  0
   68.5996   49.1052   56.9267 C   0  0  0  0  0  0  0  0  0  0  0  0
   68.7448   50.4046   56.4718 C   0  0  0  0  0  0  0  0  0  0  0  0
   67.8276   51.3943   56.7635 C   0  0  0  0  0  0  0  0  0  0  0  0
   66.7128   51.1300   57.5304 C   0  0  0  0  0  0  0  0  0  0  0  0
   66.5632   49.8369   57.9855 C   0  0  0  0  0  0  0  0  0  0  0  0
   67.4816   48.8468   57.6944 C   0  0  0  0  0  0  0  0  0  0  0  0
  9 10  2  0
 10 11  1  0
 10  1  1  0
  1  2  2  0
  1  7  1  0
  2  3  1  0
  3 12  1  0
  3  4  1  0
 12 13  1  0
 13 14  1  0
 14 15  2  0
 14 19  1  0
 15 16  1  0
 16 17  2  0
 17 18  1  0
 18 19  2  0
  4  5  2  0
  5  6  1  0
  5  7  1  0
  7  8  2  0
M  END
>  <minimizedAffinity>  (1000) 
-8.67917

$$$$
data/200k_reference_output/data/smiles/87247.pdb
     RDKit          3D

 28 30  0  0  0  0  0  0  0  0999 V2000
   69.3336   47.0575   56.7507 C   0  0  0  0  0  0  0  0  0  0  0  0
   69.8893   48.2295   57.2812 C   0  0  0  0  0  0  0  0  0  0  0  0
   69.3311   49.3903   56.8606 F   0  0  0  0  0  0  0  0  0  0  0  0
   70.9227   48.2076   58.1609 C   0  0  0  0  0  0  0  0  0  0  0  0
   71.4564   46.9998   58.5577 C   0  0  0  0  0  0  0  0  0  0  0  0
   70.9377   45.8279   58.0585 C   0  0  0  0  0  0  0  0  0  0  0  0
   69.8711   45.8757   57.1516 C   0  0  0  0  0  0  0  0  0  0  0  0
   69.4043   44.6706   56.7242 F   0  0  0  0  0  0  0  0  0  0  0  0
   67.0705   47.5112   56.2218 O   0  0  0  0  0  0  0  0  0  0  0  0
   68.2160   47.1268   55.8306 C   0  0  0  0  0  0  0  0  0  0  0  0
   68.3426   46.7644   54.4300 C   0  0  0  0  0  0  0  0  0  0  0  0
   67.8509   45.6796   53.7365 C   0  0  0  0  0  0  0  0  0  0  0  0
   68.2465   45.7371   52.4607 N   0  0  0  0  0  0  0  0  0  0  0  0
   68.9959   46.8378   52.2795 C   0  0  0  0  0  0  0  0  0  0  0  0
   69.6450   47.4008   51.2443 N   0  0  0  0  0  0  0  0  0  0  0  0
   70.3500   48.5409   51.3126 C   0  0  0  0  0  0  0  0  0  0  0  0
   70.4293   49.1865   52.4841 N   0  0  0  0  0  0  0  0  0  0  0  0
   69.7903   48.6632   53.5727 C   0  0  0  0  0  0  0  0  0  0  0  0
   69.0733   47.4950   53.4849 C   0  0  0  0  0  0  0  0  0  0  0  0
   71.4694   44.5805   58.4581 N   0  0  0  0  0  0  0  0  0  0  0  0
   70.8039   43.6997   59.7621 S   0  0  0  0  0  0  0  0  0  0  0  0
   71.2873   44.2484   61.0691 O   0  0  0  0  0  0  0  0  0  0  0  0
   69.2769   43.7712   59.7163 O   0  0  0  0  0  0  0  0  0  0  0  0
   71.2926   42.0022   59.6248 C   0  0  0  0  0  0  0  0  0  0  0  0
   71.2645   41.6208   58.1589 C   0  0  0  0  0  0  0  0  0  0  0  0
   70.1243   42.0890   57.5443 F   0  0  0  0  0  0  0  0  0  0  0  0
   71.3879   40.2442   58.0527 F   0  0  0  0  0  0  0  0  0  0  0  0
   72.3406   42.1712   57.5110 F   0  0  0  0  0  0  0  0  0  0  0  0
  9 10  2  0
 10  1  1  0
 10 11  1  0
  1  2  2  0
  1  7  1  0
  2  3  1  0
  2  4  1  0
  4  5  2  0
  5  6  1  0
  6 20  1  0
  6  7  2  0
 20 21  1  0
 21 22  2  0
 21 23  2  0
 21 24  1  0
 24 25  1  0
 25 26  1  0
 25 27  1  0
 25 28  1  0
  7  8  1  0
 11 12  2  0
 11 19  1  0
 12 13  1  0
 13 14  1  0
 14 15  1  0
 14 19  2  0
 15 16  2  0
 16 17  1  0
 17 18  2  0
 18 19  1  0
M  END
>  <minimizedAffinity>  (1001) 
-8.84034

$$$$
data/200k_reference_output/data/smiles/87263.pdb
     RDKit          3D

 29 32  0  0  0  0  0  0  0  0999 V2000
   69.9549   46.8646   56.5839 C   0  0  2  0  0  0  0  0  0  0  0  0
   69.9259   48.1401   57.3394 C   0  0  0  0  0  0  0  0  0  0  0  0
   70.2571   48.5840   58.4670 O   0  0  0  0  0  0  0  0  0  0  0  0
   69.3233   48.7378   56.2062 N   0  0  0  0  0  0  0  0  0  0  0  0
   68.7432   47.4570   55.8892 C   0  0  1  0  0  0  0  0  0  0  0  0
   69.3268   50.0421   55.6857 C   0  0  0  0  0  0  0  0  0  0  0  0
   68.3704   50.9567   56.1153 C   0  0  0  0  0  0  0  0  0  0  0  0
   68.3298   52.2465   55.6417 C   0  0  0  0  0  0  0  0  0  0  0  0
   69.2622   52.6512   54.7166 C   0  0  0  0  0  0  0  0  0  0  0  0
   70.2247   51.7778   54.2652 C   0  0  0  0  0  0  0  0  0  0  0  0
   70.2311   50.4859   54.7669 C   0  0  0  0  0  0  0  0  0  0  0  0
   68.6197   47.1026   54.4670 C   0  0  0  0  0  0  0  0  0  0  0  0
   67.7926   46.0592   54.1149 C   0  0  0  0  0  0  0  0  0  0  0  0
   67.6266   45.6595   52.7948 C   0  0  0  0  0  0  0  0  0  0  0  0
   68.3011   46.3235   51.8419 N   0  0  0  0  0  0  0  0  0  0  0  0
   69.1260   47.3584   52.1469 C   0  0  0  0  0  0  0  0  0  0  0  0
   69.2849   47.7479   53.4559 C   0  0  0  0  0  0  0  0  0  0  0  0
   69.2571   44.4210   56.8362 N   0  0  0  0  0  0  0  0  0  0  0  0
   69.6669   45.6593   57.3953 C   0  0  0  0  0  0  0  0  0  0  0  0
   69.7847   45.7119   58.6500 O   0  0  0  0  0  0  0  0  0  0  0  0
   67.6244   42.4153   56.0128 O   0  0  0  0  0  0  0  0  0  0  0  0
   68.1239   42.2480   57.1506 C   0  0  0  0  0  0  0  0  0  0  0  0
   68.9830   43.2729   57.6184 N   0  0  0  0  0  0  0  0  0  0  0  0
   67.7899   41.0327   57.8947 C   0  0  0  0  0  0  0  0  0  0  0  0
   68.3563   39.8216   57.6122 C   0  0  0  0  0  0  0  0  0  0  0  0
   67.9897   38.7234   58.3579 C   0  0  0  0  0  0  0  0  0  0  0  0
   67.0722   38.7796   59.3870 C   0  0  0  0  0  0  0  0  0  0  0  0
   66.5116   40.0280   59.6521 C   0  0  0  0  0  0  0  0  0  0  0  0
   66.8709   41.1242   58.9155 C   0  0  0  0  0  0  0  0  0  0  0  0
 21 22  2  0
 22 23  1  0
 22 24  1  0
 23 18  1  0
 18 19  1  0
 19 20  2  0
  1 19  1  1
  1  2  1  0
  1  5  1  0
  2  3  2  0
  2  4  1  0
  4  6  1  0
  4  5  1  0
  6  7  2  0
  6 11  1  0
  7  8  1  0
  8  9  2  0
  9 10  1  0
 10 11  2  0
  5 12  1  6
 12 13  2  0
 12 17  1  0
 13 14  1  0
 14 15  2  0
 15 16  1  0
 16 17  2  0
 24 25  2  0
 24 29  1  0
 25 26  1  0
 26 27  2  0
 27 28  1  0
 28 29  2  0
M  END
>  <minimizedAffinity>  (1002) 
-8.74404

$$$$
