@<TRIPOS>MOLECULE
mol100_1_1
 55 59 0 0 0
SMALL
USER_CHARGES
****
VDW energy = -69.45
@<TRIPOS>ATOM
   1 O1        3.4420    -9.1855    -5.2979  O.2     1  <O>11      -0.2699
   2 C1        2.8552    -9.8129    -4.4288  C.2     1  <O>11       0.2494
   3 C2        1.4620   -10.1610    -4.6040  C.ar    1  <O>11       0.0723
   4 C3        1.1317   -11.3710    -5.2192  C.ar    1  <O>11      -0.0433
   5 C4       -0.2136   -11.7087    -5.4033  C.ar    1  <O>11      -0.0406
   6 C5       -0.5665   -12.9836    -6.0575  C.3     1  <O>11       0.0171
   7 C6       -0.0144   -14.1149    -5.2685  C.ar    1  <O>11       0.0736
   8 N1        1.2703   -14.5963    -5.5447  N.ar    1  <O>11      -0.1750
   9 N2        1.7475   -15.6902    -4.9080  N.ar    1  <O>11      -0.2425
  10 C7        0.9690   -16.3080    -3.9876  C.ar    1  <O>11       0.2725
  11 O2        1.4844   -17.4951    -3.4332  O.2     1  <O>11      -0.2658
  12 C8       -0.2851   -15.8309    -3.5795  C.ar    1  <O>11       0.0496
  13 C9       -1.0746   -16.4408    -2.5774  C.ar    1  <O>11      -0.0487
  14 C10      -2.3297   -15.9318    -2.2427  C.ar    1  <O>11      -0.0610
  15 C11      -2.8224   -14.8116    -2.9026  C.ar    1  <O>11      -0.0611
  16 C12      -2.0600   -14.2002    -3.8993  C.ar    1  <O>11      -0.0521
  17 C13      -0.7822   -14.6978    -4.2463  C.ar    1  <O>11       0.0106
  18 C14      -1.2215   -10.8431    -4.9705  C.ar    1  <O>11      -0.0555
  19 C15      -0.8757    -9.6378    -4.3497  C.ar    1  <O>11      -0.0254
  20 C16       0.4633    -9.2929    -4.1603  C.ar    1  <O>11       0.1355
  21 F1        0.8028    -8.1157    -3.5453  F       1  <O>11      -0.2047
  22 N3        3.5160   -10.1860    -3.2900  N.am    1  <O>11      -0.2959
  23 C17       3.0432   -10.8702    -2.2392  C.3     1  <O>11       0.0276
  24 C18       4.5466   -11.1367    -1.9852  C.3     1  <O>11       0.0671
  25 C19       5.0568   -12.4943    -2.4734  C.2     1  <O>11       0.2217
  26 O3        5.4952   -12.6103    -3.6085  O.2     1  <O>11      -0.2752
  27 N4        5.0224   -13.5786    -1.6388  N.am    1  <O>11      -0.3012
  28 C20       4.5240   -13.4952    -0.3144  C.3     1  <O>11       0.0147
  29 C21       4.9243   -14.8435     0.2688  C.3     1  <O>11      -0.0357
  30 C22       4.9284   -15.7564    -0.9513  C.3     1  <O>11      -0.0357
  31 C23       5.4825   -14.8555    -2.0434  C.3     1  <O>11       0.0147
  32 C24       4.7926    -9.9562    -2.9543  C.3     1  <O>11       0.0276
  33 H1       -0.1468   -13.0031    -7.0635  H       1  <O>11       0.0377
  34 H2       -1.6511   -13.0750    -6.1145  H       1  <O>11       0.0377
  35 H3        2.6710   -16.0413    -5.1154  H       1  <O>11       0.1921
  36 H4        2.5340   -10.2767    -1.4794  H       1  <O>11       0.0472
  37 H5        2.4417   -11.7472    -2.4794  H       1  <O>11       0.0472
  38 H6        4.8784   -10.9706    -0.9600  H       1  <O>11       0.0425
  39 H7        4.9907   -12.6754     0.2315  H       1  <O>11       0.0464
  40 H8        3.4408   -13.3670    -0.3078  H       1  <O>11       0.0464
  41 H9        5.9138   -14.7952     0.7248  H       1  <O>11       0.0281
  42 H10       4.1983   -15.1815     1.0074  H       1  <O>11       0.0281
  43 H11       5.5732   -16.6206    -0.7904  H       1  <O>11       0.0281
  44 H12       3.9209   -16.0924    -1.1928  H       1  <O>11       0.0281
  45 H13       6.5713   -14.8915    -2.0735  H       1  <O>11       0.0464
  46 H14       5.0822   -15.1268    -3.0213  H       1  <O>11       0.0464
  47 H15       4.9909    -8.9924    -2.4843  H       1  <O>11       0.0472
  48 H16       5.5261   -10.1351    -3.7403  H       1  <O>11       0.0472
  49 H17       1.8757   -12.0122    -5.5360  H       1  <O>11       0.0629
  50 H18      -0.7171   -17.2750    -2.0863  H       1  <O>11       0.0625
  51 H19      -2.8919   -16.3863    -1.5062  H       1  <O>11       0.0618
  52 H20      -3.7501   -14.4327    -2.6559  H       1  <O>11       0.0618
  53 H21      -2.4341   -13.3732    -4.3903  H       1  <O>11       0.0624
  54 H22      -2.2138   -11.0911    -5.1078  H       1  <O>11       0.0621
  55 H23      -1.6184    -8.9973    -4.0287  H       1  <O>11       0.0646
@<TRIPOS>BOND
     1     1     2    2
     2     2     3    1
     3     3     4   ar
     4     4     5   ar
     5     5     6    1
     6     6     7    1
     7     7     8   ar
     8     8     9   ar
     9     9    10   ar
    10    10    11    2
    11    10    12   ar
    12    12    13   ar
    13    13    14   ar
    14    14    15   ar
    15    15    16   ar
    16    16    17   ar
    17     7    17   ar
    18    12    17   ar
    19     5    18   ar
    20    18    19   ar
    21    19    20   ar
    22     3    20   ar
    23    20    21    1
    24     2    22   am
    25    22    23    1
    26    23    24    1
    27    24    25    1
    28    25    26    2
    29    25    27   am
    30    27    28    1
    31    28    29    1
    32    29    30    1
    33    30    31    1
    34    27    31    1
    35    24    32    1
    36    22    32    1
    37     6    33    1
    38     6    34    1
    39     9    35    1
    40    23    36    1
    41    23    37    1
    42    24    38    1
    43    28    39    1
    44    28    40    1
    45    29    41    1
    46    29    42    1
    47    30    43    1
    48    30    44    1
    49    31    45    1
    50    31    46    1
    51    32    47    1
    52    32    48    1
    53     4    49    1
    54    13    50    1
    55    14    51    1
    56    15    52    1
    57    16    53    1
    58    18    54    1
    59    19    55    1
@<TRIPOS>MOLECULE
mol100_1_2
 55 59 0 0 0
SMALL
USER_CHARGES
****
VDW energy = -68.48
@<TRIPOS>ATOM
   1 O1        3.4420    -9.1855    -5.2979  O.2     1  <O>11      -0.2699
   2 C1        2.8552    -9.8129    -4.4288  C.2     1  <O>11       0.2494
   3 C2        1.4620   -10.1610    -4.6040  C.ar    1  <O>11       0.0723
   4 C3        0.4753    -9.2800    -4.1544  C.ar    1  <O>11      -0.0433
   5 C4       -0.8742    -9.6157    -4.3092  C.ar    1  <O>11      -0.0406
   6 C5       -1.9193    -8.6901    -3.8308  C.3     1  <O>11       0.0171
   7 C6       -2.2838    -7.7483    -4.9205  C.ar    1  <O>11       0.0736
   8 N1       -1.5643    -7.7586    -6.1208  N.ar    1  <O>11      -0.1750
   9 N2       -1.8145    -6.8400    -7.0816  N.ar    1  <O>11      -0.2425
  10 C7       -2.7819    -5.9152    -6.8721  C.ar    1  <O>11       0.2725
  11 O2       -2.9260    -4.9296    -7.8671  O.2     1  <O>11      -0.2658
  12 C8       -3.6156    -5.8996    -5.7445  C.ar    1  <O>11       0.0496
  13 C9       -4.6644    -4.9712    -5.5500  C.ar    1  <O>11      -0.0487
  14 C10      -5.4356    -4.9916    -4.3877  C.ar    1  <O>11      -0.0610
  15 C11      -5.1732    -5.9317    -3.3976  C.ar    1  <O>11      -0.0611
  16 C12      -4.1375    -6.8517    -3.5690  C.ar    1  <O>11      -0.0521
  17 C13      -3.3505    -6.8508    -4.7443  C.ar    1  <O>11       0.0106
  18 C14      -1.2337   -10.8229    -4.9139  C.ar    1  <O>11      -0.0555
  19 C15      -0.2346   -11.6922    -5.3656  C.ar    1  <O>11      -0.0254
  20 C16       1.1140   -11.3656    -5.2170  C.ar    1  <O>11       0.1355
  21 F1        2.0933   -12.2132    -5.6662  F       1  <O>11      -0.2047
  22 N3        3.5160   -10.1860    -3.2900  N.am    1  <O>11      -0.2959
  23 C17       4.7930    -9.9559    -2.9549  C.3     1  <O>11       0.0276
  24 C18       4.2649   -10.2400    -1.5280  C.3     1  <O>11       0.0671
  25 C19       3.9578    -8.9971    -0.6899  C.2     1  <O>11       0.2217
  26 O3        2.9936    -8.2977    -0.9644  O.2     1  <O>11      -0.2752
  27 N4        4.7626    -8.6687     0.3673  N.am    1  <O>11      -0.3012
  28 C20       5.8916    -9.4473     0.7259  C.3     1  <O>11       0.0147
  29 C21       6.2883    -8.8458     2.0672  C.3     1  <O>11      -0.0357
  30 C22       5.8243    -7.3996     1.9442  C.3     1  <O>11      -0.0357
  31 C23       4.5206    -7.5292     1.1729  C.3     1  <O>11       0.0147
  32 C24       3.0440   -10.8701    -2.2391  C.3     1  <O>11       0.0276
  33 H1       -1.5422    -8.1283    -2.9760  H       1  <O>11       0.0377
  34 H2       -2.7997    -9.2589    -3.5321  H       1  <O>11       0.0377
  35 H3       -1.2881    -6.8434    -7.9430  H       1  <O>11       0.1921
  36 H4        5.5191   -10.6718    -3.3410  H       1  <O>11       0.0472
  37 H5        5.1519    -8.9418    -3.1329  H       1  <O>11       0.0472
  38 H6        4.8680   -10.9340    -0.9420  H       1  <O>11       0.0425
  39 H7        5.6280   -10.4999     0.8285  H       1  <O>11       0.0464
  40 H8        6.6924    -9.3423    -0.0073  H       1  <O>11       0.0464
  41 H9        5.7803    -9.3513     2.8892  H       1  <O>11       0.0281
  42 H10       7.3661    -8.8991     2.2166  H       1  <O>11       0.0281
  43 H11       5.6569    -6.9581     2.9269  H       1  <O>11       0.0281
  44 H12       6.5486    -6.8010     1.3936  H       1  <O>11       0.0281
  45 H13       3.6769    -7.6917     1.8433  H       1  <O>11       0.0464
  46 H14       4.3337    -6.6461     0.5602  H       1  <O>11       0.0464
  47 H15       3.0621   -11.9561    -2.3361  H       1  <O>11       0.0472
  48 H16       2.0680   -10.5542    -1.8711  H       1  <O>11       0.0472
  49 H17       0.7403    -8.3868    -3.7107  H       1  <O>11       0.0629
  50 H18      -4.8622    -4.2679    -6.2789  H       1  <O>11       0.0625
  51 H19      -6.2001    -4.3096    -4.2628  H       1  <O>11       0.0618
  52 H20      -5.7431    -5.9493    -2.5374  H       1  <O>11       0.0618
  53 H21      -3.9431    -7.5427    -2.8275  H       1  <O>11       0.0624
  54 H22      -2.2289   -11.0716    -5.0266  H       1  <O>11       0.0621
  55 H23      -0.4978   -12.5841    -5.8131  H       1  <O>11       0.0646
@<TRIPOS>BOND
     1     1     2    2
     2     2     3    1
     3     3     4   ar
     4     4     5   ar
     5     5     6    1
     6     6     7    1
     7     7     8   ar
     8     8     9   ar
     9     9    10   ar
    10    10    11    2
    11    10    12   ar
    12    12    13   ar
    13    13    14   ar
    14    14    15   ar
    15    15    16   ar
    16    16    17   ar
    17     7    17   ar
    18    12    17   ar
    19     5    18   ar
    20    18    19   ar
    21    19    20   ar
    22     3    20   ar
    23    20    21    1
    24     2    22   am
    25    22    23    1
    26    23    24    1
    27    24    25    1
    28    25    26    2
    29    25    27   am
    30    27    28    1
    31    28    29    1
    32    29    30    1
    33    30    31    1
    34    27    31    1
    35    24    32    1
    36    22    32    1
    37     6    33    1
    38     6    34    1
    39     9    35    1
    40    23    36    1
    41    23    37    1
    42    24    38    1
    43    28    39    1
    44    28    40    1
    45    29    41    1
    46    29    42    1
    47    30    43    1
    48    30    44    1
    49    31    45    1
    50    31    46    1
    51    32    47    1
    52    32    48    1
    53     4    49    1
    54    13    50    1
    55    14    51    1
    56    15    52    1
    57    16    53    1
    58    18    54    1
    59    19    55    1
@<TRIPOS>MOLECULE
mol100_1_3
 55 59 0 0 0
SMALL
USER_CHARGES
****
VDW energy = -68.17
@<TRIPOS>ATOM
   1 O1        3.4420    -9.1855    -5.2979  O.2     1  <O>11      -0.2699
   2 C1        2.8552    -9.8129    -4.4288  C.2     1  <O>11       0.2494
   3 C2        1.4620   -10.1610    -4.6040  C.ar    1  <O>11       0.0723
   4 C3        0.4753    -9.2800    -4.1544  C.ar    1  <O>11      -0.0433
   5 C4       -0.8742    -9.6157    -4.3092  C.ar    1  <O>11      -0.0406
   6 C5       -1.9193    -8.6901    -3.8308  C.3     1  <O>11       0.0171
   7 C6       -2.2568    -9.0102    -2.4199  C.ar    1  <O>11       0.0736
   8 N1       -1.6943   -10.1352    -1.8064  N.ar    1  <O>11      -0.1750
   9 N2       -2.0699   -10.4996    -0.5591  N.ar    1  <O>11      -0.2425
  10 C7       -2.9906    -9.7522     0.0957  C.ar    1  <O>11       0.2725
  11 O2       -3.4098   -10.2389     1.3485  O.2     1  <O>11      -0.2658
  12 C8       -3.5248    -8.5563    -0.4057  C.ar    1  <O>11       0.0496
  13 C9       -4.4420    -7.7435     0.2997  C.ar    1  <O>11      -0.0487
  14 C10      -4.9599    -6.5814    -0.2726  C.ar    1  <O>11      -0.0610
  15 C11      -4.5785    -6.2114    -1.5573  C.ar    1  <O>11      -0.0611
  16 C12      -3.6794    -7.0051    -2.2716  C.ar    1  <O>11      -0.0521
  17 C13      -3.1382    -8.1823    -1.7043  C.ar    1  <O>11       0.0106
  18 C14      -1.2337   -10.8229    -4.9139  C.ar    1  <O>11      -0.0555
  19 C15      -0.2346   -11.6922    -5.3656  C.ar    1  <O>11      -0.0254
  20 C16       1.1140   -11.3656    -5.2170  C.ar    1  <O>11       0.1355
  21 F1        2.0933   -12.2132    -5.6662  F       1  <O>11      -0.2047
  22 N3        3.5160   -10.1860    -3.2900  N.am    1  <O>11      -0.2959
  23 C17       4.7930    -9.9559    -2.9549  C.3     1  <O>11       0.0276
  24 C18       4.2649   -10.2400    -1.5280  C.3     1  <O>11       0.0671
  25 C19       3.9578    -8.9971    -0.6899  C.2     1  <O>11       0.2217
  26 O3        2.9936    -8.2977    -0.9644  O.2     1  <O>11      -0.2752
  27 N4        4.7626    -8.6687     0.3673  N.am    1  <O>11      -0.3012
  28 C20       4.5200    -7.5284     1.1739  C.3     1  <O>11       0.0147
  29 C21       5.7858    -7.4514     2.0166  C.3     1  <O>11      -0.0357
  30 C22       6.2257    -8.9075     2.1070  C.3     1  <O>11      -0.0357
  31 C23       5.8907    -9.4464     0.7255  C.3     1  <O>11       0.0147
  32 C24       3.0440   -10.8701    -2.2391  C.3     1  <O>11       0.0276
  33 H1       -2.8097    -8.7972    -4.4507  H       1  <O>11       0.0377
  34 H2       -1.5538    -7.6652    -3.8939  H       1  <O>11       0.0377
  35 H3       -1.6698   -11.3168    -0.1218  H       1  <O>11       0.1921
  36 H4        5.5191   -10.6718    -3.3410  H       1  <O>11       0.0472
  37 H5        5.1519    -8.9418    -3.1329  H       1  <O>11       0.0472
  38 H6        4.8680   -10.9340    -0.9420  H       1  <O>11       0.0425
  39 H7        4.3972    -6.6333     0.5643  H       1  <O>11       0.0464
  40 H8        3.6366    -7.6676     1.7985  H       1  <O>11       0.0464
  41 H9        6.5465    -6.8425     1.5267  H       1  <O>11       0.0281
  42 H10       5.5739    -7.0450     3.0048  H       1  <O>11       0.0281
  43 H11       7.2947    -8.9809     2.3085  H       1  <O>11       0.0281
  44 H12       5.6712    -9.4372     2.8804  H       1  <O>11       0.0281
  45 H13       6.7141    -9.2918     0.0284  H       1  <O>11       0.0464
  46 H14       5.6413   -10.5077     0.7644  H       1  <O>11       0.0464
  47 H15       3.0621   -11.9561    -2.3361  H       1  <O>11       0.0472
  48 H16       2.0680   -10.5542    -1.8711  H       1  <O>11       0.0472
  49 H17       0.7403    -8.3868    -3.7107  H       1  <O>11       0.0629
  50 H18      -4.7327    -8.0141     1.2522  H       1  <O>11       0.0625
  51 H19      -5.6254    -5.9969     0.2572  H       1  <O>11       0.0618
  52 H20      -4.9596    -5.3516    -1.9822  H       1  <O>11       0.0618
  53 H21      -3.4055    -6.7289    -3.2275  H       1  <O>11       0.0624
  54 H22      -2.2289   -11.0716    -5.0266  H       1  <O>11       0.0621
  55 H23      -0.4978   -12.5841    -5.8131  H       1  <O>11       0.0646
@<TRIPOS>BOND
     1     1     2    2
     2     2     3    1
     3     3     4   ar
     4     4     5   ar
     5     5     6    1
     6     6     7    1
     7     7     8   ar
     8     8     9   ar
     9     9    10   ar
    10    10    11    2
    11    10    12   ar
    12    12    13   ar
    13    13    14   ar
    14    14    15   ar
    15    15    16   ar
    16    16    17   ar
    17     7    17   ar
    18    12    17   ar
    19     5    18   ar
    20    18    19   ar
    21    19    20   ar
    22     3    20   ar
    23    20    21    1
    24     2    22   am
    25    22    23    1
    26    23    24    1
    27    24    25    1
    28    25    26    2
    29    25    27   am
    30    27    28    1
    31    28    29    1
    32    29    30    1
    33    30    31    1
    34    27    31    1
    35    24    32    1
    36    22    32    1
    37     6    33    1
    38     6    34    1
    39     9    35    1
    40    23    36    1
    41    23    37    1
    42    24    38    1
    43    28    39    1
    44    28    40    1
    45    29    41    1
    46    29    42    1
    47    30    43    1
    48    30    44    1
    49    31    45    1
    50    31    46    1
    51    32    47    1
    52    32    48    1
    53     4    49    1
    54    13    50    1
    55    14    51    1
    56    15    52    1
    57    16    53    1
    58    18    54    1
    59    19    55    1
@<TRIPOS>MOLECULE
mol100_1_4
 55 59 0 0 0
SMALL
USER_CHARGES
****
VDW energy = -68.09
@<TRIPOS>ATOM
   1 O1        3.4420    -9.1855    -5.2979  O.2     1  <O>11      -0.2699
   2 C1        2.8552    -9.8129    -4.4288  C.2     1  <O>11       0.2494
   3 C2        1.4620   -10.1610    -4.6040  C.ar    1  <O>11       0.0723
   4 C3        1.1317   -11.3710    -5.2192  C.ar    1  <O>11      -0.0433
   5 C4       -0.2136   -11.7087    -5.4033  C.ar    1  <O>11      -0.0406
   6 C5       -0.5665   -12.9836    -6.0575  C.3     1  <O>11       0.0171
   7 C6       -0.0144   -14.1149    -5.2685  C.ar    1  <O>11       0.0736
   8 N1        1.2703   -14.5963    -5.5447  N.ar    1  <O>11      -0.1750
   9 N2        1.7475   -15.6902    -4.9080  N.ar    1  <O>11      -0.2425
  10 C7        0.9690   -16.3080    -3.9876  C.ar    1  <O>11       0.2725
  11 O2        1.4844   -17.4951    -3.4332  O.2     1  <O>11      -0.2658
  12 C8       -0.2851   -15.8309    -3.5795  C.ar    1  <O>11       0.0496
  13 C9       -1.0746   -16.4408    -2.5774  C.ar    1  <O>11      -0.0487
  14 C10      -2.3297   -15.9318    -2.2427  C.ar    1  <O>11      -0.0610
  15 C11      -2.8224   -14.8116    -2.9026  C.ar    1  <O>11      -0.0611
  16 C12      -2.0600   -14.2002    -3.8993  C.ar    1  <O>11      -0.0521
  17 C13      -0.7822   -14.6978    -4.2463  C.ar    1  <O>11       0.0106
  18 C14      -1.2215   -10.8431    -4.9705  C.ar    1  <O>11      -0.0555
  19 C15      -0.8757    -9.6378    -4.3497  C.ar    1  <O>11      -0.0254
  20 C16       0.4633    -9.2929    -4.1603  C.ar    1  <O>11       0.1355
  21 F1        0.8028    -8.1157    -3.5453  F       1  <O>11      -0.2047
  22 N3        3.5160   -10.1860    -3.2900  N.am    1  <O>11      -0.2959
  23 C17       3.0432   -10.8702    -2.2392  C.3     1  <O>11       0.0276
  24 C18       4.5466   -11.1367    -1.9852  C.3     1  <O>11       0.0671
  25 C19       5.0568   -12.4943    -2.4734  C.2     1  <O>11       0.2217
  26 O3        5.1665   -12.7113    -3.6713  O.2     1  <O>11      -0.2752
  27 N4        5.3905   -13.4655    -1.5686  N.am    1  <O>11      -0.3012
  28 C20       5.2812   -13.2626    -0.1698  C.3     1  <O>11       0.0147
  29 C21       5.9890   -14.4878     0.3924  C.3     1  <O>11      -0.0357
  30 C22       5.7570   -15.5410    -0.6841  C.3     1  <O>11      -0.0357
  31 C23       5.8670   -14.7374    -1.9699  C.3     1  <O>11       0.0147
  32 C24       4.7926    -9.9562    -2.9543  C.3     1  <O>11       0.0276
  33 H1       -0.1468   -13.0031    -7.0635  H       1  <O>11       0.0377
  34 H2       -1.6511   -13.0750    -6.1145  H       1  <O>11       0.0377
  35 H3        2.6710   -16.0413    -5.1154  H       1  <O>11       0.1921
  36 H4        2.5340   -10.2767    -1.4794  H       1  <O>11       0.0472
  37 H5        2.4417   -11.7472    -2.4794  H       1  <O>11       0.0472
  38 H6        4.8784   -10.9706    -0.9600  H       1  <O>11       0.0425
  39 H7        5.7814   -12.3437     0.1354  H       1  <O>11       0.0464
  40 H8        4.2369   -13.2302     0.1437  H       1  <O>11       0.0464
  41 H9        7.0538   -14.2967     0.5299  H       1  <O>11       0.0281
  42 H10       5.5479   -14.7940     1.3403  H       1  <O>11       0.0281
  43 H11       6.5199   -16.3187    -0.6406  H       1  <O>11       0.0281
  44 H12       4.7703   -15.9915    -0.5856  H       1  <O>11       0.0281
  45 H13       6.8988   -14.6811    -2.3161  H       1  <O>11       0.0464
  46 H14       5.2418   -15.1620    -2.7567  H       1  <O>11       0.0464
  47 H15       4.9909    -8.9924    -2.4843  H       1  <O>11       0.0472
  48 H16       5.5261   -10.1351    -3.7403  H       1  <O>11       0.0472
  49 H17       1.8757   -12.0122    -5.5360  H       1  <O>11       0.0629
  50 H18      -0.7171   -17.2750    -2.0863  H       1  <O>11       0.0625
  51 H19      -2.8919   -16.3863    -1.5062  H       1  <O>11       0.0618
  52 H20      -3.7501   -14.4327    -2.6559  H       1  <O>11       0.0618
  53 H21      -2.4341   -13.3732    -4.3903  H       1  <O>11       0.0624
  54 H22      -2.2138   -11.0911    -5.1078  H       1  <O>11       0.0621
  55 H23      -1.6184    -8.9973    -4.0287  H       1  <O>11       0.0646
@<TRIPOS>BOND
     1     1     2    2
     2     2     3    1
     3     3     4   ar
     4     4     5   ar
     5     5     6    1
     6     6     7    1
     7     7     8   ar
     8     8     9   ar
     9     9    10   ar
    10    10    11    2
    11    10    12   ar
    12    12    13   ar
    13    13    14   ar
    14    14    15   ar
    15    15    16   ar
    16    16    17   ar
    17     7    17   ar
    18    12    17   ar
    19     5    18   ar
    20    18    19   ar
    21    19    20   ar
    22     3    20   ar
    23    20    21    1
    24     2    22   am
    25    22    23    1
    26    23    24    1
    27    24    25    1
    28    25    26    2
    29    25    27   am
    30    27    28    1
    31    28    29    1
    32    29    30    1
    33    30    31    1
    34    27    31    1
    35    24    32    1
    36    22    32    1
    37     6    33    1
    38     6    34    1
    39     9    35    1
    40    23    36    1
    41    23    37    1
    42    24    38    1
    43    28    39    1
    44    28    40    1
    45    29    41    1
    46    29    42    1
    47    30    43    1
    48    30    44    1
    49    31    45    1
    50    31    46    1
    51    32    47    1
    52    32    48    1
    53     4    49    1
    54    13    50    1
    55    14    51    1
    56    15    52    1
    57    16    53    1
    58    18    54    1
    59    19    55    1
@<TRIPOS>MOLECULE
mol100_1_5
 55 59 0 0 0
SMALL
USER_CHARGES
****
VDW energy = -68.09
@<TRIPOS>ATOM
   1 O1        3.4420    -9.1855    -5.2979  O.2     1  <O>11      -0.2699
   2 C1        2.8552    -9.8129    -4.4288  C.2     1  <O>11       0.2494
   3 C2        1.4620   -10.1610    -4.6040  C.ar    1  <O>11       0.0723
   4 C3        0.4753    -9.2800    -4.1544  C.ar    1  <O>11      -0.0433
   5 C4       -0.8742    -9.6157    -4.3092  C.ar    1  <O>11      -0.0406
   6 C5       -1.9193    -8.6901    -3.8308  C.3     1  <O>11       0.0171
   7 C6       -2.2838    -7.7483    -4.9205  C.ar    1  <O>11       0.0736
   8 N1       -1.5643    -7.7586    -6.1208  N.ar    1  <O>11      -0.1750
   9 N2       -1.8145    -6.8400    -7.0816  N.ar    1  <O>11      -0.2425
  10 C7       -2.7819    -5.9152    -6.8721  C.ar    1  <O>11       0.2725
  11 O2       -2.9260    -4.9296    -7.8671  O.2     1  <O>11      -0.2658
  12 C8       -3.6156    -5.8996    -5.7445  C.ar    1  <O>11       0.0496
  13 C9       -4.6644    -4.9712    -5.5500  C.ar    1  <O>11      -0.0487
  14 C10      -5.4356    -4.9916    -4.3877  C.ar    1  <O>11      -0.0610
  15 C11      -5.1732    -5.9317    -3.3976  C.ar    1  <O>11      -0.0611
  16 C12      -4.1375    -6.8517    -3.5690  C.ar    1  <O>11      -0.0521
  17 C13      -3.3505    -6.8508    -4.7443  C.ar    1  <O>11       0.0106
  18 C14      -1.2337   -10.8229    -4.9139  C.ar    1  <O>11      -0.0555
  19 C15      -0.2346   -11.6922    -5.3656  C.ar    1  <O>11      -0.0254
  20 C16       1.1140   -11.3656    -5.2170  C.ar    1  <O>11       0.1355
  21 F1        2.0933   -12.2132    -5.6662  F       1  <O>11      -0.2047
  22 N3        3.5160   -10.1860    -3.2900  N.am    1  <O>11      -0.2959
  23 C17       4.7930    -9.9559    -2.9549  C.3     1  <O>11       0.0276
  24 C18       4.2649   -10.2400    -1.5280  C.3     1  <O>11       0.0671
  25 C19       3.9578    -8.9971    -0.6899  C.2     1  <O>11       0.2217
  26 O3        2.9936    -8.2977    -0.9644  O.2     1  <O>11      -0.2752
  27 N4        4.7626    -8.6687     0.3673  N.am    1  <O>11      -0.3012
  28 C20       4.5200    -7.5284     1.1739  C.3     1  <O>11       0.0147
  29 C21       5.7858    -7.4514     2.0166  C.3     1  <O>11      -0.0357
  30 C22       6.2257    -8.9075     2.1070  C.3     1  <O>11      -0.0357
  31 C23       5.8907    -9.4464     0.7255  C.3     1  <O>11       0.0147
  32 C24       3.0440   -10.8701    -2.2391  C.3     1  <O>11       0.0276
  33 H1       -1.5422    -8.1283    -2.9760  H       1  <O>11       0.0377
  34 H2       -2.7997    -9.2589    -3.5321  H       1  <O>11       0.0377
  35 H3       -1.2881    -6.8434    -7.9430  H       1  <O>11       0.1921
  36 H4        5.5191   -10.6718    -3.3410  H       1  <O>11       0.0472
  37 H5        5.1519    -8.9418    -3.1329  H       1  <O>11       0.0472
  38 H6        4.8680   -10.9340    -0.9420  H       1  <O>11       0.0425
  39 H7        4.3972    -6.6333     0.5643  H       1  <O>11       0.0464
  40 H8        3.6366    -7.6676     1.7985  H       1  <O>11       0.0464
  41 H9        6.5465    -6.8425     1.5267  H       1  <O>11       0.0281
  42 H10       5.5739    -7.0450     3.0048  H       1  <O>11       0.0281
  43 H11       7.2947    -8.9809     2.3085  H       1  <O>11       0.0281
  44 H12       5.6712    -9.4372     2.8804  H       1  <O>11       0.0281
  45 H13       6.7141    -9.2918     0.0284  H       1  <O>11       0.0464
  46 H14       5.6413   -10.5077     0.7644  H       1  <O>11       0.0464
  47 H15       3.0621   -11.9561    -2.3361  H       1  <O>11       0.0472
  48 H16       2.0680   -10.5542    -1.8711  H       1  <O>11       0.0472
  49 H17       0.7403    -8.3868    -3.7107  H       1  <O>11       0.0629
  50 H18      -4.8622    -4.2679    -6.2789  H       1  <O>11       0.0625
  51 H19      -6.2001    -4.3096    -4.2628  H       1  <O>11       0.0618
  52 H20      -5.7431    -5.9493    -2.5374  H       1  <O>11       0.0618
  53 H21      -3.9431    -7.5427    -2.8275  H       1  <O>11       0.0624
  54 H22      -2.2289   -11.0716    -5.0266  H       1  <O>11       0.0621
  55 H23      -0.4978   -12.5841    -5.8131  H       1  <O>11       0.0646
@<TRIPOS>BOND
     1     1     2    2
     2     2     3    1
     3     3     4   ar
     4     4     5   ar
     5     5     6    1
     6     6     7    1
     7     7     8   ar
     8     8     9   ar
     9     9    10   ar
    10    10    11    2
    11    10    12   ar
    12    12    13   ar
    13    13    14   ar
    14    14    15   ar
    15    15    16   ar
    16    16    17   ar
    17     7    17   ar
    18    12    17   ar
    19     5    18   ar
    20    18    19   ar
    21    19    20   ar
    22     3    20   ar
    23    20    21    1
    24     2    22   am
    25    22    23    1
    26    23    24    1
    27    24    25    1
    28    25    26    2
    29    25    27   am
    30    27    28    1
    31    28    29    1
    32    29    30    1
    33    30    31    1
    34    27    31    1
    35    24    32    1
    36    22    32    1
    37     6    33    1
    38     6    34    1
    39     9    35    1
    40    23    36    1
    41    23    37    1
    42    24    38    1
    43    28    39    1
    44    28    40    1
    45    29    41    1
    46    29    42    1
    47    30    43    1
    48    30    44    1
    49    31    45    1
    50    31    46    1
    51    32    47    1
    52    32    48    1
    53     4    49    1
    54    13    50    1
    55    14    51    1
    56    15    52    1
    57    16    53    1
    58    18    54    1
    59    19    55    1
@<TRIPOS>MOLECULE
mol100_1_6
 55 59 0 0 0
SMALL
USER_CHARGES
****
VDW energy = -67.69
@<TRIPOS>ATOM
   1 O1        3.4420    -9.1855    -5.2979  O.2     1  <O>11      -0.2699
   2 C1        2.8552    -9.8129    -4.4288  C.2     1  <O>11       0.2494
   3 C2        1.4620   -10.1610    -4.6040  C.ar    1  <O>11       0.0723
   4 C3        1.1317   -11.3710    -5.2192  C.ar    1  <O>11      -0.0433
   5 C4       -0.2136   -11.7087    -5.4033  C.ar    1  <O>11      -0.0406
   6 C5       -0.5665   -12.9836    -6.0575  C.3     1  <O>11       0.0171
   7 C6       -0.0144   -14.1149    -5.2685  C.ar    1  <O>11       0.0736
   8 N1        1.2703   -14.5963    -5.5447  N.ar    1  <O>11      -0.1750
   9 N2        1.7475   -15.6902    -4.9080  N.ar    1  <O>11      -0.2425
  10 C7        0.9690   -16.3080    -3.9876  C.ar    1  <O>11       0.2725
  11 O2        1.4844   -17.4951    -3.4332  O.2     1  <O>11      -0.2658
  12 C8       -0.2851   -15.8309    -3.5795  C.ar    1  <O>11       0.0496
  13 C9       -1.0746   -16.4408    -2.5774  C.ar    1  <O>11      -0.0487
  14 C10      -2.3297   -15.9318    -2.2427  C.ar    1  <O>11      -0.0610
  15 C11      -2.8224   -14.8116    -2.9026  C.ar    1  <O>11      -0.0611
  16 C12      -2.0600   -14.2002    -3.8993  C.ar    1  <O>11      -0.0521
  17 C13      -0.7822   -14.6978    -4.2463  C.ar    1  <O>11       0.0106
  18 C14      -1.2215   -10.8431    -4.9705  C.ar    1  <O>11      -0.0555
  19 C15      -0.8757    -9.6378    -4.3497  C.ar    1  <O>11      -0.0254
  20 C16       0.4633    -9.2929    -4.1603  C.ar    1  <O>11       0.1355
  21 F1        0.8028    -8.1157    -3.5453  F       1  <O>11      -0.2047
  22 N3        3.5160   -10.1860    -3.2900  N.am    1  <O>11      -0.2959
  23 C17       3.0432   -10.8702    -2.2392  C.3     1  <O>11       0.0276
  24 C18       4.5466   -11.1367    -1.9852  C.3     1  <O>11       0.0671
  25 C19       5.0568   -12.4943    -2.4734  C.2     1  <O>11       0.2217
  26 O3        5.1665   -12.7113    -3.6713  O.2     1  <O>11      -0.2752
  27 N4        5.3905   -13.4655    -1.5686  N.am    1  <O>11      -0.3012
  28 C20       5.8679   -14.7384    -1.9704  C.3     1  <O>11       0.0147
  29 C21       5.8493   -15.5196    -0.6636  C.3     1  <O>11      -0.0357
  30 C22       6.0706   -14.4369     0.3854  C.3     1  <O>11      -0.0357
  31 C23       5.2811   -13.2630    -0.1711  C.3     1  <O>11       0.0147
  32 C24       4.7926    -9.9562    -2.9543  C.3     1  <O>11       0.0276
  33 H1       -0.1468   -13.0031    -7.0635  H       1  <O>11       0.0377
  34 H2       -1.6511   -13.0750    -6.1145  H       1  <O>11       0.0377
  35 H3        2.6710   -16.0413    -5.1154  H       1  <O>11       0.1921
  36 H4        2.5340   -10.2767    -1.4794  H       1  <O>11       0.0472
  37 H5        2.4417   -11.7472    -2.4794  H       1  <O>11       0.0472
  38 H6        4.8784   -10.9706    -0.9600  H       1  <O>11       0.0425
  39 H7        5.2078   -15.1915    -2.7099  H       1  <O>11       0.0464
  40 H8        6.8779   -14.6708    -2.3767  H       1  <O>11       0.0464
  41 H9        4.8894   -16.0160    -0.5172  H       1  <O>11       0.0281
  42 H10       6.6496   -16.2583    -0.6379  H       1  <O>11       0.0281
  43 H11       5.6815   -14.7473     1.3554  H       1  <O>11       0.0281
  44 H12       7.1276   -14.1908     0.4779  H       1  <O>11       0.0281
  45 H13       4.2407   -13.2951     0.1521  H       1  <O>11       0.0464
  46 H14       5.7249   -12.3114     0.1250  H       1  <O>11       0.0464
  47 H15       4.9909    -8.9924    -2.4843  H       1  <O>11       0.0472
  48 H16       5.5261   -10.1351    -3.7403  H       1  <O>11       0.0472
  49 H17       1.8757   -12.0122    -5.5360  H       1  <O>11       0.0629
  50 H18      -0.7171   -17.2750    -2.0863  H       1  <O>11       0.0625
  51 H19      -2.8919   -16.3863    -1.5062  H       1  <O>11       0.0618
  52 H20      -3.7501   -14.4327    -2.6559  H       1  <O>11       0.0618
  53 H21      -2.4341   -13.3732    -4.3903  H       1  <O>11       0.0624
  54 H22      -2.2138   -11.0911    -5.1078  H       1  <O>11       0.0621
  55 H23      -1.6184    -8.9973    -4.0287  H       1  <O>11       0.0646
@<TRIPOS>BOND
     1     1     2    2
     2     2     3    1
     3     3     4   ar
     4     4     5   ar
     5     5     6    1
     6     6     7    1
     7     7     8   ar
     8     8     9   ar
     9     9    10   ar
    10    10    11    2
    11    10    12   ar
    12    12    13   ar
    13    13    14   ar
    14    14    15   ar
    15    15    16   ar
    16    16    17   ar
    17     7    17   ar
    18    12    17   ar
    19     5    18   ar
    20    18    19   ar
    21    19    20   ar
    22     3    20   ar
    23    20    21    1
    24     2    22   am
    25    22    23    1
    26    23    24    1
    27    24    25    1
    28    25    26    2
    29    25    27   am
    30    27    28    1
    31    28    29    1
    32    29    30    1
    33    30    31    1
    34    27    31    1
    35    24    32    1
    36    22    32    1
    37     6    33    1
    38     6    34    1
    39     9    35    1
    40    23    36    1
    41    23    37    1
    42    24    38    1
    43    28    39    1
    44    28    40    1
    45    29    41    1
    46    29    42    1
    47    30    43    1
    48    30    44    1
    49    31    45    1
    50    31    46    1
    51    32    47    1
    52    32    48    1
    53     4    49    1
    54    13    50    1
    55    14    51    1
    56    15    52    1
    57    16    53    1
    58    18    54    1
    59    19    55    1
@<TRIPOS>MOLECULE
mol100_1_7
 55 59 0 0 0
SMALL
USER_CHARGES
****
VDW energy = -66.48
@<TRIPOS>ATOM
   1 O1        3.4420    -9.1855    -5.2979  O.2     1  <O>11      -0.2699
   2 C1        2.8552    -9.8129    -4.4288  C.2     1  <O>11       0.2494
   3 C2        1.4620   -10.1610    -4.6040  C.ar    1  <O>11       0.0723
   4 C3        1.1317   -11.3710    -5.2192  C.ar    1  <O>11      -0.0433
   5 C4       -0.2136   -11.7087    -5.4033  C.ar    1  <O>11      -0.0406
   6 C5       -0.5665   -12.9836    -6.0575  C.3     1  <O>11       0.0171
   7 C6       -0.0144   -14.1149    -5.2685  C.ar    1  <O>11       0.0736
   8 N1        1.2703   -14.5963    -5.5447  N.ar    1  <O>11      -0.1750
   9 N2        1.7475   -15.6902    -4.9080  N.ar    1  <O>11      -0.2425
  10 C7        0.9690   -16.3080    -3.9876  C.ar    1  <O>11       0.2725
  11 O2        1.4844   -17.4951    -3.4332  O.2     1  <O>11      -0.2658
  12 C8       -0.2851   -15.8309    -3.5795  C.ar    1  <O>11       0.0496
  13 C9       -1.0746   -16.4408    -2.5774  C.ar    1  <O>11      -0.0487
  14 C10      -2.3297   -15.9318    -2.2427  C.ar    1  <O>11      -0.0610
  15 C11      -2.8224   -14.8116    -2.9026  C.ar    1  <O>11      -0.0611
  16 C12      -2.0600   -14.2002    -3.8993  C.ar    1  <O>11      -0.0521
  17 C13      -0.7822   -14.6978    -4.2463  C.ar    1  <O>11       0.0106
  18 C14      -1.2215   -10.8431    -4.9705  C.ar    1  <O>11      -0.0555
  19 C15      -0.8757    -9.6378    -4.3497  C.ar    1  <O>11      -0.0254
  20 C16       0.4633    -9.2929    -4.1603  C.ar    1  <O>11       0.1355
  21 F1        0.8028    -8.1157    -3.5453  F       1  <O>11      -0.2047
  22 N3        3.5160   -10.1860    -3.2900  N.am    1  <O>11      -0.2959
  23 C17       4.7930    -9.9559    -2.9549  C.3     1  <O>11       0.0276
  24 C18       4.2649   -10.2400    -1.5280  C.3     1  <O>11       0.0671
  25 C19       3.9578    -8.9971    -0.6899  C.2     1  <O>11       0.2217
  26 O3        2.9936    -8.2977    -0.9644  O.2     1  <O>11      -0.2752
  27 N4        4.7626    -8.6687     0.3673  N.am    1  <O>11      -0.3012
  28 C20       5.8916    -9.4473     0.7259  C.3     1  <O>11       0.0147
  29 C21       6.2883    -8.8458     2.0672  C.3     1  <O>11      -0.0357
  30 C22       5.8243    -7.3996     1.9442  C.3     1  <O>11      -0.0357
  31 C23       4.5206    -7.5292     1.1729  C.3     1  <O>11       0.0147
  32 C24       3.0440   -10.8701    -2.2391  C.3     1  <O>11       0.0276
  33 H1       -0.1468   -13.0031    -7.0635  H       1  <O>11       0.0377
  34 H2       -1.6511   -13.0750    -6.1145  H       1  <O>11       0.0377
  35 H3        2.6710   -16.0413    -5.1154  H       1  <O>11       0.1921
  36 H4        5.5191   -10.6718    -3.3410  H       1  <O>11       0.0472
  37 H5        5.1519    -8.9418    -3.1329  H       1  <O>11       0.0472
  38 H6        4.8680   -10.9340    -0.9420  H       1  <O>11       0.0425
  39 H7        5.6280   -10.4999     0.8285  H       1  <O>11       0.0464
  40 H8        6.6924    -9.3423    -0.0073  H       1  <O>11       0.0464
  41 H9        5.7803    -9.3513     2.8892  H       1  <O>11       0.0281
  42 H10       7.3661    -8.8991     2.2166  H       1  <O>11       0.0281
  43 H11       5.6569    -6.9581     2.9269  H       1  <O>11       0.0281
  44 H12       6.5486    -6.8010     1.3936  H       1  <O>11       0.0281
  45 H13       3.6769    -7.6917     1.8433  H       1  <O>11       0.0464
  46 H14       4.3337    -6.6461     0.5602  H       1  <O>11       0.0464
  47 H15       3.0621   -11.9561    -2.3361  H       1  <O>11       0.0472
  48 H16       2.0680   -10.5542    -1.8711  H       1  <O>11       0.0472
  49 H17       1.8757   -12.0122    -5.5360  H       1  <O>11       0.0629
  50 H18      -0.7171   -17.2750    -2.0863  H       1  <O>11       0.0625
  51 H19      -2.8919   -16.3863    -1.5062  H       1  <O>11       0.0618
  52 H20      -3.7501   -14.4327    -2.6559  H       1  <O>11       0.0618
  53 H21      -2.4341   -13.3732    -4.3903  H       1  <O>11       0.0624
  54 H22      -2.2138   -11.0911    -5.1078  H       1  <O>11       0.0621
  55 H23      -1.6184    -8.9973    -4.0287  H       1  <O>11       0.0646
@<TRIPOS>BOND
     1     1     2    2
     2     2     3    1
     3     3     4   ar
     4     4     5   ar
     5     5     6    1
     6     6     7    1
     7     7     8   ar
     8     8     9   ar
     9     9    10   ar
    10    10    11    2
    11    10    12   ar
    12    12    13   ar
    13    13    14   ar
    14    14    15   ar
    15    15    16   ar
    16    16    17   ar
    17     7    17   ar
    18    12    17   ar
    19     5    18   ar
    20    18    19   ar
    21    19    20   ar
    22     3    20   ar
    23    20    21    1
    24     2    22   am
    25    22    23    1
    26    23    24    1
    27    24    25    1
    28    25    26    2
    29    25    27   am
    30    27    28    1
    31    28    29    1
    32    29    30    1
    33    30    31    1
    34    27    31    1
    35    24    32    1
    36    22    32    1
    37     6    33    1
    38     6    34    1
    39     9    35    1
    40    23    36    1
    41    23    37    1
    42    24    38    1
    43    28    39    1
    44    28    40    1
    45    29    41    1
    46    29    42    1
    47    30    43    1
    48    30    44    1
    49    31    45    1
    50    31    46    1
    51    32    47    1
    52    32    48    1
    53     4    49    1
    54    13    50    1
    55    14    51    1
    56    15    52    1
    57    16    53    1
    58    18    54    1
    59    19    55    1
@<TRIPOS>MOLECULE
mol100_1_8
 55 59 0 0 0
SMALL
USER_CHARGES
****
VDW energy = -66.09
@<TRIPOS>ATOM
   1 O1        3.4420    -9.1855    -5.2979  O.2     1  <O>11      -0.2699
   2 C1        2.8552    -9.8129    -4.4288  C.2     1  <O>11       0.2494
   3 C2        1.4620   -10.1610    -4.6040  C.ar    1  <O>11       0.0723
   4 C3        1.1317   -11.3710    -5.2192  C.ar    1  <O>11      -0.0433
   5 C4       -0.2136   -11.7087    -5.4033  C.ar    1  <O>11      -0.0406
   6 C5       -0.5665   -12.9836    -6.0575  C.3     1  <O>11       0.0171
   7 C6       -0.0144   -14.1149    -5.2685  C.ar    1  <O>11       0.0736
   8 N1        1.2703   -14.5963    -5.5447  N.ar    1  <O>11      -0.1750
   9 N2        1.7475   -15.6902    -4.9080  N.ar    1  <O>11      -0.2425
  10 C7        0.9690   -16.3080    -3.9876  C.ar    1  <O>11       0.2725
  11 O2        1.4844   -17.4951    -3.4332  O.2     1  <O>11      -0.2658
  12 C8       -0.2851   -15.8309    -3.5795  C.ar    1  <O>11       0.0496
  13 C9       -1.0746   -16.4408    -2.5774  C.ar    1  <O>11      -0.0487
  14 C10      -2.3297   -15.9318    -2.2427  C.ar    1  <O>11      -0.0610
  15 C11      -2.8224   -14.8116    -2.9026  C.ar    1  <O>11      -0.0611
  16 C12      -2.0600   -14.2002    -3.8993  C.ar    1  <O>11      -0.0521
  17 C13      -0.7822   -14.6978    -4.2463  C.ar    1  <O>11       0.0106
  18 C14      -1.2215   -10.8431    -4.9705  C.ar    1  <O>11      -0.0555
  19 C15      -0.8757    -9.6378    -4.3497  C.ar    1  <O>11      -0.0254
  20 C16       0.4633    -9.2929    -4.1603  C.ar    1  <O>11       0.1355
  21 F1        0.8028    -8.1157    -3.5453  F       1  <O>11      -0.2047
  22 N3        3.5160   -10.1860    -3.2900  N.am    1  <O>11      -0.2959
  23 C17       4.7930    -9.9559    -2.9549  C.3     1  <O>11       0.0276
  24 C18       4.2649   -10.2400    -1.5280  C.3     1  <O>11       0.0671
  25 C19       3.9578    -8.9971    -0.6899  C.2     1  <O>11       0.2217
  26 O3        2.9936    -8.2977    -0.9644  O.2     1  <O>11      -0.2752
  27 N4        4.7626    -8.6687     0.3673  N.am    1  <O>11      -0.3012
  28 C20       4.5200    -7.5284     1.1739  C.3     1  <O>11       0.0147
  29 C21       5.7858    -7.4514     2.0166  C.3     1  <O>11      -0.0357
  30 C22       6.2257    -8.9075     2.1070  C.3     1  <O>11      -0.0357
  31 C23       5.8907    -9.4464     0.7255  C.3     1  <O>11       0.0147
  32 C24       3.0440   -10.8701    -2.2391  C.3     1  <O>11       0.0276
  33 H1       -0.1468   -13.0031    -7.0635  H       1  <O>11       0.0377
  34 H2       -1.6511   -13.0750    -6.1145  H       1  <O>11       0.0377
  35 H3        2.6710   -16.0413    -5.1154  H       1  <O>11       0.1921
  36 H4        5.5191   -10.6718    -3.3410  H       1  <O>11       0.0472
  37 H5        5.1519    -8.9418    -3.1329  H       1  <O>11       0.0472
  38 H6        4.8680   -10.9340    -0.9420  H       1  <O>11       0.0425
  39 H7        4.3972    -6.6333     0.5643  H       1  <O>11       0.0464
  40 H8        3.6366    -7.6676     1.7985  H       1  <O>11       0.0464
  41 H9        6.5465    -6.8425     1.5267  H       1  <O>11       0.0281
  42 H10       5.5739    -7.0450     3.0048  H       1  <O>11       0.0281
  43 H11       7.2947    -8.9809     2.3085  H       1  <O>11       0.0281
  44 H12       5.6712    -9.4372     2.8804  H       1  <O>11       0.0281
  45 H13       6.7141    -9.2918     0.0284  H       1  <O>11       0.0464
  46 H14       5.6413   -10.5077     0.7644  H       1  <O>11       0.0464
  47 H15       3.0621   -11.9561    -2.3361  H       1  <O>11       0.0472
  48 H16       2.0680   -10.5542    -1.8711  H       1  <O>11       0.0472
  49 H17       1.8757   -12.0122    -5.5360  H       1  <O>11       0.0629
  50 H18      -0.7171   -17.2750    -2.0863  H       1  <O>11       0.0625
  51 H19      -2.8919   -16.3863    -1.5062  H       1  <O>11       0.0618
  52 H20      -3.7501   -14.4327    -2.6559  H       1  <O>11       0.0618
  53 H21      -2.4341   -13.3732    -4.3903  H       1  <O>11       0.0624
  54 H22      -2.2138   -11.0911    -5.1078  H       1  <O>11       0.0621
  55 H23      -1.6184    -8.9973    -4.0287  H       1  <O>11       0.0646
@<TRIPOS>BOND
     1     1     2    2
     2     2     3    1
     3     3     4   ar
     4     4     5   ar
     5     5     6    1
     6     6     7    1
     7     7     8   ar
     8     8     9   ar
     9     9    10   ar
    10    10    11    2
    11    10    12   ar
    12    12    13   ar
    13    13    14   ar
    14    14    15   ar
    15    15    16   ar
    16    16    17   ar
    17     7    17   ar
    18    12    17   ar
    19     5    18   ar
    20    18    19   ar
    21    19    20   ar
    22     3    20   ar
    23    20    21    1
    24     2    22   am
    25    22    23    1
    26    23    24    1
    27    24    25    1
    28    25    26    2
    29    25    27   am
    30    27    28    1
    31    28    29    1
    32    29    30    1
    33    30    31    1
    34    27    31    1
    35    24    32    1
    36    22    32    1
    37     6    33    1
    38     6    34    1
    39     9    35    1
    40    23    36    1
    41    23    37    1
    42    24    38    1
    43    28    39    1
    44    28    40    1
    45    29    41    1
    46    29    42    1
    47    30    43    1
    48    30    44    1
    49    31    45    1
    50    31    46    1
    51    32    47    1
    52    32    48    1
    53     4    49    1
    54    13    50    1
    55    14    51    1
    56    15    52    1
    57    16    53    1
    58    18    54    1
    59    19    55    1
@<TRIPOS>MOLECULE
mol100_1_9
 55 59 0 0 0
SMALL
USER_CHARGES
****
VDW energy = -65.60
@<TRIPOS>ATOM
   1 O1        3.4420    -9.1855    -5.2979  O.2     1  <O>11      -0.2699
   2 C1        2.8552    -9.8129    -4.4288  C.2     1  <O>11       0.2494
   3 C2        1.4620   -10.1610    -4.6040  C.ar    1  <O>11       0.0723
   4 C3        0.4753    -9.2800    -4.1544  C.ar    1  <O>11      -0.0433
   5 C4       -0.8742    -9.6157    -4.3092  C.ar    1  <O>11      -0.0406
   6 C5       -1.9193    -8.6901    -3.8308  C.3     1  <O>11       0.0171
   7 C6       -1.7642    -8.4807    -2.3682  C.ar    1  <O>11       0.0736
   8 N1       -0.8165    -9.2227    -1.6542  N.ar    1  <O>11      -0.1750
   9 N2       -0.7335    -9.1203    -0.3080  N.ar    1  <O>11      -0.2425
  10 C7       -1.5731    -8.2784     0.3410  C.ar    1  <O>11       0.2725
  11 O2       -1.5021    -8.2909     1.7470  O.2     1  <O>11      -0.2658
  12 C8       -2.4784    -7.4258    -0.3072  C.ar    1  <O>11       0.0496
  13 C9       -3.3150    -6.5041     0.3638  C.ar    1  <O>11      -0.0487
  14 C10      -4.2177    -5.7078    -0.3413  C.ar    1  <O>11      -0.0610
  15 C11      -4.3072    -5.8187    -1.7243  C.ar    1  <O>11      -0.0611
  16 C12      -3.4942    -6.7280    -2.4032  C.ar    1  <O>11      -0.0521
  17 C13      -2.5678    -7.5377    -1.7055  C.ar    1  <O>11       0.0106
  18 C14      -1.2337   -10.8229    -4.9139  C.ar    1  <O>11      -0.0555
  19 C15      -0.2346   -11.6922    -5.3656  C.ar    1  <O>11      -0.0254
  20 C16       1.1140   -11.3656    -5.2170  C.ar    1  <O>11       0.1355
  21 F1        2.0933   -12.2132    -5.6662  F       1  <O>11      -0.2047
  22 N3        3.5160   -10.1860    -3.2900  N.am    1  <O>11      -0.2959
  23 C17       4.7930    -9.9559    -2.9549  C.3     1  <O>11       0.0276
  24 C18       4.2649   -10.2400    -1.5280  C.3     1  <O>11       0.0671
  25 C19       3.9578    -8.9971    -0.6899  C.2     1  <O>11       0.2217
  26 O3        2.9936    -8.2977    -0.9644  O.2     1  <O>11      -0.2752
  27 N4        4.7626    -8.6687     0.3673  N.am    1  <O>11      -0.3012
  28 C20       4.5200    -7.5284     1.1739  C.3     1  <O>11       0.0147
  29 C21       5.7858    -7.4514     2.0166  C.3     1  <O>11      -0.0357
  30 C22       6.2257    -8.9075     2.1070  C.3     1  <O>11      -0.0357
  31 C23       5.8907    -9.4464     0.7255  C.3     1  <O>11       0.0147
  32 C24       3.0440   -10.8701    -2.2391  C.3     1  <O>11       0.0276
  33 H1       -2.9018    -9.1162    -4.0348  H       1  <O>11       0.0377
  34 H2       -1.8232    -7.7350    -4.3472  H       1  <O>11       0.0377
  35 H3       -0.0553    -9.6633     0.2062  H       1  <O>11       0.1921
  36 H4        5.5191   -10.6718    -3.3410  H       1  <O>11       0.0472
  37 H5        5.1519    -8.9418    -3.1329  H       1  <O>11       0.0472
  38 H6        4.8680   -10.9340    -0.9420  H       1  <O>11       0.0425
  39 H7        4.3972    -6.6333     0.5643  H       1  <O>11       0.0464
  40 H8        3.6366    -7.6676     1.7985  H       1  <O>11       0.0464
  41 H9        6.5465    -6.8425     1.5267  H       1  <O>11       0.0281
  42 H10       5.5739    -7.0450     3.0048  H       1  <O>11       0.0281
  43 H11       7.2947    -8.9809     2.3085  H       1  <O>11       0.0281
  44 H12       5.6712    -9.4372     2.8804  H       1  <O>11       0.0281
  45 H13       6.7141    -9.2918     0.0284  H       1  <O>11       0.0464
  46 H14       5.6413   -10.5077     0.7644  H       1  <O>11       0.0464
  47 H15       3.0621   -11.9561    -2.3361  H       1  <O>11       0.0472
  48 H16       2.0680   -10.5542    -1.8711  H       1  <O>11       0.0472
  49 H17       0.7403    -8.3868    -3.7107  H       1  <O>11       0.0629
  50 H18      -3.2569    -6.4193     1.3907  H       1  <O>11       0.0625
  51 H19      -4.8184    -5.0371     0.1630  H       1  <O>11       0.0618
  52 H20      -4.9735    -5.2299    -2.2481  H       1  <O>11       0.0618
  53 H21      -3.5702    -6.8106    -3.4291  H       1  <O>11       0.0624
  54 H22      -2.2289   -11.0716    -5.0266  H       1  <O>11       0.0621
  55 H23      -0.4978   -12.5841    -5.8131  H       1  <O>11       0.0646
@<TRIPOS>BOND
     1     1     2    2
     2     2     3    1
     3     3     4   ar
     4     4     5   ar
     5     5     6    1
     6     6     7    1
     7     7     8   ar
     8     8     9   ar
     9     9    10   ar
    10    10    11    2
    11    10    12   ar
    12    12    13   ar
    13    13    14   ar
    14    14    15   ar
    15    15    16   ar
    16    16    17   ar
    17     7    17   ar
    18    12    17   ar
    19     5    18   ar
    20    18    19   ar
    21    19    20   ar
    22     3    20   ar
    23    20    21    1
    24     2    22   am
    25    22    23    1
    26    23    24    1
    27    24    25    1
    28    25    26    2
    29    25    27   am
    30    27    28    1
    31    28    29    1
    32    29    30    1
    33    30    31    1
    34    27    31    1
    35    24    32    1
    36    22    32    1
    37     6    33    1
    38     6    34    1
    39     9    35    1
    40    23    36    1
    41    23    37    1
    42    24    38    1
    43    28    39    1
    44    28    40    1
    45    29    41    1
    46    29    42    1
    47    30    43    1
    48    30    44    1
    49    31    45    1
    50    31    46    1
    51    32    47    1
    52    32    48    1
    53     4    49    1
    54    13    50    1
    55    14    51    1
    56    15    52    1
    57    16    53    1
    58    18    54    1
    59    19    55    1
@<TRIPOS>MOLECULE
mol100_1_10
 55 59 0 0 0
SMALL
USER_CHARGES
****
VDW energy = -65.12
@<TRIPOS>ATOM
   1 O1        3.4420    -9.1855    -5.2979  O.2     1  <O>11      -0.2699
   2 C1        2.8552    -9.8129    -4.4288  C.2     1  <O>11       0.2494
   3 C2        1.4620   -10.1610    -4.6040  C.ar    1  <O>11       0.0723
   4 C3        0.4753    -9.2800    -4.1544  C.ar    1  <O>11      -0.0433
   5 C4       -0.8742    -9.6157    -4.3092  C.ar    1  <O>11      -0.0406
   6 C5       -1.9193    -8.6901    -3.8308  C.3     1  <O>11       0.0171
   7 C6       -2.2838    -7.7483    -4.9205  C.ar    1  <O>11       0.0736
   8 N1       -1.5643    -7.7586    -6.1208  N.ar    1  <O>11      -0.1750
   9 N2       -1.8145    -6.8400    -7.0816  N.ar    1  <O>11      -0.2425
  10 C7       -2.7819    -5.9152    -6.8721  C.ar    1  <O>11       0.2725
  11 O2       -2.9260    -4.9296    -7.8671  O.2     1  <O>11      -0.2658
  12 C8       -3.6156    -5.8996    -5.7445  C.ar    1  <O>11       0.0496
  13 C9       -4.6644    -4.9712    -5.5500  C.ar    1  <O>11      -0.0487
  14 C10      -5.4356    -4.9916    -4.3877  C.ar    1  <O>11      -0.0610
  15 C11      -5.1732    -5.9317    -3.3976  C.ar    1  <O>11      -0.0611
  16 C12      -4.1375    -6.8517    -3.5690  C.ar    1  <O>11      -0.0521
  17 C13      -3.3505    -6.8508    -4.7443  C.ar    1  <O>11       0.0106
  18 C14      -1.2337   -10.8229    -4.9139  C.ar    1  <O>11      -0.0555
  19 C15      -0.2346   -11.6922    -5.3656  C.ar    1  <O>11      -0.0254
  20 C16       1.1140   -11.3656    -5.2170  C.ar    1  <O>11       0.1355
  21 F1        2.0933   -12.2132    -5.6662  F       1  <O>11      -0.2047
  22 N3        3.5160   -10.1860    -3.2900  N.am    1  <O>11      -0.2959
  23 C17       3.0432   -10.8702    -2.2392  C.3     1  <O>11       0.0276
  24 C18       4.5466   -11.1367    -1.9852  C.3     1  <O>11       0.0671
  25 C19       5.0568   -12.4943    -2.4734  C.2     1  <O>11       0.2217
  26 O3        5.1665   -12.7113    -3.6713  O.2     1  <O>11      -0.2752
  27 N4        5.3905   -13.4655    -1.5686  N.am    1  <O>11      -0.3012
  28 C20       5.8679   -14.7384    -1.9704  C.3     1  <O>11       0.0147
  29 C21       5.8493   -15.5196    -0.6636  C.3     1  <O>11      -0.0357
  30 C22       6.0706   -14.4369     0.3854  C.3     1  <O>11      -0.0357
  31 C23       5.2811   -13.2630    -0.1711  C.3     1  <O>11       0.0147
  32 C24       4.7926    -9.9562    -2.9543  C.3     1  <O>11       0.0276
  33 H1       -1.5422    -8.1283    -2.9760  H       1  <O>11       0.0377
  34 H2       -2.7997    -9.2589    -3.5321  H       1  <O>11       0.0377
  35 H3       -1.2881    -6.8434    -7.9430  H       1  <O>11       0.1921
  36 H4        2.5340   -10.2767    -1.4794  H       1  <O>11       0.0472
  37 H5        2.4417   -11.7472    -2.4794  H       1  <O>11       0.0472
  38 H6        4.8784   -10.9706    -0.9600  H       1  <O>11       0.0425
  39 H7        5.2078   -15.1915    -2.7099  H       1  <O>11       0.0464
  40 H8        6.8779   -14.6708    -2.3767  H       1  <O>11       0.0464
  41 H9        4.8894   -16.0160    -0.5172  H       1  <O>11       0.0281
  42 H10       6.6496   -16.2583    -0.6379  H       1  <O>11       0.0281
  43 H11       5.6815   -14.7473     1.3554  H       1  <O>11       0.0281
  44 H12       7.1276   -14.1908     0.4779  H       1  <O>11       0.0281
  45 H13       4.2407   -13.2951     0.1521  H       1  <O>11       0.0464
  46 H14       5.7249   -12.3114     0.1250  H       1  <O>11       0.0464
  47 H15       4.9909    -8.9924    -2.4843  H       1  <O>11       0.0472
  48 H16       5.5261   -10.1351    -3.7403  H       1  <O>11       0.0472
  49 H17       0.7403    -8.3868    -3.7107  H       1  <O>11       0.0629
  50 H18      -4.8622    -4.2679    -6.2789  H       1  <O>11       0.0625
  51 H19      -6.2001    -4.3096    -4.2628  H       1  <O>11       0.0618
  52 H20      -5.7431    -5.9493    -2.5374  H       1  <O>11       0.0618
  53 H21      -3.9431    -7.5427    -2.8275  H       1  <O>11       0.0624
  54 H22      -2.2289   -11.0716    -5.0266  H       1  <O>11       0.0621
  55 H23      -0.4978   -12.5841    -5.8131  H       1  <O>11       0.0646
@<TRIPOS>BOND
     1     1     2    2
     2     2     3    1
     3     3     4   ar
     4     4     5   ar
     5     5     6    1
     6     6     7    1
     7     7     8   ar
     8     8     9   ar
     9     9    10   ar
    10    10    11    2
    11    10    12   ar
    12    12    13   ar
    13    13    14   ar
    14    14    15   ar
    15    15    16   ar
    16    16    17   ar
    17     7    17   ar
    18    12    17   ar
    19     5    18   ar
    20    18    19   ar
    21    19    20   ar
    22     3    20   ar
    23    20    21    1
    24     2    22   am
    25    22    23    1
    26    23    24    1
    27    24    25    1
    28    25    26    2
    29    25    27   am
    30    27    28    1
    31    28    29    1
    32    29    30    1
    33    30    31    1
    34    27    31    1
    35    24    32    1
    36    22    32    1
    37     6    33    1
    38     6    34    1
    39     9    35    1
    40    23    36    1
    41    23    37    1
    42    24    38    1
    43    28    39    1
    44    28    40    1
    45    29    41    1
    46    29    42    1
    47    30    43    1
    48    30    44    1
    49    31    45    1
    50    31    46    1
    51    32    47    1
    52    32    48    1
    53     4    49    1
    54    13    50    1
    55    14    51    1
    56    15    52    1
    57    16    53    1
    58    18    54    1
    59    19    55    1
@<TRIPOS>MOLECULE
mol100_1_11
 55 59 0 0 0
SMALL
USER_CHARGES
****
VDW energy = -64.07
@<TRIPOS>ATOM
   1 O1        3.4420    -9.1855    -5.2979  O.2     1  <O>11      -0.2699
   2 C1        2.8552    -9.8129    -4.4288  C.2     1  <O>11       0.2494
   3 C2        1.4620   -10.1610    -4.6040  C.ar    1  <O>11       0.0723
   4 C3        1.1317   -11.3710    -5.2192  C.ar    1  <O>11      -0.0433
   5 C4       -0.2136   -11.7087    -5.4033  C.ar    1  <O>11      -0.0406
   6 C5       -0.5665   -12.9836    -6.0575  C.3     1  <O>11       0.0171
   7 C6        0.0042   -13.0116    -7.4288  C.ar    1  <O>11       0.0736
   8 N1        0.6371   -11.8747    -7.9440  N.ar    1  <O>11      -0.1750
   9 N2        1.0695   -11.8483    -9.2254  N.ar    1  <O>11      -0.2425
  10 C7        0.8933   -12.9440   -10.0022  C.ar    1  <O>11       0.2725
  11 O2        1.2762   -12.8181   -11.3512  O.2     1  <O>11      -0.2658
  12 C8        0.3633   -14.1553    -9.5344  C.ar    1  <O>11       0.0496
  13 C9        0.2319   -15.3188   -10.3272  C.ar    1  <O>11      -0.0487
  14 C10      -0.3353   -16.4824    -9.8069  C.ar    1  <O>11      -0.0610
  15 C11      -0.7857   -16.5064    -8.4918  C.ar    1  <O>11      -0.0611
  16 C12      -0.6705   -15.3652    -7.6963  C.ar    1  <O>11      -0.0521
  17 C13      -0.0911   -14.1792    -8.2045  C.ar    1  <O>11       0.0106
  18 C14      -1.2215   -10.8431    -4.9705  C.ar    1  <O>11      -0.0555
  19 C15      -0.8757    -9.6378    -4.3497  C.ar    1  <O>11      -0.0254
  20 C16       0.4633    -9.2929    -4.1603  C.ar    1  <O>11       0.1355
  21 F1        0.8028    -8.1157    -3.5453  F       1  <O>11      -0.2047
  22 N3        3.5160   -10.1860    -3.2900  N.am    1  <O>11      -0.2959
  23 C17       3.0432   -10.8702    -2.2392  C.3     1  <O>11       0.0276
  24 C18       4.5466   -11.1367    -1.9852  C.3     1  <O>11       0.0671
  25 C19       5.0568   -12.4943    -2.4734  C.2     1  <O>11       0.2217
  26 O3        5.1665   -12.7113    -3.6713  O.2     1  <O>11      -0.2752
  27 N4        5.3905   -13.4655    -1.5686  N.am    1  <O>11      -0.3012
  28 C20       5.8679   -14.7384    -1.9704  C.3     1  <O>11       0.0147
  29 C21       5.8493   -15.5196    -0.6636  C.3     1  <O>11      -0.0357
  30 C22       6.0706   -14.4369     0.3854  C.3     1  <O>11      -0.0357
  31 C23       5.2811   -13.2630    -0.1711  C.3     1  <O>11       0.0147
  32 C24       4.7926    -9.9562    -2.9543  C.3     1  <O>11       0.0276
  33 H1       -1.6515   -13.0741    -6.1135  H       1  <O>11       0.0377
  34 H2       -0.1622   -13.8136    -5.4782  H       1  <O>11       0.0377
  35 H3        1.5175   -11.0239    -9.5980  H       1  <O>11       0.1921
  36 H4        2.5340   -10.2767    -1.4794  H       1  <O>11       0.0472
  37 H5        2.4417   -11.7472    -2.4794  H       1  <O>11       0.0472
  38 H6        4.8784   -10.9706    -0.9600  H       1  <O>11       0.0425
  39 H7        5.2078   -15.1915    -2.7099  H       1  <O>11       0.0464
  40 H8        6.8779   -14.6708    -2.3767  H       1  <O>11       0.0464
  41 H9        4.8894   -16.0160    -0.5172  H       1  <O>11       0.0281
  42 H10       6.6496   -16.2583    -0.6379  H       1  <O>11       0.0281
  43 H11       5.6815   -14.7473     1.3554  H       1  <O>11       0.0281
  44 H12       7.1276   -14.1908     0.4779  H       1  <O>11       0.0281
  45 H13       4.2407   -13.2951     0.1521  H       1  <O>11       0.0464
  46 H14       5.7249   -12.3114     0.1250  H       1  <O>11       0.0464
  47 H15       4.9909    -8.9924    -2.4843  H       1  <O>11       0.0472
  48 H16       5.5261   -10.1351    -3.7403  H       1  <O>11       0.0472
  49 H17       1.8757   -12.0122    -5.5360  H       1  <O>11       0.0629
  50 H18       0.5604   -15.3070   -11.3055  H       1  <O>11       0.0625
  51 H19      -0.4203   -17.3244   -10.3975  H       1  <O>11       0.0618
  52 H20      -1.2046   -17.3664    -8.1045  H       1  <O>11       0.0618
  53 H21      -1.0131   -15.3871    -6.7230  H       1  <O>11       0.0624
  54 H22      -2.2138   -11.0911    -5.1078  H       1  <O>11       0.0621
  55 H23      -1.6184    -8.9973    -4.0287  H       1  <O>11       0.0646
@<TRIPOS>BOND
     1     1     2    2
     2     2     3    1
     3     3     4   ar
     4     4     5   ar
     5     5     6    1
     6     6     7    1
     7     7     8   ar
     8     8     9   ar
     9     9    10   ar
    10    10    11    2
    11    10    12   ar
    12    12    13   ar
    13    13    14   ar
    14    14    15   ar
    15    15    16   ar
    16    16    17   ar
    17     7    17   ar
    18    12    17   ar
    19     5    18   ar
    20    18    19   ar
    21    19    20   ar
    22     3    20   ar
    23    20    21    1
    24     2    22   am
    25    22    23    1
    26    23    24    1
    27    24    25    1
    28    25    26    2
    29    25    27   am
    30    27    28    1
    31    28    29    1
    32    29    30    1
    33    30    31    1
    34    27    31    1
    35    24    32    1
    36    22    32    1
    37     6    33    1
    38     6    34    1
    39     9    35    1
    40    23    36    1
    41    23    37    1
    42    24    38    1
    43    28    39    1
    44    28    40    1
    45    29    41    1
    46    29    42    1
    47    30    43    1
    48    30    44    1
    49    31    45    1
    50    31    46    1
    51    32    47    1
    52    32    48    1
    53     4    49    1
    54    13    50    1
    55    14    51    1
    56    15    52    1
    57    16    53    1
    58    18    54    1
    59    19    55    1
@<TRIPOS>MOLECULE
mol100_1_12
 55 59 0 0 0
SMALL
USER_CHARGES
****
VDW energy = -64.06
@<TRIPOS>ATOM
   1 O1        3.4420    -9.1855    -5.2979  O.2     1  <O>11      -0.2699
   2 C1        2.8552    -9.8129    -4.4288  C.2     1  <O>11       0.2494
   3 C2        1.4620   -10.1610    -4.6040  C.ar    1  <O>11       0.0723
   4 C3        0.4753    -9.2800    -4.1544  C.ar    1  <O>11      -0.0433
   5 C4       -0.8742    -9.6157    -4.3092  C.ar    1  <O>11      -0.0406
   6 C5       -1.9193    -8.6901    -3.8308  C.3     1  <O>11       0.0171
   7 C6       -1.7876    -7.3879    -4.5338  C.ar    1  <O>11       0.0736
   8 N1       -0.9769    -6.3829    -3.9941  N.ar    1  <O>11      -0.1750
   9 N2       -0.9273    -5.1575    -4.5645  N.ar    1  <O>11      -0.2425
  10 C7       -1.6645    -4.9184    -5.6755  C.ar    1  <O>11       0.2725
  11 O2       -1.6448    -3.5976    -6.1627  O.2     1  <O>11      -0.2658
  12 C8       -2.4203    -5.8976    -6.3364  C.ar    1  <O>11       0.0496
  13 C9       -3.1442    -5.6659    -7.5288  C.ar    1  <O>11      -0.0487
  14 C10      -3.9031    -6.6781    -8.1168  C.ar    1  <O>11      -0.0610
  15 C11      -3.9590    -7.9354    -7.5259  C.ar    1  <O>11      -0.0611
  16 C12      -3.2565    -8.1807    -6.3449  C.ar    1  <O>11      -0.0521
  17 C13      -2.4757    -7.1688    -5.7391  C.ar    1  <O>11       0.0106
  18 C14      -1.2337   -10.8229    -4.9139  C.ar    1  <O>11      -0.0555
  19 C15      -0.2346   -11.6922    -5.3656  C.ar    1  <O>11      -0.0254
  20 C16       1.1140   -11.3656    -5.2170  C.ar    1  <O>11       0.1355
  21 F1        2.0933   -12.2132    -5.6662  F       1  <O>11      -0.2047
  22 N3        3.5160   -10.1860    -3.2900  N.am    1  <O>11      -0.2959
  23 C17       3.0432   -10.8702    -2.2392  C.3     1  <O>11       0.0276
  24 C18       4.5466   -11.1367    -1.9852  C.3     1  <O>11       0.0671
  25 C19       5.0568   -12.4943    -2.4734  C.2     1  <O>11       0.2217
  26 O3        5.1665   -12.7113    -3.6713  O.2     1  <O>11      -0.2752
  27 N4        5.3905   -13.4655    -1.5686  N.am    1  <O>11      -0.3012
  28 C20       5.8679   -14.7384    -1.9704  C.3     1  <O>11       0.0147
  29 C21       5.8493   -15.5196    -0.6636  C.3     1  <O>11      -0.0357
  30 C22       6.0706   -14.4369     0.3854  C.3     1  <O>11      -0.0357
  31 C23       5.2811   -13.2630    -0.1711  C.3     1  <O>11       0.0147
  32 C24       4.7926    -9.9562    -2.9543  C.3     1  <O>11       0.0276
  33 H1       -1.8042    -8.5370    -2.7576  H       1  <O>11       0.0377
  34 H2       -2.9021    -9.1153    -4.0338  H       1  <O>11       0.0377
  35 H3       -0.3490    -4.4311    -4.1683  H       1  <O>11       0.1921
  36 H4        2.5340   -10.2767    -1.4794  H       1  <O>11       0.0472
  37 H5        2.4417   -11.7472    -2.4794  H       1  <O>11       0.0472
  38 H6        4.8784   -10.9706    -0.9600  H       1  <O>11       0.0425
  39 H7        5.2078   -15.1915    -2.7099  H       1  <O>11       0.0464
  40 H8        6.8779   -14.6708    -2.3767  H       1  <O>11       0.0464
  41 H9        4.8894   -16.0160    -0.5172  H       1  <O>11       0.0281
  42 H10       6.6496   -16.2583    -0.6379  H       1  <O>11       0.0281
  43 H11       5.6815   -14.7473     1.3554  H       1  <O>11       0.0281
  44 H12       7.1276   -14.1908     0.4779  H       1  <O>11       0.0281
  45 H13       4.2407   -13.2951     0.1521  H       1  <O>11       0.0464
  46 H14       5.7249   -12.3114     0.1250  H       1  <O>11       0.0464
  47 H15       4.9909    -8.9924    -2.4843  H       1  <O>11       0.0472
  48 H16       5.5261   -10.1351    -3.7403  H       1  <O>11       0.0472
  49 H17       0.7403    -8.3868    -3.7107  H       1  <O>11       0.0629
  50 H18      -3.1106    -4.7339    -7.9708  H       1  <O>11       0.0625
  51 H19      -4.4225    -6.4939    -8.9893  H       1  <O>11       0.0618
  52 H20      -4.5190    -8.6860    -7.9597  H       1  <O>11       0.0618
  53 H21      -3.3075    -9.1140    -5.9074  H       1  <O>11       0.0624
  54 H22      -2.2289   -11.0716    -5.0266  H       1  <O>11       0.0621
  55 H23      -0.4978   -12.5841    -5.8131  H       1  <O>11       0.0646
@<TRIPOS>BOND
     1     1     2    2
     2     2     3    1
     3     3     4   ar
     4     4     5   ar
     5     5     6    1
     6     6     7    1
     7     7     8   ar
     8     8     9   ar
     9     9    10   ar
    10    10    11    2
    11    10    12   ar
    12    12    13   ar
    13    13    14   ar
    14    14    15   ar
    15    15    16   ar
    16    16    17   ar
    17     7    17   ar
    18    12    17   ar
    19     5    18   ar
    20    18    19   ar
    21    19    20   ar
    22     3    20   ar
    23    20    21    1
    24     2    22   am
    25    22    23    1
    26    23    24    1
    27    24    25    1
    28    25    26    2
    29    25    27   am
    30    27    28    1
    31    28    29    1
    32    29    30    1
    33    30    31    1
    34    27    31    1
    35    24    32    1
    36    22    32    1
    37     6    33    1
    38     6    34    1
    39     9    35    1
    40    23    36    1
    41    23    37    1
    42    24    38    1
    43    28    39    1
    44    28    40    1
    45    29    41    1
    46    29    42    1
    47    30    43    1
    48    30    44    1
    49    31    45    1
    50    31    46    1
    51    32    47    1
    52    32    48    1
    53     4    49    1
    54    13    50    1
    55    14    51    1
    56    15    52    1
    57    16    53    1
    58    18    54    1
    59    19    55    1
@<TRIPOS>MOLECULE
mol100_1_13
 55 59 0 0 0
SMALL
USER_CHARGES
****
VDW energy = -63.16
@<TRIPOS>ATOM
   1 O1        3.4420    -9.1855    -5.2979  O.2     1  <O>11      -0.2699
   2 C1        2.8552    -9.8129    -4.4288  C.2     1  <O>11       0.2494
   3 C2        1.4620   -10.1610    -4.6040  C.ar    1  <O>11       0.0723
   4 C3        1.1317   -11.3710    -5.2192  C.ar    1  <O>11      -0.0433
   5 C4       -0.2136   -11.7087    -5.4033  C.ar    1  <O>11      -0.0406
   6 C5       -0.5665   -12.9836    -6.0575  C.3     1  <O>11       0.0171
   7 C6       -0.0144   -14.1149    -5.2685  C.ar    1  <O>11       0.0736
   8 N1        0.8157   -13.8602    -4.1710  N.ar    1  <O>11      -0.1750
   9 N2        1.4098   -14.8773    -3.5061  N.ar    1  <O>11      -0.2425
  10 C7        1.1803   -16.1500    -3.9091  C.ar    1  <O>11       0.2725
  11 O2        1.9038   -17.1547    -3.2386  O.2     1  <O>11      -0.2658
  12 C8        0.2839   -16.4956    -4.9308  C.ar    1  <O>11       0.0496
  13 C9       -0.0017   -17.8262    -5.3148  C.ar    1  <O>11      -0.0487
  14 C10      -0.8806   -18.0984    -6.3635  C.ar    1  <O>11      -0.0610
  15 C11      -1.4855   -17.0521    -7.0509  C.ar    1  <O>11      -0.0611
  16 C12      -1.2102   -15.7320    -6.6904  C.ar    1  <O>11      -0.0521
  17 C13      -0.3280   -15.4374    -5.6248  C.ar    1  <O>11       0.0106
  18 C14      -1.2215   -10.8431    -4.9705  C.ar    1  <O>11      -0.0555
  19 C15      -0.8757    -9.6378    -4.3497  C.ar    1  <O>11      -0.0254
  20 C16       0.4633    -9.2929    -4.1603  C.ar    1  <O>11       0.1355
  21 F1        0.8028    -8.1157    -3.5453  F       1  <O>11      -0.2047
  22 N3        3.5160   -10.1860    -3.2900  N.am    1  <O>11      -0.2959
  23 C17       3.0432   -10.8702    -2.2392  C.3     1  <O>11       0.0276
  24 C18       4.5466   -11.1367    -1.9852  C.3     1  <O>11       0.0671
  25 C19       5.0568   -12.4943    -2.4734  C.2     1  <O>11       0.2217
  26 O3        5.1665   -12.7113    -3.6713  O.2     1  <O>11      -0.2752
  27 N4        5.3905   -13.4655    -1.5686  N.am    1  <O>11      -0.3012
  28 C20       5.8679   -14.7384    -1.9704  C.3     1  <O>11       0.0147
  29 C21       5.8493   -15.5196    -0.6636  C.3     1  <O>11      -0.0357
  30 C22       6.0706   -14.4369     0.3854  C.3     1  <O>11      -0.0357
  31 C23       5.2811   -13.2630    -0.1711  C.3     1  <O>11       0.0147
  32 C24       4.7926    -9.9562    -2.9543  C.3     1  <O>11       0.0276
  33 H1       -0.1468   -13.0031    -7.0635  H       1  <O>11       0.0377
  34 H2       -1.6511   -13.0750    -6.1145  H       1  <O>11       0.0377
  35 H3        2.0157   -14.6909    -2.7204  H       1  <O>11       0.1921
  36 H4        2.5340   -10.2767    -1.4794  H       1  <O>11       0.0472
  37 H5        2.4417   -11.7472    -2.4794  H       1  <O>11       0.0472
  38 H6        4.8784   -10.9706    -0.9600  H       1  <O>11       0.0425
  39 H7        5.2078   -15.1915    -2.7099  H       1  <O>11       0.0464
  40 H8        6.8779   -14.6708    -2.3767  H       1  <O>11       0.0464
  41 H9        4.8894   -16.0160    -0.5172  H       1  <O>11       0.0281
  42 H10       6.6496   -16.2583    -0.6379  H       1  <O>11       0.0281
  43 H11       5.6815   -14.7473     1.3554  H       1  <O>11       0.0281
  44 H12       7.1276   -14.1908     0.4779  H       1  <O>11       0.0281
  45 H13       4.2407   -13.2951     0.1521  H       1  <O>11       0.0464
  46 H14       5.7249   -12.3114     0.1250  H       1  <O>11       0.0464
  47 H15       4.9909    -8.9924    -2.4843  H       1  <O>11       0.0472
  48 H16       5.5261   -10.1351    -3.7403  H       1  <O>11       0.0472
  49 H17       1.8757   -12.0122    -5.5360  H       1  <O>11       0.0629
  50 H18       0.4467   -18.6077    -4.8117  H       1  <O>11       0.0625
  51 H19      -1.0816   -19.0753    -6.6288  H       1  <O>11       0.0618
  52 H20      -2.1367   -17.2511    -7.8263  H       1  <O>11       0.0618
  53 H21      -1.6569   -14.9595    -7.2089  H       1  <O>11       0.0624
  54 H22      -2.2138   -11.0911    -5.1078  H       1  <O>11       0.0621
  55 H23      -1.6184    -8.9973    -4.0287  H       1  <O>11       0.0646
@<TRIPOS>BOND
     1     1     2    2
     2     2     3    1
     3     3     4   ar
     4     4     5   ar
     5     5     6    1
     6     6     7    1
     7     7     8   ar
     8     8     9   ar
     9     9    10   ar
    10    10    11    2
    11    10    12   ar
    12    12    13   ar
    13    13    14   ar
    14    14    15   ar
    15    15    16   ar
    16    16    17   ar
    17     7    17   ar
    18    12    17   ar
    19     5    18   ar
    20    18    19   ar
    21    19    20   ar
    22     3    20   ar
    23    20    21    1
    24     2    22   am
    25    22    23    1
    26    23    24    1
    27    24    25    1
    28    25    26    2
    29    25    27   am
    30    27    28    1
    31    28    29    1
    32    29    30    1
    33    30    31    1
    34    27    31    1
    35    24    32    1
    36    22    32    1
    37     6    33    1
    38     6    34    1
    39     9    35    1
    40    23    36    1
    41    23    37    1
    42    24    38    1
    43    28    39    1
    44    28    40    1
    45    29    41    1
    46    29    42    1
    47    30    43    1
    48    30    44    1
    49    31    45    1
    50    31    46    1
    51    32    47    1
    52    32    48    1
    53     4    49    1
    54    13    50    1
    55    14    51    1
    56    15    52    1
    57    16    53    1
    58    18    54    1
    59    19    55    1
@<TRIPOS>MOLECULE
mol100_1_14
 55 59 0 0 0
SMALL
USER_CHARGES
****
VDW energy = -62.79
@<TRIPOS>ATOM
   1 O1        3.4420    -9.1855    -5.2979  O.2     1  <O>11      -0.2699
   2 C1        2.8552    -9.8129    -4.4288  C.2     1  <O>11       0.2494
   3 C2        1.4620   -10.1610    -4.6040  C.ar    1  <O>11       0.0723
   4 C3        0.4753    -9.2800    -4.1544  C.ar    1  <O>11      -0.0433
   5 C4       -0.8742    -9.6157    -4.3092  C.ar    1  <O>11      -0.0406
   6 C5       -1.9193    -8.6901    -3.8308  C.3     1  <O>11       0.0171
   7 C6       -1.7642    -8.4807    -2.3682  C.ar    1  <O>11       0.0736
   8 N1       -0.8165    -9.2227    -1.6542  N.ar    1  <O>11      -0.1750
   9 N2       -0.7335    -9.1203    -0.3080  N.ar    1  <O>11      -0.2425
  10 C7       -1.5731    -8.2784     0.3410  C.ar    1  <O>11       0.2725
  11 O2       -1.5021    -8.2909     1.7470  O.2     1  <O>11      -0.2658
  12 C8       -2.4784    -7.4258    -0.3072  C.ar    1  <O>11       0.0496
  13 C9       -3.3150    -6.5041     0.3638  C.ar    1  <O>11      -0.0487
  14 C10      -4.2177    -5.7078    -0.3413  C.ar    1  <O>11      -0.0610
  15 C11      -4.3072    -5.8187    -1.7243  C.ar    1  <O>11      -0.0611
  16 C12      -3.4942    -6.7280    -2.4032  C.ar    1  <O>11      -0.0521
  17 C13      -2.5678    -7.5377    -1.7055  C.ar    1  <O>11       0.0106
  18 C14      -1.2337   -10.8229    -4.9139  C.ar    1  <O>11      -0.0555
  19 C15      -0.2346   -11.6922    -5.3656  C.ar    1  <O>11      -0.0254
  20 C16       1.1140   -11.3656    -5.2170  C.ar    1  <O>11       0.1355
  21 F1        2.0933   -12.2132    -5.6662  F       1  <O>11      -0.2047
  22 N3        3.5160   -10.1860    -3.2900  N.am    1  <O>11      -0.2959
  23 C17       3.0432   -10.8702    -2.2392  C.3     1  <O>11       0.0276
  24 C18       4.5466   -11.1367    -1.9852  C.3     1  <O>11       0.0671
  25 C19       5.0568   -12.4943    -2.4734  C.2     1  <O>11       0.2217
  26 O3        5.1665   -12.7113    -3.6713  O.2     1  <O>11      -0.2752
  27 N4        5.3905   -13.4655    -1.5686  N.am    1  <O>11      -0.3012
  28 C20       5.2812   -13.2626    -0.1698  C.3     1  <O>11       0.0147
  29 C21       5.9890   -14.4878     0.3924  C.3     1  <O>11      -0.0357
  30 C22       5.7570   -15.5410    -0.6841  C.3     1  <O>11      -0.0357
  31 C23       5.8670   -14.7374    -1.9699  C.3     1  <O>11       0.0147
  32 C24       4.7926    -9.9562    -2.9543  C.3     1  <O>11       0.0276
  33 H1       -2.9018    -9.1162    -4.0348  H       1  <O>11       0.0377
  34 H2       -1.8232    -7.7350    -4.3472  H       1  <O>11       0.0377
  35 H3       -0.0553    -9.6633     0.2062  H       1  <O>11       0.1921
  36 H4        2.5340   -10.2767    -1.4794  H       1  <O>11       0.0472
  37 H5        2.4417   -11.7472    -2.4794  H       1  <O>11       0.0472
  38 H6        4.8784   -10.9706    -0.9600  H       1  <O>11       0.0425
  39 H7        5.7814   -12.3437     0.1354  H       1  <O>11       0.0464
  40 H8        4.2369   -13.2302     0.1437  H       1  <O>11       0.0464
  41 H9        7.0538   -14.2967     0.5299  H       1  <O>11       0.0281
  42 H10       5.5479   -14.7940     1.3403  H       1  <O>11       0.0281
  43 H11       6.5199   -16.3187    -0.6406  H       1  <O>11       0.0281
  44 H12       4.7703   -15.9915    -0.5856  H       1  <O>11       0.0281
  45 H13       6.8988   -14.6811    -2.3161  H       1  <O>11       0.0464
  46 H14       5.2418   -15.1620    -2.7567  H       1  <O>11       0.0464
  47 H15       4.9909    -8.9924    -2.4843  H       1  <O>11       0.0472
  48 H16       5.5261   -10.1351    -3.7403  H       1  <O>11       0.0472
  49 H17       0.7403    -8.3868    -3.7107  H       1  <O>11       0.0629
  50 H18      -3.2569    -6.4193     1.3907  H       1  <O>11       0.0625
  51 H19      -4.8184    -5.0371     0.1630  H       1  <O>11       0.0618
  52 H20      -4.9735    -5.2299    -2.2481  H       1  <O>11       0.0618
  53 H21      -3.5702    -6.8106    -3.4291  H       1  <O>11       0.0624
  54 H22      -2.2289   -11.0716    -5.0266  H       1  <O>11       0.0621
  55 H23      -0.4978   -12.5841    -5.8131  H       1  <O>11       0.0646
@<TRIPOS>BOND
     1     1     2    2
     2     2     3    1
     3     3     4   ar
     4     4     5   ar
     5     5     6    1
     6     6     7    1
     7     7     8   ar
     8     8     9   ar
     9     9    10   ar
    10    10    11    2
    11    10    12   ar
    12    12    13   ar
    13    13    14   ar
    14    14    15   ar
    15    15    16   ar
    16    16    17   ar
    17     7    17   ar
    18    12    17   ar
    19     5    18   ar
    20    18    19   ar
    21    19    20   ar
    22     3    20   ar
    23    20    21    1
    24     2    22   am
    25    22    23    1
    26    23    24    1
    27    24    25    1
    28    25    26    2
    29    25    27   am
    30    27    28    1
    31    28    29    1
    32    29    30    1
    33    30    31    1
    34    27    31    1
    35    24    32    1
    36    22    32    1
    37     6    33    1
    38     6    34    1
    39     9    35    1
    40    23    36    1
    41    23    37    1
    42    24    38    1
    43    28    39    1
    44    28    40    1
    45    29    41    1
    46    29    42    1
    47    30    43    1
    48    30    44    1
    49    31    45    1
    50    31    46    1
    51    32    47    1
    52    32    48    1
    53     4    49    1
    54    13    50    1
    55    14    51    1
    56    15    52    1
    57    16    53    1
    58    18    54    1
    59    19    55    1
@<TRIPOS>MOLECULE
mol100_1_15
 55 59 0 0 0
SMALL
USER_CHARGES
****
VDW energy = -62.40
@<TRIPOS>ATOM
   1 O1        3.4420    -9.1855    -5.2979  O.2     1  <O>11      -0.2699
   2 C1        2.8552    -9.8129    -4.4288  C.2     1  <O>11       0.2494
   3 C2        1.4620   -10.1610    -4.6040  C.ar    1  <O>11       0.0723
   4 C3        0.4753    -9.2800    -4.1544  C.ar    1  <O>11      -0.0433
   5 C4       -0.8742    -9.6157    -4.3092  C.ar    1  <O>11      -0.0406
   6 C5       -1.9193    -8.6901    -3.8308  C.3     1  <O>11       0.0171
   7 C6       -1.7642    -8.4807    -2.3682  C.ar    1  <O>11       0.0736
   8 N1       -0.8165    -9.2227    -1.6542  N.ar    1  <O>11      -0.1750
   9 N2       -0.7335    -9.1203    -0.3080  N.ar    1  <O>11      -0.2425
  10 C7       -1.5731    -8.2784     0.3410  C.ar    1  <O>11       0.2725
  11 O2       -1.5021    -8.2909     1.7470  O.2     1  <O>11      -0.2658
  12 C8       -2.4784    -7.4258    -0.3072  C.ar    1  <O>11       0.0496
  13 C9       -3.3150    -6.5041     0.3638  C.ar    1  <O>11      -0.0487
  14 C10      -4.2177    -5.7078    -0.3413  C.ar    1  <O>11      -0.0610
  15 C11      -4.3072    -5.8187    -1.7243  C.ar    1  <O>11      -0.0611
  16 C12      -3.4942    -6.7280    -2.4032  C.ar    1  <O>11      -0.0521
  17 C13      -2.5678    -7.5377    -1.7055  C.ar    1  <O>11       0.0106
  18 C14      -1.2337   -10.8229    -4.9139  C.ar    1  <O>11      -0.0555
  19 C15      -0.2346   -11.6922    -5.3656  C.ar    1  <O>11      -0.0254
  20 C16       1.1140   -11.3656    -5.2170  C.ar    1  <O>11       0.1355
  21 F1        2.0933   -12.2132    -5.6662  F       1  <O>11      -0.2047
  22 N3        3.5160   -10.1860    -3.2900  N.am    1  <O>11      -0.2959
  23 C17       3.0432   -10.8702    -2.2392  C.3     1  <O>11       0.0276
  24 C18       4.5466   -11.1367    -1.9852  C.3     1  <O>11       0.0671
  25 C19       5.0568   -12.4943    -2.4734  C.2     1  <O>11       0.2217
  26 O3        5.1665   -12.7113    -3.6713  O.2     1  <O>11      -0.2752
  27 N4        5.3905   -13.4655    -1.5686  N.am    1  <O>11      -0.3012
  28 C20       5.8679   -14.7384    -1.9704  C.3     1  <O>11       0.0147
  29 C21       5.8493   -15.5196    -0.6636  C.3     1  <O>11      -0.0357
  30 C22       6.0706   -14.4369     0.3854  C.3     1  <O>11      -0.0357
  31 C23       5.2811   -13.2630    -0.1711  C.3     1  <O>11       0.0147
  32 C24       4.7926    -9.9562    -2.9543  C.3     1  <O>11       0.0276
  33 H1       -2.9018    -9.1162    -4.0348  H       1  <O>11       0.0377
  34 H2       -1.8232    -7.7350    -4.3472  H       1  <O>11       0.0377
  35 H3       -0.0553    -9.6633     0.2062  H       1  <O>11       0.1921
  36 H4        2.5340   -10.2767    -1.4794  H       1  <O>11       0.0472
  37 H5        2.4417   -11.7472    -2.4794  H       1  <O>11       0.0472
  38 H6        4.8784   -10.9706    -0.9600  H       1  <O>11       0.0425
  39 H7        5.2078   -15.1915    -2.7099  H       1  <O>11       0.0464
  40 H8        6.8779   -14.6708    -2.3767  H       1  <O>11       0.0464
  41 H9        4.8894   -16.0160    -0.5172  H       1  <O>11       0.0281
  42 H10       6.6496   -16.2583    -0.6379  H       1  <O>11       0.0281
  43 H11       5.6815   -14.7473     1.3554  H       1  <O>11       0.0281
  44 H12       7.1276   -14.1908     0.4779  H       1  <O>11       0.0281
  45 H13       4.2407   -13.2951     0.1521  H       1  <O>11       0.0464
  46 H14       5.7249   -12.3114     0.1250  H       1  <O>11       0.0464
  47 H15       4.9909    -8.9924    -2.4843  H       1  <O>11       0.0472
  48 H16       5.5261   -10.1351    -3.7403  H       1  <O>11       0.0472
  49 H17       0.7403    -8.3868    -3.7107  H       1  <O>11       0.0629
  50 H18      -3.2569    -6.4193     1.3907  H       1  <O>11       0.0625
  51 H19      -4.8184    -5.0371     0.1630  H       1  <O>11       0.0618
  52 H20      -4.9735    -5.2299    -2.2481  H       1  <O>11       0.0618
  53 H21      -3.5702    -6.8106    -3.4291  H       1  <O>11       0.0624
  54 H22      -2.2289   -11.0716    -5.0266  H       1  <O>11       0.0621
  55 H23      -0.4978   -12.5841    -5.8131  H       1  <O>11       0.0646
@<TRIPOS>BOND
     1     1     2    2
     2     2     3    1
     3     3     4   ar
     4     4     5   ar
     5     5     6    1
     6     6     7    1
     7     7     8   ar
     8     8     9   ar
     9     9    10   ar
    10    10    11    2
    11    10    12   ar
    12    12    13   ar
    13    13    14   ar
    14    14    15   ar
    15    15    16   ar
    16    16    17   ar
    17     7    17   ar
    18    12    17   ar
    19     5    18   ar
    20    18    19   ar
    21    19    20   ar
    22     3    20   ar
    23    20    21    1
    24     2    22   am
    25    22    23    1
    26    23    24    1
    27    24    25    1
    28    25    26    2
    29    25    27   am
    30    27    28    1
    31    28    29    1
    32    29    30    1
    33    30    31    1
    34    27    31    1
    35    24    32    1
    36    22    32    1
    37     6    33    1
    38     6    34    1
    39     9    35    1
    40    23    36    1
    41    23    37    1
    42    24    38    1
    43    28    39    1
    44    28    40    1
    45    29    41    1
    46    29    42    1
    47    30    43    1
    48    30    44    1
    49    31    45    1
    50    31    46    1
    51    32    47    1
    52    32    48    1
    53     4    49    1
    54    13    50    1
    55    14    51    1
    56    15    52    1
    57    16    53    1
    58    18    54    1
    59    19    55    1
@<TRIPOS>MOLECULE
mol100_1_16
 55 59 0 0 0
SMALL
USER_CHARGES
****
VDW energy = -61.17
@<TRIPOS>ATOM
   1 O1        3.4420    -9.1855    -5.2979  O.2     1  <O>11      -0.2699
   2 C1        2.8552    -9.8129    -4.4288  C.2     1  <O>11       0.2494
   3 C2        1.4620   -10.1610    -4.6040  C.ar    1  <O>11       0.0723
   4 C3        0.4753    -9.2800    -4.1544  C.ar    1  <O>11      -0.0433
   5 C4       -0.8742    -9.6157    -4.3092  C.ar    1  <O>11      -0.0406
   6 C5       -1.9193    -8.6901    -3.8308  C.3     1  <O>11       0.0171
   7 C6       -1.7876    -7.3879    -4.5338  C.ar    1  <O>11       0.0736
   8 N1       -0.7039    -7.1645    -5.3906  N.ar    1  <O>11      -0.1750
   9 N2       -0.5123    -5.9510    -5.9567  N.ar    1  <O>11      -0.2425
  10 C7       -1.3924    -4.9555    -5.6933  C.ar    1  <O>11       0.2725
  11 O2       -1.0831    -3.6929    -6.2339  O.2     1  <O>11      -0.2658
  12 C8       -2.5571    -5.1250    -4.9308  C.ar    1  <O>11       0.0496
  13 C9       -3.5075    -4.1032    -4.7022  C.ar    1  <O>11      -0.0487
  14 C10      -4.6296    -4.3310    -3.9051  C.ar    1  <O>11      -0.0610
  15 C11      -4.8221    -5.5765    -3.3180  C.ar    1  <O>11      -0.0611
  16 C12      -3.8909    -6.5952    -3.5268  C.ar    1  <O>11      -0.0521
  17 C13      -2.7517    -6.3846    -4.3382  C.ar    1  <O>11       0.0106
  18 C14      -1.2337   -10.8229    -4.9139  C.ar    1  <O>11      -0.0555
  19 C15      -0.2346   -11.6922    -5.3656  C.ar    1  <O>11      -0.0254
  20 C16       1.1140   -11.3656    -5.2170  C.ar    1  <O>11       0.1355
  21 F1        2.0933   -12.2132    -5.6662  F       1  <O>11      -0.2047
  22 N3        3.5160   -10.1860    -3.2900  N.am    1  <O>11      -0.2959
  23 C17       3.0432   -10.8702    -2.2392  C.3     1  <O>11       0.0276
  24 C18       4.5466   -11.1367    -1.9852  C.3     1  <O>11       0.0671
  25 C19       5.0568   -12.4943    -2.4734  C.2     1  <O>11       0.2217
  26 O3        5.1665   -12.7113    -3.6713  O.2     1  <O>11      -0.2752
  27 N4        5.3905   -13.4655    -1.5686  N.am    1  <O>11      -0.3012
  28 C20       5.8679   -14.7384    -1.9704  C.3     1  <O>11       0.0147
  29 C21       5.8493   -15.5196    -0.6636  C.3     1  <O>11      -0.0357
  30 C22       6.0706   -14.4369     0.3854  C.3     1  <O>11      -0.0357
  31 C23       5.2811   -13.2630    -0.1711  C.3     1  <O>11       0.0147
  32 C24       4.7926    -9.9562    -2.9543  C.3     1  <O>11       0.0276
  33 H1       -1.8042    -8.5370    -2.7576  H       1  <O>11       0.0377
  34 H2       -2.9021    -9.1153    -4.0338  H       1  <O>11       0.0377
  35 H3        0.2753    -5.7892    -6.5672  H       1  <O>11       0.1921
  36 H4        2.5340   -10.2767    -1.4794  H       1  <O>11       0.0472
  37 H5        2.4417   -11.7472    -2.4794  H       1  <O>11       0.0472
  38 H6        4.8784   -10.9706    -0.9600  H       1  <O>11       0.0425
  39 H7        5.2078   -15.1915    -2.7099  H       1  <O>11       0.0464
  40 H8        6.8779   -14.6708    -2.3767  H       1  <O>11       0.0464
  41 H9        4.8894   -16.0160    -0.5172  H       1  <O>11       0.0281
  42 H10       6.6496   -16.2583    -0.6379  H       1  <O>11       0.0281
  43 H11       5.6815   -14.7473     1.3554  H       1  <O>11       0.0281
  44 H12       7.1276   -14.1908     0.4779  H       1  <O>11       0.0281
  45 H13       4.2407   -13.2951     0.1521  H       1  <O>11       0.0464
  46 H14       5.7249   -12.3114     0.1250  H       1  <O>11       0.0464
  47 H15       4.9909    -8.9924    -2.4843  H       1  <O>11       0.0472
  48 H16       5.5261   -10.1351    -3.7403  H       1  <O>11       0.0472
  49 H17       0.7403    -8.3868    -3.7107  H       1  <O>11       0.0629
  50 H18      -3.3691    -3.1750    -5.1315  H       1  <O>11       0.0625
  51 H19      -5.3161    -3.5758    -3.7514  H       1  <O>11       0.0618
  52 H20      -5.6520    -5.7475    -2.7289  H       1  <O>11       0.0618
  53 H21      -4.0358    -7.5154    -3.0827  H       1  <O>11       0.0624
  54 H22      -2.2289   -11.0716    -5.0266  H       1  <O>11       0.0621
  55 H23      -0.4978   -12.5841    -5.8131  H       1  <O>11       0.0646
@<TRIPOS>BOND
     1     1     2    2
     2     2     3    1
     3     3     4   ar
     4     4     5   ar
     5     5     6    1
     6     6     7    1
     7     7     8   ar
     8     8     9   ar
     9     9    10   ar
    10    10    11    2
    11    10    12   ar
    12    12    13   ar
    13    13    14   ar
    14    14    15   ar
    15    15    16   ar
    16    16    17   ar
    17     7    17   ar
    18    12    17   ar
    19     5    18   ar
    20    18    19   ar
    21    19    20   ar
    22     3    20   ar
    23    20    21    1
    24     2    22   am
    25    22    23    1
    26    23    24    1
    27    24    25    1
    28    25    26    2
    29    25    27   am
    30    27    28    1
    31    28    29    1
    32    29    30    1
    33    30    31    1
    34    27    31    1
    35    24    32    1
    36    22    32    1
    37     6    33    1
    38     6    34    1
    39     9    35    1
    40    23    36    1
    41    23    37    1
    42    24    38    1
    43    28    39    1
    44    28    40    1
    45    29    41    1
    46    29    42    1
    47    30    43    1
    48    30    44    1
    49    31    45    1
    50    31    46    1
    51    32    47    1
    52    32    48    1
    53     4    49    1
    54    13    50    1
    55    14    51    1
    56    15    52    1
    57    16    53    1
    58    18    54    1
    59    19    55    1
@<TRIPOS>MOLECULE
mol100_1_17
 55 59 0 0 0
SMALL
USER_CHARGES
****
VDW energy = -60.70
@<TRIPOS>ATOM
   1 O1        3.4420    -9.1855    -5.2979  O.2     1  <O>11      -0.2699
   2 C1        2.8552    -9.8129    -4.4288  C.2     1  <O>11       0.2494
   3 C2        1.4620   -10.1610    -4.6040  C.ar    1  <O>11       0.0723
   4 C3        0.4753    -9.2800    -4.1544  C.ar    1  <O>11      -0.0433
   5 C4       -0.8742    -9.6157    -4.3092  C.ar    1  <O>11      -0.0406
   6 C5       -1.9193    -8.6901    -3.8308  C.3     1  <O>11       0.0171
   7 C6       -1.7642    -8.4807    -2.3682  C.ar    1  <O>11       0.0736
   8 N1       -1.5337    -7.1940    -1.8685  N.ar    1  <O>11      -0.1750
   9 N2       -1.2871    -7.0001    -0.5527  N.ar    1  <O>11      -0.2425
  10 C7       -1.2786    -8.0687     0.2798  C.ar    1  <O>11       0.2725
  11 O2       -0.9198    -7.8126     1.6168  O.2     1  <O>11      -0.2658
  12 C8       -1.6006    -9.3734    -0.1216  C.ar    1  <O>11       0.0496
  13 C9       -1.6495   -10.4808     0.7563  C.ar    1  <O>11      -0.0487
  14 C10      -1.9452   -11.7597     0.2837  C.ar    1  <O>11      -0.0610
  15 C11      -2.1918   -11.9592    -1.0699  C.ar    1  <O>11      -0.0611
  16 C12      -2.1412   -10.8790    -1.9526  C.ar    1  <O>11      -0.0521
  17 C13      -1.8507    -9.5743    -1.4901  C.ar    1  <O>11       0.0106
  18 C14      -1.2337   -10.8229    -4.9139  C.ar    1  <O>11      -0.0555
  19 C15      -0.2346   -11.6922    -5.3656  C.ar    1  <O>11      -0.0254
  20 C16       1.1140   -11.3656    -5.2170  C.ar    1  <O>11       0.1355
  21 F1        2.0933   -12.2132    -5.6662  F       1  <O>11      -0.2047
  22 N3        3.5160   -10.1860    -3.2900  N.am    1  <O>11      -0.2959
  23 C17       3.0432   -10.8702    -2.2392  C.3     1  <O>11       0.0276
  24 C18       4.5466   -11.1367    -1.9852  C.3     1  <O>11       0.0671
  25 C19       5.0568   -12.4943    -2.4734  C.2     1  <O>11       0.2217
  26 O3        5.1665   -12.7113    -3.6713  O.2     1  <O>11      -0.2752
  27 N4        5.3905   -13.4655    -1.5686  N.am    1  <O>11      -0.3012
  28 C20       5.2812   -13.2626    -0.1698  C.3     1  <O>11       0.0147
  29 C21       5.9890   -14.4878     0.3924  C.3     1  <O>11      -0.0357
  30 C22       5.7570   -15.5410    -0.6841  C.3     1  <O>11      -0.0357
  31 C23       5.8670   -14.7374    -1.9699  C.3     1  <O>11       0.0147
  32 C24       4.7926    -9.9562    -2.9543  C.3     1  <O>11       0.0276
  33 H1       -2.9018    -9.1162    -4.0348  H       1  <O>11       0.0377
  34 H2       -1.8232    -7.7350    -4.3472  H       1  <O>11       0.0377
  35 H3       -1.1119    -6.0722    -0.1957  H       1  <O>11       0.1921
  36 H4        2.5340   -10.2767    -1.4794  H       1  <O>11       0.0472
  37 H5        2.4417   -11.7472    -2.4794  H       1  <O>11       0.0472
  38 H6        4.8784   -10.9706    -0.9600  H       1  <O>11       0.0425
  39 H7        5.7814   -12.3437     0.1354  H       1  <O>11       0.0464
  40 H8        4.2369   -13.2302     0.1437  H       1  <O>11       0.0464
  41 H9        7.0538   -14.2967     0.5299  H       1  <O>11       0.0281
  42 H10       5.5479   -14.7940     1.3403  H       1  <O>11       0.0281
  43 H11       6.5199   -16.3187    -0.6406  H       1  <O>11       0.0281
  44 H12       4.7703   -15.9915    -0.5856  H       1  <O>11       0.0281
  45 H13       6.8988   -14.6811    -2.3161  H       1  <O>11       0.0464
  46 H14       5.2418   -15.1620    -2.7567  H       1  <O>11       0.0464
  47 H15       4.9909    -8.9924    -2.4843  H       1  <O>11       0.0472
  48 H16       5.5261   -10.1351    -3.7403  H       1  <O>11       0.0472
  49 H17       0.7403    -8.3868    -3.7107  H       1  <O>11       0.0629
  50 H18      -1.4636   -10.3409     1.7617  H       1  <O>11       0.0625
  51 H19      -1.9809   -12.5568     0.9382  H       1  <O>11       0.0618
  52 H20      -2.4118   -12.9042    -1.4215  H       1  <O>11       0.0618
  53 H21      -2.3183   -11.0346    -2.9574  H       1  <O>11       0.0624
  54 H22      -2.2289   -11.0716    -5.0266  H       1  <O>11       0.0621
  55 H23      -0.4978   -12.5841    -5.8131  H       1  <O>11       0.0646
@<TRIPOS>BOND
     1     1     2    2
     2     2     3    1
     3     3     4   ar
     4     4     5   ar
     5     5     6    1
     6     6     7    1
     7     7     8   ar
     8     8     9   ar
     9     9    10   ar
    10    10    11    2
    11    10    12   ar
    12    12    13   ar
    13    13    14   ar
    14    14    15   ar
    15    15    16   ar
    16    16    17   ar
    17     7    17   ar
    18    12    17   ar
    19     5    18   ar
    20    18    19   ar
    21    19    20   ar
    22     3    20   ar
    23    20    21    1
    24     2    22   am
    25    22    23    1
    26    23    24    1
    27    24    25    1
    28    25    26    2
    29    25    27   am
    30    27    28    1
    31    28    29    1
    32    29    30    1
    33    30    31    1
    34    27    31    1
    35    24    32    1
    36    22    32    1
    37     6    33    1
    38     6    34    1
    39     9    35    1
    40    23    36    1
    41    23    37    1
    42    24    38    1
    43    28    39    1
    44    28    40    1
    45    29    41    1
    46    29    42    1
    47    30    43    1
    48    30    44    1
    49    31    45    1
    50    31    46    1
    51    32    47    1
    52    32    48    1
    53     4    49    1
    54    13    50    1
    55    14    51    1
    56    15    52    1
    57    16    53    1
    58    18    54    1
    59    19    55    1
@<TRIPOS>MOLECULE
mol100_1_18
 55 59 0 0 0
SMALL
USER_CHARGES
****
VDW energy = -60.44
@<TRIPOS>ATOM
   1 O1        3.4420    -9.1855    -5.2979  O.2     1  <O>11      -0.2699
   2 C1        2.8552    -9.8129    -4.4288  C.2     1  <O>11       0.2494
   3 C2        1.4620   -10.1610    -4.6040  C.ar    1  <O>11       0.0723
   4 C3        0.4753    -9.2800    -4.1544  C.ar    1  <O>11      -0.0433
   5 C4       -0.8742    -9.6157    -4.3092  C.ar    1  <O>11      -0.0406
   6 C5       -1.9193    -8.6901    -3.8308  C.3     1  <O>11       0.0171
   7 C6       -1.7642    -8.4807    -2.3682  C.ar    1  <O>11       0.0736
   8 N1       -2.4261    -9.3244    -1.4690  N.ar    1  <O>11      -0.1750
   9 N2       -2.3798    -9.0850    -0.1385  N.ar    1  <O>11      -0.2425
  10 C7       -1.6719    -8.0228     0.3149  C.ar    1  <O>11       0.2725
  11 O2       -1.7437    -7.7724     1.6985  O.2     1  <O>11      -0.2658
  12 C8       -0.8984    -7.1916    -0.5083  C.ar    1  <O>11       0.0496
  13 C9       -0.1121    -6.1175    -0.0312  C.ar    1  <O>11      -0.0487
  14 C10       0.6085    -5.3087    -0.9103  C.ar    1  <O>11      -0.0610
  15 C11       0.5547    -5.5512    -2.2782  C.ar    1  <O>11      -0.0611
  16 C12      -0.2217    -6.6027    -2.7682  C.ar    1  <O>11      -0.0521
  17 C13      -0.9525    -7.4378    -1.8912  C.ar    1  <O>11       0.0106
  18 C14      -1.2337   -10.8229    -4.9139  C.ar    1  <O>11      -0.0555
  19 C15      -0.2346   -11.6922    -5.3656  C.ar    1  <O>11      -0.0254
  20 C16       1.1140   -11.3656    -5.2170  C.ar    1  <O>11       0.1355
  21 F1        2.0933   -12.2132    -5.6662  F       1  <O>11      -0.2047
  22 N3        3.5160   -10.1860    -3.2900  N.am    1  <O>11      -0.2959
  23 C17       4.7930    -9.9559    -2.9549  C.3     1  <O>11       0.0276
  24 C18       4.2649   -10.2400    -1.5280  C.3     1  <O>11       0.0671
  25 C19       3.9578    -8.9971    -0.6899  C.2     1  <O>11       0.2217
  26 O3        2.9936    -8.2977    -0.9644  O.2     1  <O>11      -0.2752
  27 N4        4.7626    -8.6687     0.3673  N.am    1  <O>11      -0.3012
  28 C20       4.5200    -7.5284     1.1739  C.3     1  <O>11       0.0147
  29 C21       5.7858    -7.4514     2.0166  C.3     1  <O>11      -0.0357
  30 C22       6.2257    -8.9075     2.1070  C.3     1  <O>11      -0.0357
  31 C23       5.8907    -9.4464     0.7255  C.3     1  <O>11       0.0147
  32 C24       3.0440   -10.8701    -2.2391  C.3     1  <O>11       0.0276
  33 H1       -2.9018    -9.1162    -4.0348  H       1  <O>11       0.0377
  34 H2       -1.8232    -7.7350    -4.3472  H       1  <O>11       0.0377
  35 H3       -2.8655    -9.6895     0.5079  H       1  <O>11       0.1921
  36 H4        5.5191   -10.6718    -3.3410  H       1  <O>11       0.0472
  37 H5        5.1519    -8.9418    -3.1329  H       1  <O>11       0.0472
  38 H6        4.8680   -10.9340    -0.9420  H       1  <O>11       0.0425
  39 H7        4.3972    -6.6333     0.5643  H       1  <O>11       0.0464
  40 H8        3.6366    -7.6676     1.7985  H       1  <O>11       0.0464
  41 H9        6.5465    -6.8425     1.5267  H       1  <O>11       0.0281
  42 H10       5.5739    -7.0450     3.0048  H       1  <O>11       0.0281
  43 H11       7.2947    -8.9809     2.3085  H       1  <O>11       0.0281
  44 H12       5.6712    -9.4372     2.8804  H       1  <O>11       0.0281
  45 H13       6.7141    -9.2918     0.0284  H       1  <O>11       0.0464
  46 H14       5.6413   -10.5077     0.7644  H       1  <O>11       0.0464
  47 H15       3.0621   -11.9561    -2.3361  H       1  <O>11       0.0472
  48 H16       2.0680   -10.5542    -1.8711  H       1  <O>11       0.0472
  49 H17       0.7403    -8.3868    -3.7107  H       1  <O>11       0.0629
  50 H18      -0.0707    -5.9291     0.9826  H       1  <O>11       0.0625
  51 H19       1.1808    -4.5312    -0.5456  H       1  <O>11       0.0618
  52 H20       1.0877    -4.9547    -2.9303  H       1  <O>11       0.0618
  53 H21      -0.2631    -6.7734    -3.7852  H       1  <O>11       0.0624
  54 H22      -2.2289   -11.0716    -5.0266  H       1  <O>11       0.0621
  55 H23      -0.4978   -12.5841    -5.8131  H       1  <O>11       0.0646
@<TRIPOS>BOND
     1     1     2    2
     2     2     3    1
     3     3     4   ar
     4     4     5   ar
     5     5     6    1
     6     6     7    1
     7     7     8   ar
     8     8     9   ar
     9     9    10   ar
    10    10    11    2
    11    10    12   ar
    12    12    13   ar
    13    13    14   ar
    14    14    15   ar
    15    15    16   ar
    16    16    17   ar
    17     7    17   ar
    18    12    17   ar
    19     5    18   ar
    20    18    19   ar
    21    19    20   ar
    22     3    20   ar
    23    20    21    1
    24     2    22   am
    25    22    23    1
    26    23    24    1
    27    24    25    1
    28    25    26    2
    29    25    27   am
    30    27    28    1
    31    28    29    1
    32    29    30    1
    33    30    31    1
    34    27    31    1
    35    24    32    1
    36    22    32    1
    37     6    33    1
    38     6    34    1
    39     9    35    1
    40    23    36    1
    41    23    37    1
    42    24    38    1
    43    28    39    1
    44    28    40    1
    45    29    41    1
    46    29    42    1
    47    30    43    1
    48    30    44    1
    49    31    45    1
    50    31    46    1
    51    32    47    1
    52    32    48    1
    53     4    49    1
    54    13    50    1
    55    14    51    1
    56    15    52    1
    57    16    53    1
    58    18    54    1
    59    19    55    1
@<TRIPOS>MOLECULE
mol100_1_19
 55 59 0 0 0
SMALL
USER_CHARGES
****
VDW energy = -60.31
@<TRIPOS>ATOM
   1 O1        3.4420    -9.1855    -5.2979  O.2     1  <O>11      -0.2699
   2 C1        2.8552    -9.8129    -4.4288  C.2     1  <O>11       0.2494
   3 C2        1.4620   -10.1610    -4.6040  C.ar    1  <O>11       0.0723
   4 C3        0.4753    -9.2800    -4.1544  C.ar    1  <O>11      -0.0433
   5 C4       -0.8742    -9.6157    -4.3092  C.ar    1  <O>11      -0.0406
   6 C5       -1.9193    -8.6901    -3.8308  C.3     1  <O>11       0.0171
   7 C6       -1.7642    -8.4807    -2.3682  C.ar    1  <O>11       0.0736
   8 N1       -1.5337    -7.1940    -1.8685  N.ar    1  <O>11      -0.1750
   9 N2       -1.2871    -7.0001    -0.5527  N.ar    1  <O>11      -0.2425
  10 C7       -1.2786    -8.0687     0.2798  C.ar    1  <O>11       0.2725
  11 O2       -0.9198    -7.8126     1.6168  O.2     1  <O>11      -0.2658
  12 C8       -1.6006    -9.3734    -0.1216  C.ar    1  <O>11       0.0496
  13 C9       -1.6495   -10.4808     0.7563  C.ar    1  <O>11      -0.0487
  14 C10      -1.9452   -11.7597     0.2837  C.ar    1  <O>11      -0.0610
  15 C11      -2.1918   -11.9592    -1.0699  C.ar    1  <O>11      -0.0611
  16 C12      -2.1412   -10.8790    -1.9526  C.ar    1  <O>11      -0.0521
  17 C13      -1.8507    -9.5743    -1.4901  C.ar    1  <O>11       0.0106
  18 C14      -1.2337   -10.8229    -4.9139  C.ar    1  <O>11      -0.0555
  19 C15      -0.2346   -11.6922    -5.3656  C.ar    1  <O>11      -0.0254
  20 C16       1.1140   -11.3656    -5.2170  C.ar    1  <O>11       0.1355
  21 F1        2.0933   -12.2132    -5.6662  F       1  <O>11      -0.2047
  22 N3        3.5160   -10.1860    -3.2900  N.am    1  <O>11      -0.2959
  23 C17       3.0432   -10.8702    -2.2392  C.3     1  <O>11       0.0276
  24 C18       4.5466   -11.1367    -1.9852  C.3     1  <O>11       0.0671
  25 C19       5.0568   -12.4943    -2.4734  C.2     1  <O>11       0.2217
  26 O3        5.1665   -12.7113    -3.6713  O.2     1  <O>11      -0.2752
  27 N4        5.3905   -13.4655    -1.5686  N.am    1  <O>11      -0.3012
  28 C20       5.8679   -14.7384    -1.9704  C.3     1  <O>11       0.0147
  29 C21       5.8493   -15.5196    -0.6636  C.3     1  <O>11      -0.0357
  30 C22       6.0706   -14.4369     0.3854  C.3     1  <O>11      -0.0357
  31 C23       5.2811   -13.2630    -0.1711  C.3     1  <O>11       0.0147
  32 C24       4.7926    -9.9562    -2.9543  C.3     1  <O>11       0.0276
  33 H1       -2.9018    -9.1162    -4.0348  H       1  <O>11       0.0377
  34 H2       -1.8232    -7.7350    -4.3472  H       1  <O>11       0.0377
  35 H3       -1.1119    -6.0722    -0.1957  H       1  <O>11       0.1921
  36 H4        2.5340   -10.2767    -1.4794  H       1  <O>11       0.0472
  37 H5        2.4417   -11.7472    -2.4794  H       1  <O>11       0.0472
  38 H6        4.8784   -10.9706    -0.9600  H       1  <O>11       0.0425
  39 H7        5.2078   -15.1915    -2.7099  H       1  <O>11       0.0464
  40 H8        6.8779   -14.6708    -2.3767  H       1  <O>11       0.0464
  41 H9        4.8894   -16.0160    -0.5172  H       1  <O>11       0.0281
  42 H10       6.6496   -16.2583    -0.6379  H       1  <O>11       0.0281
  43 H11       5.6815   -14.7473     1.3554  H       1  <O>11       0.0281
  44 H12       7.1276   -14.1908     0.4779  H       1  <O>11       0.0281
  45 H13       4.2407   -13.2951     0.1521  H       1  <O>11       0.0464
  46 H14       5.7249   -12.3114     0.1250  H       1  <O>11       0.0464
  47 H15       4.9909    -8.9924    -2.4843  H       1  <O>11       0.0472
  48 H16       5.5261   -10.1351    -3.7403  H       1  <O>11       0.0472
  49 H17       0.7403    -8.3868    -3.7107  H       1  <O>11       0.0629
  50 H18      -1.4636   -10.3409     1.7617  H       1  <O>11       0.0625
  51 H19      -1.9809   -12.5568     0.9382  H       1  <O>11       0.0618
  52 H20      -2.4118   -12.9042    -1.4215  H       1  <O>11       0.0618
  53 H21      -2.3183   -11.0346    -2.9574  H       1  <O>11       0.0624
  54 H22      -2.2289   -11.0716    -5.0266  H       1  <O>11       0.0621
  55 H23      -0.4978   -12.5841    -5.8131  H       1  <O>11       0.0646
@<TRIPOS>BOND
     1     1     2    2
     2     2     3    1
     3     3     4   ar
     4     4     5   ar
     5     5     6    1
     6     6     7    1
     7     7     8   ar
     8     8     9   ar
     9     9    10   ar
    10    10    11    2
    11    10    12   ar
    12    12    13   ar
    13    13    14   ar
    14    14    15   ar
    15    15    16   ar
    16    16    17   ar
    17     7    17   ar
    18    12    17   ar
    19     5    18   ar
    20    18    19   ar
    21    19    20   ar
    22     3    20   ar
    23    20    21    1
    24     2    22   am
    25    22    23    1
    26    23    24    1
    27    24    25    1
    28    25    26    2
    29    25    27   am
    30    27    28    1
    31    28    29    1
    32    29    30    1
    33    30    31    1
    34    27    31    1
    35    24    32    1
    36    22    32    1
    37     6    33    1
    38     6    34    1
    39     9    35    1
    40    23    36    1
    41    23    37    1
    42    24    38    1
    43    28    39    1
    44    28    40    1
    45    29    41    1
    46    29    42    1
    47    30    43    1
    48    30    44    1
    49    31    45    1
    50    31    46    1
    51    32    47    1
    52    32    48    1
    53     4    49    1
    54    13    50    1
    55    14    51    1
    56    15    52    1
    57    16    53    1
    58    18    54    1
    59    19    55    1
@<TRIPOS>MOLECULE
mol100_1_20
 55 59 0 0 0
SMALL
USER_CHARGES
****
VDW energy = -60.14
@<TRIPOS>ATOM
   1 O1        3.4420    -9.1855    -5.2979  O.2     1  <O>11      -0.2699
   2 C1        2.8552    -9.8129    -4.4288  C.2     1  <O>11       0.2494
   3 C2        1.4620   -10.1610    -4.6040  C.ar    1  <O>11       0.0723
   4 C3        1.1317   -11.3710    -5.2192  C.ar    1  <O>11      -0.0433
   5 C4       -0.2136   -11.7087    -5.4033  C.ar    1  <O>11      -0.0406
   6 C5       -0.5665   -12.9836    -6.0575  C.3     1  <O>11       0.0171
   7 C6       -2.0449   -13.1087    -6.1342  C.ar    1  <O>11       0.0736
   8 N1       -2.7483   -13.7179    -5.0889  N.ar    1  <O>11      -0.1750
   9 N2       -4.0800   -13.9333    -5.1885  N.ar    1  <O>11      -0.2425
  10 C7       -4.7284   -13.5390    -6.3106  C.ar    1  <O>11       0.2725
  11 O2       -6.0920   -13.8793    -6.3929  O.2     1  <O>11      -0.2658
  12 C8       -4.1184   -12.8316    -7.3567  C.ar    1  <O>11       0.0496
  13 C9       -4.8048   -12.3679    -8.5027  C.ar    1  <O>11      -0.0487
  14 C10      -4.1290   -11.6980    -9.5229  C.ar    1  <O>11      -0.0610
  15 C11      -2.7590   -11.4833    -9.4229  C.ar    1  <O>11      -0.0611
  16 C12      -2.0634   -11.9400    -8.3021  C.ar    1  <O>11      -0.0521
  17 C13      -2.7335   -12.6140    -7.2546  C.ar    1  <O>11       0.0106
  18 C14      -1.2215   -10.8431    -4.9705  C.ar    1  <O>11      -0.0555
  19 C15      -0.8757    -9.6378    -4.3497  C.ar    1  <O>11      -0.0254
  20 C16       0.4633    -9.2929    -4.1603  C.ar    1  <O>11       0.1355
  21 F1        0.8028    -8.1157    -3.5453  F       1  <O>11      -0.2047
  22 N3        3.5160   -10.1860    -3.2900  N.am    1  <O>11      -0.2959
  23 C17       3.0432   -10.8702    -2.2392  C.3     1  <O>11       0.0276
  24 C18       4.5466   -11.1367    -1.9852  C.3     1  <O>11       0.0671
  25 C19       5.0568   -12.4943    -2.4734  C.2     1  <O>11       0.2217
  26 O3        5.1665   -12.7113    -3.6713  O.2     1  <O>11      -0.2752
  27 N4        5.3905   -13.4655    -1.5686  N.am    1  <O>11      -0.3012
  28 C20       5.8679   -14.7384    -1.9704  C.3     1  <O>11       0.0147
  29 C21       5.8493   -15.5196    -0.6636  C.3     1  <O>11      -0.0357
  30 C22       6.0706   -14.4369     0.3854  C.3     1  <O>11      -0.0357
  31 C23       5.2811   -13.2630    -0.1711  C.3     1  <O>11       0.0147
  32 C24       4.7926    -9.9562    -2.9543  C.3     1  <O>11       0.0276
  33 H1       -0.1612   -13.8129    -5.4774  H       1  <O>11       0.0377
  34 H2       -0.1470   -13.0044    -7.0633  H       1  <O>11       0.0377
  35 H3       -4.5840   -14.3812    -4.4372  H       1  <O>11       0.1921
  36 H4        2.5340   -10.2767    -1.4794  H       1  <O>11       0.0472
  37 H5        2.4417   -11.7472    -2.4794  H       1  <O>11       0.0472
  38 H6        4.8784   -10.9706    -0.9600  H       1  <O>11       0.0425
  39 H7        5.2078   -15.1915    -2.7099  H       1  <O>11       0.0464
  40 H8        6.8779   -14.6708    -2.3767  H       1  <O>11       0.0464
  41 H9        4.8894   -16.0160    -0.5172  H       1  <O>11       0.0281
  42 H10       6.6496   -16.2583    -0.6379  H       1  <O>11       0.0281
  43 H11       5.6815   -14.7473     1.3554  H       1  <O>11       0.0281
  44 H12       7.1276   -14.1908     0.4779  H       1  <O>11       0.0281
  45 H13       4.2407   -13.2951     0.1521  H       1  <O>11       0.0464
  46 H14       5.7249   -12.3114     0.1250  H       1  <O>11       0.0464
  47 H15       4.9909    -8.9924    -2.4843  H       1  <O>11       0.0472
  48 H16       5.5261   -10.1351    -3.7403  H       1  <O>11       0.0472
  49 H17       1.8757   -12.0122    -5.5360  H       1  <O>11       0.0629
  50 H18      -5.8210   -12.5273    -8.5856  H       1  <O>11       0.0625
  51 H19      -4.6453   -11.3623   -10.3510  H       1  <O>11       0.0618
  52 H20      -2.2572   -10.9871   -10.1759  H       1  <O>11       0.0618
  53 H21      -1.0454   -11.7837    -8.2369  H       1  <O>11       0.0624
  54 H22      -2.2138   -11.0911    -5.1078  H       1  <O>11       0.0621
  55 H23      -1.6184    -8.9973    -4.0287  H       1  <O>11       0.0646
@<TRIPOS>BOND
     1     1     2    2
     2     2     3    1
     3     3     4   ar
     4     4     5   ar
     5     5     6    1
     6     6     7    1
     7     7     8   ar
     8     8     9   ar
     9     9    10   ar
    10    10    11    2
    11    10    12   ar
    12    12    13   ar
    13    13    14   ar
    14    14    15   ar
    15    15    16   ar
    16    16    17   ar
    17     7    17   ar
    18    12    17   ar
    19     5    18   ar
    20    18    19   ar
    21    19    20   ar
    22     3    20   ar
    23    20    21    1
    24     2    22   am
    25    22    23    1
    26    23    24    1
    27    24    25    1
    28    25    26    2
    29    25    27   am
    30    27    28    1
    31    28    29    1
    32    29    30    1
    33    30    31    1
    34    27    31    1
    35    24    32    1
    36    22    32    1
    37     6    33    1
    38     6    34    1
    39     9    35    1
    40    23    36    1
    41    23    37    1
    42    24    38    1
    43    28    39    1
    44    28    40    1
    45    29    41    1
    46    29    42    1
    47    30    43    1
    48    30    44    1
    49    31    45    1
    50    31    46    1
    51    32    47    1
    52    32    48    1
    53     4    49    1
    54    13    50    1
    55    14    51    1
    56    15    52    1
    57    16    53    1
    58    18    54    1
    59    19    55    1
@<TRIPOS>MOLECULE
mol100_1_21
 55 59 0 0 0
SMALL
USER_CHARGES
****
VDW energy = -57.72
@<TRIPOS>ATOM
   1 O1        3.4420    -9.1855    -5.2979  O.2     1  <O>11      -0.2699
   2 C1        2.8552    -9.8129    -4.4288  C.2     1  <O>11       0.2494
   3 C2        1.4620   -10.1610    -4.6040  C.ar    1  <O>11       0.0723
   4 C3        1.1317   -11.3710    -5.2192  C.ar    1  <O>11      -0.0433
   5 C4       -0.2136   -11.7087    -5.4033  C.ar    1  <O>11      -0.0406
   6 C5       -0.5665   -12.9836    -6.0575  C.3     1  <O>11       0.0171
   7 C6        0.0042   -13.0116    -7.4288  C.ar    1  <O>11       0.0736
   8 N1       -0.7428   -12.5200    -8.5053  N.ar    1  <O>11      -0.1750
   9 N2       -0.2819   -12.6326    -9.7719  N.ar    1  <O>11      -0.2425
  10 C7        0.9213   -13.2173    -9.9850  C.ar    1  <O>11       0.2725
  11 O2        1.2986   -13.3914   -11.3301  O.2     1  <O>11      -0.2658
  12 C8        1.7757   -13.6418    -8.9571  C.ar    1  <O>11       0.0496
  13 C9        3.0569   -14.1993    -9.1742  C.ar    1  <O>11      -0.0487
  14 C10       3.8428   -14.6318    -8.1057  C.ar    1  <O>11      -0.0610
  15 C11       3.3653   -14.5220    -6.8045  C.ar    1  <O>11      -0.0611
  16 C12       2.1000   -13.9806    -6.5713  C.ar    1  <O>11      -0.0521
  17 C13       1.2928   -13.5298    -7.6418  C.ar    1  <O>11       0.0106
  18 C14      -1.2215   -10.8431    -4.9705  C.ar    1  <O>11      -0.0555
  19 C15      -0.8757    -9.6378    -4.3497  C.ar    1  <O>11      -0.0254
  20 C16       0.4633    -9.2929    -4.1603  C.ar    1  <O>11       0.1355
  21 F1        0.8028    -8.1157    -3.5453  F       1  <O>11      -0.2047
  22 N3        3.5160   -10.1860    -3.2900  N.am    1  <O>11      -0.2959
  23 C17       3.0432   -10.8702    -2.2392  C.3     1  <O>11       0.0276
  24 C18       4.5466   -11.1367    -1.9852  C.3     1  <O>11       0.0671
  25 C19       5.0568   -12.4943    -2.4734  C.2     1  <O>11       0.2217
  26 O3        5.1665   -12.7113    -3.6713  O.2     1  <O>11      -0.2752
  27 N4        5.3905   -13.4655    -1.5686  N.am    1  <O>11      -0.3012
  28 C20       5.8679   -14.7384    -1.9704  C.3     1  <O>11       0.0147
  29 C21       5.8493   -15.5196    -0.6636  C.3     1  <O>11      -0.0357
  30 C22       6.0706   -14.4369     0.3854  C.3     1  <O>11      -0.0357
  31 C23       5.2811   -13.2630    -0.1711  C.3     1  <O>11       0.0147
  32 C24       4.7926    -9.9562    -2.9543  C.3     1  <O>11       0.0276
  33 H1       -1.6515   -13.0741    -6.1135  H       1  <O>11       0.0377
  34 H2       -0.1622   -13.8136    -5.4782  H       1  <O>11       0.0377
  35 H3       -0.8266   -12.2856   -10.5479  H       1  <O>11       0.1921
  36 H4        2.5340   -10.2767    -1.4794  H       1  <O>11       0.0472
  37 H5        2.4417   -11.7472    -2.4794  H       1  <O>11       0.0472
  38 H6        4.8784   -10.9706    -0.9600  H       1  <O>11       0.0425
  39 H7        5.2078   -15.1915    -2.7099  H       1  <O>11       0.0464
  40 H8        6.8779   -14.6708    -2.3767  H       1  <O>11       0.0464
  41 H9        4.8894   -16.0160    -0.5172  H       1  <O>11       0.0281
  42 H10       6.6496   -16.2583    -0.6379  H       1  <O>11       0.0281
  43 H11       5.6815   -14.7473     1.3554  H       1  <O>11       0.0281
  44 H12       7.1276   -14.1908     0.4779  H       1  <O>11       0.0281
  45 H13       4.2407   -13.2951     0.1521  H       1  <O>11       0.0464
  46 H14       5.7249   -12.3114     0.1250  H       1  <O>11       0.0464
  47 H15       4.9909    -8.9924    -2.4843  H       1  <O>11       0.0472
  48 H16       5.5261   -10.1351    -3.7403  H       1  <O>11       0.0472
  49 H17       1.8757   -12.0122    -5.5360  H       1  <O>11       0.0629
  50 H18       3.4161   -14.2876   -10.1376  H       1  <O>11       0.0625
  51 H19       4.7774   -15.0327    -8.2808  H       1  <O>11       0.0618
  52 H20       3.9453   -14.8403    -6.0125  H       1  <O>11       0.0618
  53 H21       1.7483   -13.9081    -5.6038  H       1  <O>11       0.0624
  54 H22      -2.2138   -11.0911    -5.1078  H       1  <O>11       0.0621
  55 H23      -1.6184    -8.9973    -4.0287  H       1  <O>11       0.0646
@<TRIPOS>BOND
     1     1     2    2
     2     2     3    1
     3     3     4   ar
     4     4     5   ar
     5     5     6    1
     6     6     7    1
     7     7     8   ar
     8     8     9   ar
     9     9    10   ar
    10    10    11    2
    11    10    12   ar
    12    12    13   ar
    13    13    14   ar
    14    14    15   ar
    15    15    16   ar
    16    16    17   ar
    17     7    17   ar
    18    12    17   ar
    19     5    18   ar
    20    18    19   ar
    21    19    20   ar
    22     3    20   ar
    23    20    21    1
    24     2    22   am
    25    22    23    1
    26    23    24    1
    27    24    25    1
    28    25    26    2
    29    25    27   am
    30    27    28    1
    31    28    29    1
    32    29    30    1
    33    30    31    1
    34    27    31    1
    35    24    32    1
    36    22    32    1
    37     6    33    1
    38     6    34    1
    39     9    35    1
    40    23    36    1
    41    23    37    1
    42    24    38    1
    43    28    39    1
    44    28    40    1
    45    29    41    1
    46    29    42    1
    47    30    43    1
    48    30    44    1
    49    31    45    1
    50    31    46    1
    51    32    47    1
    52    32    48    1
    53     4    49    1
    54    13    50    1
    55    14    51    1
    56    15    52    1
    57    16    53    1
    58    18    54    1
    59    19    55    1
@<TRIPOS>MOLECULE
mol100_1_22
 55 59 0 0 0
SMALL
USER_CHARGES
****
VDW energy = -56.57
@<TRIPOS>ATOM
   1 O1        3.4420    -9.1855    -5.2979  O.2     1  <O>11      -0.2699
   2 C1        2.8552    -9.8129    -4.4288  C.2     1  <O>11       0.2494
   3 C2        1.4620   -10.1610    -4.6040  C.ar    1  <O>11       0.0723
   4 C3        0.4753    -9.2800    -4.1544  C.ar    1  <O>11      -0.0433
   5 C4       -0.8742    -9.6157    -4.3092  C.ar    1  <O>11      -0.0406
   6 C5       -1.9193    -8.6901    -3.8308  C.3     1  <O>11       0.0171
   7 C6       -1.7642    -8.4807    -2.3682  C.ar    1  <O>11       0.0736
   8 N1       -2.4261    -9.3244    -1.4690  N.ar    1  <O>11      -0.1750
   9 N2       -2.3798    -9.0850    -0.1385  N.ar    1  <O>11      -0.2425
  10 C7       -1.6719    -8.0228     0.3149  C.ar    1  <O>11       0.2725
  11 O2       -1.7437    -7.7724     1.6985  O.2     1  <O>11      -0.2658
  12 C8       -0.8984    -7.1916    -0.5083  C.ar    1  <O>11       0.0496
  13 C9       -0.1121    -6.1175    -0.0312  C.ar    1  <O>11      -0.0487
  14 C10       0.6085    -5.3087    -0.9103  C.ar    1  <O>11      -0.0610
  15 C11       0.5547    -5.5512    -2.2782  C.ar    1  <O>11      -0.0611
  16 C12      -0.2217    -6.6027    -2.7682  C.ar    1  <O>11      -0.0521
  17 C13      -0.9525    -7.4378    -1.8912  C.ar    1  <O>11       0.0106
  18 C14      -1.2337   -10.8229    -4.9139  C.ar    1  <O>11      -0.0555
  19 C15      -0.2346   -11.6922    -5.3656  C.ar    1  <O>11      -0.0254
  20 C16       1.1140   -11.3656    -5.2170  C.ar    1  <O>11       0.1355
  21 F1        2.0933   -12.2132    -5.6662  F       1  <O>11      -0.2047
  22 N3        3.5160   -10.1860    -3.2900  N.am    1  <O>11      -0.2959
  23 C17       3.0432   -10.8702    -2.2392  C.3     1  <O>11       0.0276
  24 C18       4.5466   -11.1367    -1.9852  C.3     1  <O>11       0.0671
  25 C19       5.0568   -12.4943    -2.4734  C.2     1  <O>11       0.2217
  26 O3        5.1665   -12.7113    -3.6713  O.2     1  <O>11      -0.2752
  27 N4        5.3905   -13.4655    -1.5686  N.am    1  <O>11      -0.3012
  28 C20       5.8679   -14.7384    -1.9704  C.3     1  <O>11       0.0147
  29 C21       5.8493   -15.5196    -0.6636  C.3     1  <O>11      -0.0357
  30 C22       6.0706   -14.4369     0.3854  C.3     1  <O>11      -0.0357
  31 C23       5.2811   -13.2630    -0.1711  C.3     1  <O>11       0.0147
  32 C24       4.7926    -9.9562    -2.9543  C.3     1  <O>11       0.0276
  33 H1       -2.9018    -9.1162    -4.0348  H       1  <O>11       0.0377
  34 H2       -1.8232    -7.7350    -4.3472  H       1  <O>11       0.0377
  35 H3       -2.8655    -9.6895     0.5079  H       1  <O>11       0.1921
  36 H4        2.5340   -10.2767    -1.4794  H       1  <O>11       0.0472
  37 H5        2.4417   -11.7472    -2.4794  H       1  <O>11       0.0472
  38 H6        4.8784   -10.9706    -0.9600  H       1  <O>11       0.0425
  39 H7        5.2078   -15.1915    -2.7099  H       1  <O>11       0.0464
  40 H8        6.8779   -14.6708    -2.3767  H       1  <O>11       0.0464
  41 H9        4.8894   -16.0160    -0.5172  H       1  <O>11       0.0281
  42 H10       6.6496   -16.2583    -0.6379  H       1  <O>11       0.0281
  43 H11       5.6815   -14.7473     1.3554  H       1  <O>11       0.0281
  44 H12       7.1276   -14.1908     0.4779  H       1  <O>11       0.0281
  45 H13       4.2407   -13.2951     0.1521  H       1  <O>11       0.0464
  46 H14       5.7249   -12.3114     0.1250  H       1  <O>11       0.0464
  47 H15       4.9909    -8.9924    -2.4843  H       1  <O>11       0.0472
  48 H16       5.5261   -10.1351    -3.7403  H       1  <O>11       0.0472
  49 H17       0.7403    -8.3868    -3.7107  H       1  <O>11       0.0629
  50 H18      -0.0707    -5.9291     0.9826  H       1  <O>11       0.0625
  51 H19       1.1808    -4.5312    -0.5456  H       1  <O>11       0.0618
  52 H20       1.0877    -4.9547    -2.9303  H       1  <O>11       0.0618
  53 H21      -0.2631    -6.7734    -3.7852  H       1  <O>11       0.0624
  54 H22      -2.2289   -11.0716    -5.0266  H       1  <O>11       0.0621
  55 H23      -0.4978   -12.5841    -5.8131  H       1  <O>11       0.0646
@<TRIPOS>BOND
     1     1     2    2
     2     2     3    1
     3     3     4   ar
     4     4     5   ar
     5     5     6    1
     6     6     7    1
     7     7     8   ar
     8     8     9   ar
     9     9    10   ar
    10    10    11    2
    11    10    12   ar
    12    12    13   ar
    13    13    14   ar
    14    14    15   ar
    15    15    16   ar
    16    16    17   ar
    17     7    17   ar
    18    12    17   ar
    19     5    18   ar
    20    18    19   ar
    21    19    20   ar
    22     3    20   ar
    23    20    21    1
    24     2    22   am
    25    22    23    1
    26    23    24    1
    27    24    25    1
    28    25    26    2
    29    25    27   am
    30    27    28    1
    31    28    29    1
    32    29    30    1
    33    30    31    1
    34    27    31    1
    35    24    32    1
    36    22    32    1
    37     6    33    1
    38     6    34    1
    39     9    35    1
    40    23    36    1
    41    23    37    1
    42    24    38    1
    43    28    39    1
    44    28    40    1
    45    29    41    1
    46    29    42    1
    47    30    43    1
    48    30    44    1
    49    31    45    1
    50    31    46    1
    51    32    47    1
    52    32    48    1
    53     4    49    1
    54    13    50    1
    55    14    51    1
    56    15    52    1
    57    16    53    1
    58    18    54    1
    59    19    55    1
@<TRIPOS>MOLECULE
mol100_1_23
 55 59 0 0 0
SMALL
USER_CHARGES
****
VDW energy = -52.44
@<TRIPOS>ATOM
   1 O1        3.4420    -9.1855    -5.2979  O.2     1  <O>11      -0.2699
   2 C1        2.8552    -9.8129    -4.4288  C.2     1  <O>11       0.2494
   3 C2        1.4620   -10.1610    -4.6040  C.ar    1  <O>11       0.0723
   4 C3        0.4753    -9.2800    -4.1544  C.ar    1  <O>11      -0.0433
   5 C4       -0.8742    -9.6157    -4.3092  C.ar    1  <O>11      -0.0406
   6 C5       -1.9193    -8.6901    -3.8308  C.3     1  <O>11       0.0171
   7 C6       -3.2512    -9.1721    -4.2791  C.ar    1  <O>11       0.0736
   8 N1       -4.2339    -9.4857    -3.3333  N.ar    1  <O>11      -0.1750
   9 N2       -5.4137   -10.0234    -3.7185  N.ar    1  <O>11      -0.2425
  10 C7       -5.6379   -10.2433    -5.0362  C.ar    1  <O>11       0.2725
  11 O2       -6.8432   -10.8939    -5.3619  O.2     1  <O>11      -0.2658
  12 C8       -4.7498    -9.8635    -6.0530  C.ar    1  <O>11       0.0496
  13 C9       -5.0064   -10.0388    -7.4325  C.ar    1  <O>11      -0.0487
  14 C10      -4.0635    -9.6677    -8.3915  C.ar    1  <O>11      -0.0610
  15 C11      -2.8483    -9.1215    -7.9943  C.ar    1  <O>11      -0.0611
  16 C12      -2.5746    -8.9473    -6.6366  C.ar    1  <O>11      -0.0521
  17 C13      -3.5217    -9.3105    -5.6509  C.ar    1  <O>11       0.0106
  18 C14      -1.2337   -10.8229    -4.9139  C.ar    1  <O>11      -0.0555
  19 C15      -0.2346   -11.6922    -5.3656  C.ar    1  <O>11      -0.0254
  20 C16       1.1140   -11.3656    -5.2170  C.ar    1  <O>11       0.1355
  21 F1        2.0933   -12.2132    -5.6662  F       1  <O>11      -0.2047
  22 N3        3.5160   -10.1860    -3.2900  N.am    1  <O>11      -0.2959
  23 C17       4.7930    -9.9559    -2.9549  C.3     1  <O>11       0.0276
  24 C18       4.2649   -10.2400    -1.5280  C.3     1  <O>11       0.0671
  25 C19       3.9578    -8.9971    -0.6899  C.2     1  <O>11       0.2217
  26 O3        2.9936    -8.2977    -0.9644  O.2     1  <O>11      -0.2752
  27 N4        4.7626    -8.6687     0.3673  N.am    1  <O>11      -0.3012
  28 C20       4.5200    -7.5284     1.1739  C.3     1  <O>11       0.0147
  29 C21       5.7858    -7.4514     2.0166  C.3     1  <O>11      -0.0357
  30 C22       6.2257    -8.9075     2.1070  C.3     1  <O>11      -0.0357
  31 C23       5.8907    -9.4464     0.7255  C.3     1  <O>11       0.0147
  32 C24       3.0440   -10.8701    -2.2391  C.3     1  <O>11       0.0276
  33 H1       -1.7367    -7.6955    -4.2383  H       1  <O>11       0.0377
  34 H2       -1.8957    -8.6466    -2.7420  H       1  <O>11       0.0377
  35 H3       -6.1178   -10.2575    -3.0339  H       1  <O>11       0.1921
  36 H4        5.5191   -10.6718    -3.3410  H       1  <O>11       0.0472
  37 H5        5.1519    -8.9418    -3.1329  H       1  <O>11       0.0472
  38 H6        4.8680   -10.9340    -0.9420  H       1  <O>11       0.0425
  39 H7        4.3972    -6.6333     0.5643  H       1  <O>11       0.0464
  40 H8        3.6366    -7.6676     1.7985  H       1  <O>11       0.0464
  41 H9        6.5465    -6.8425     1.5267  H       1  <O>11       0.0281
  42 H10       5.5739    -7.0450     3.0048  H       1  <O>11       0.0281
  43 H11       7.2947    -8.9809     2.3085  H       1  <O>11       0.0281
  44 H12       5.6712    -9.4372     2.8804  H       1  <O>11       0.0281
  45 H13       6.7141    -9.2918     0.0284  H       1  <O>11       0.0464
  46 H14       5.6413   -10.5077     0.7644  H       1  <O>11       0.0464
  47 H15       3.0621   -11.9561    -2.3361  H       1  <O>11       0.0472
  48 H16       2.0680   -10.5542    -1.8711  H       1  <O>11       0.0472
  49 H17       0.7403    -8.3868    -3.7107  H       1  <O>11       0.0629
  50 H18      -5.9047   -10.4473    -7.7344  H       1  <O>11       0.0625
  51 H19      -4.2679    -9.7986    -9.3945  H       1  <O>11       0.0618
  52 H20      -2.1497    -8.8453    -8.7020  H       1  <O>11       0.0618
  53 H21      -1.6679    -8.5478    -6.3478  H       1  <O>11       0.0624
  54 H22      -2.2289   -11.0716    -5.0266  H       1  <O>11       0.0621
  55 H23      -0.4978   -12.5841    -5.8131  H       1  <O>11       0.0646
@<TRIPOS>BOND
     1     1     2    2
     2     2     3    1
     3     3     4   ar
     4     4     5   ar
     5     5     6    1
     6     6     7    1
     7     7     8   ar
     8     8     9   ar
     9     9    10   ar
    10    10    11    2
    11    10    12   ar
    12    12    13   ar
    13    13    14   ar
    14    14    15   ar
    15    15    16   ar
    16    16    17   ar
    17     7    17   ar
    18    12    17   ar
    19     5    18   ar
    20    18    19   ar
    21    19    20   ar
    22     3    20   ar
    23    20    21    1
    24     2    22   am
    25    22    23    1
    26    23    24    1
    27    24    25    1
    28    25    26    2
    29    25    27   am
    30    27    28    1
    31    28    29    1
    32    29    30    1
    33    30    31    1
    34    27    31    1
    35    24    32    1
    36    22    32    1
    37     6    33    1
    38     6    34    1
    39     9    35    1
    40    23    36    1
    41    23    37    1
    42    24    38    1
    43    28    39    1
    44    28    40    1
    45    29    41    1
    46    29    42    1
    47    30    43    1
    48    30    44    1
    49    31    45    1
    50    31    46    1
    51    32    47    1
    52    32    48    1
    53     4    49    1
    54    13    50    1
    55    14    51    1
    56    15    52    1
    57    16    53    1
    58    18    54    1
    59    19    55    1
@<TRIPOS>MOLECULE
mol100_1_24
 55 59 0 0 0
SMALL
USER_CHARGES
****
VDW energy = -49.29
@<TRIPOS>ATOM
   1 O1        3.4420    -9.1855    -5.2979  O.2     1  <O>11      -0.2699
   2 C1        2.8552    -9.8129    -4.4288  C.2     1  <O>11       0.2494
   3 C2        1.4620   -10.1610    -4.6040  C.ar    1  <O>11       0.0723
   4 C3        0.4753    -9.2800    -4.1544  C.ar    1  <O>11      -0.0433
   5 C4       -0.8742    -9.6157    -4.3092  C.ar    1  <O>11      -0.0406
   6 C5       -1.9193    -8.6901    -3.8308  C.3     1  <O>11       0.0171
   7 C6       -3.2512    -9.1721    -4.2791  C.ar    1  <O>11       0.0736
   8 N1       -4.2339    -9.4857    -3.3333  N.ar    1  <O>11      -0.1750
   9 N2       -5.4137   -10.0234    -3.7185  N.ar    1  <O>11      -0.2425
  10 C7       -5.6379   -10.2433    -5.0362  C.ar    1  <O>11       0.2725
  11 O2       -6.8432   -10.8939    -5.3619  O.2     1  <O>11      -0.2658
  12 C8       -4.7498    -9.8635    -6.0530  C.ar    1  <O>11       0.0496
  13 C9       -5.0064   -10.0388    -7.4325  C.ar    1  <O>11      -0.0487
  14 C10      -4.0635    -9.6677    -8.3915  C.ar    1  <O>11      -0.0610
  15 C11      -2.8483    -9.1215    -7.9943  C.ar    1  <O>11      -0.0611
  16 C12      -2.5746    -8.9473    -6.6366  C.ar    1  <O>11      -0.0521
  17 C13      -3.5217    -9.3105    -5.6509  C.ar    1  <O>11       0.0106
  18 C14      -1.2337   -10.8229    -4.9139  C.ar    1  <O>11      -0.0555
  19 C15      -0.2346   -11.6922    -5.3656  C.ar    1  <O>11      -0.0254
  20 C16       1.1140   -11.3656    -5.2170  C.ar    1  <O>11       0.1355
  21 F1        2.0933   -12.2132    -5.6662  F       1  <O>11      -0.2047
  22 N3        3.5160   -10.1860    -3.2900  N.am    1  <O>11      -0.2959
  23 C17       3.0432   -10.8702    -2.2392  C.3     1  <O>11       0.0276
  24 C18       4.5466   -11.1367    -1.9852  C.3     1  <O>11       0.0671
  25 C19       5.0568   -12.4943    -2.4734  C.2     1  <O>11       0.2217
  26 O3        5.1665   -12.7113    -3.6713  O.2     1  <O>11      -0.2752
  27 N4        5.3905   -13.4655    -1.5686  N.am    1  <O>11      -0.3012
  28 C20       5.8679   -14.7384    -1.9704  C.3     1  <O>11       0.0147
  29 C21       5.8493   -15.5196    -0.6636  C.3     1  <O>11      -0.0357
  30 C22       6.0706   -14.4369     0.3854  C.3     1  <O>11      -0.0357
  31 C23       5.2811   -13.2630    -0.1711  C.3     1  <O>11       0.0147
  32 C24       4.7926    -9.9562    -2.9543  C.3     1  <O>11       0.0276
  33 H1       -1.7367    -7.6955    -4.2383  H       1  <O>11       0.0377
  34 H2       -1.8957    -8.6466    -2.7420  H       1  <O>11       0.0377
  35 H3       -6.1178   -10.2575    -3.0339  H       1  <O>11       0.1921
  36 H4        2.5340   -10.2767    -1.4794  H       1  <O>11       0.0472
  37 H5        2.4417   -11.7472    -2.4794  H       1  <O>11       0.0472
  38 H6        4.8784   -10.9706    -0.9600  H       1  <O>11       0.0425
  39 H7        5.2078   -15.1915    -2.7099  H       1  <O>11       0.0464
  40 H8        6.8779   -14.6708    -2.3767  H       1  <O>11       0.0464
  41 H9        4.8894   -16.0160    -0.5172  H       1  <O>11       0.0281
  42 H10       6.6496   -16.2583    -0.6379  H       1  <O>11       0.0281
  43 H11       5.6815   -14.7473     1.3554  H       1  <O>11       0.0281
  44 H12       7.1276   -14.1908     0.4779  H       1  <O>11       0.0281
  45 H13       4.2407   -13.2951     0.1521  H       1  <O>11       0.0464
  46 H14       5.7249   -12.3114     0.1250  H       1  <O>11       0.0464
  47 H15       4.9909    -8.9924    -2.4843  H       1  <O>11       0.0472
  48 H16       5.5261   -10.1351    -3.7403  H       1  <O>11       0.0472
  49 H17       0.7403    -8.3868    -3.7107  H       1  <O>11       0.0629
  50 H18      -5.9047   -10.4473    -7.7344  H       1  <O>11       0.0625
  51 H19      -4.2679    -9.7986    -9.3945  H       1  <O>11       0.0618
  52 H20      -2.1497    -8.8453    -8.7020  H       1  <O>11       0.0618
  53 H21      -1.6679    -8.5478    -6.3478  H       1  <O>11       0.0624
  54 H22      -2.2289   -11.0716    -5.0266  H       1  <O>11       0.0621
  55 H23      -0.4978   -12.5841    -5.8131  H       1  <O>11       0.0646
@<TRIPOS>BOND
     1     1     2    2
     2     2     3    1
     3     3     4   ar
     4     4     5   ar
     5     5     6    1
     6     6     7    1
     7     7     8   ar
     8     8     9   ar
     9     9    10   ar
    10    10    11    2
    11    10    12   ar
    12    12    13   ar
    13    13    14   ar
    14    14    15   ar
    15    15    16   ar
    16    16    17   ar
    17     7    17   ar
    18    12    17   ar
    19     5    18   ar
    20    18    19   ar
    21    19    20   ar
    22     3    20   ar
    23    20    21    1
    24     2    22   am
    25    22    23    1
    26    23    24    1
    27    24    25    1
    28    25    26    2
    29    25    27   am
    30    27    28    1
    31    28    29    1
    32    29    30    1
    33    30    31    1
    34    27    31    1
    35    24    32    1
    36    22    32    1
    37     6    33    1
    38     6    34    1
    39     9    35    1
    40    23    36    1
    41    23    37    1
    42    24    38    1
    43    28    39    1
    44    28    40    1
    45    29    41    1
    46    29    42    1
    47    30    43    1
    48    30    44    1
    49    31    45    1
    50    31    46    1
    51    32    47    1
    52    32    48    1
    53     4    49    1
    54    13    50    1
    55    14    51    1
    56    15    52    1
    57    16    53    1
    58    18    54    1
    59    19    55    1
@<TRIPOS>MOLECULE
mol100_1_25
 55 59 0 0 0
SMALL
USER_CHARGES
****
VDW energy = -46.13
@<TRIPOS>ATOM
   1 O1        3.4420    -9.1855    -5.2979  O.2     1  <O>11      -0.2699
   2 C1        2.8552    -9.8129    -4.4288  C.2     1  <O>11       0.2494
   3 C2        1.4620   -10.1610    -4.6040  C.ar    1  <O>11       0.0723
   4 C3        1.0120   -10.5683    -5.8623  C.ar    1  <O>11      -0.0433
   5 C4       -0.3367   -10.8946    -6.0422  C.ar    1  <O>11      -0.0406
   6 C5       -0.8169   -11.3202    -7.3712  C.3     1  <O>11       0.0171
   7 C6       -0.5725   -10.2360    -8.3571  C.ar    1  <O>11       0.0736
   8 N1        0.2421   -10.4756    -9.4695  N.ar    1  <O>11      -0.1750
   9 N2        0.5590    -9.4726   -10.3199  N.ar    1  <O>11      -0.2425
  10 C7        0.0660    -8.2325   -10.0878  C.ar    1  <O>11       0.2725
  11 O2        0.5114    -7.2143   -10.9522  O.2     1  <O>11      -0.2658
  12 C8       -0.8371    -7.9317    -9.0578  C.ar    1  <O>11       0.0496
  13 C9       -1.3986    -6.6510    -8.8482  C.ar    1  <O>11      -0.0487
  14 C10      -2.2668    -6.4129    -7.7824  C.ar    1  <O>11      -0.0610
  15 C11      -2.5865    -7.4427    -6.9048  C.ar    1  <O>11      -0.0611
  16 C12      -2.0364    -8.7119    -7.0919  C.ar    1  <O>11      -0.0521
  17 C13      -1.1606    -8.9735    -8.1714  C.ar    1  <O>11       0.0106
  18 C14      -1.2280   -10.8179    -4.9689  C.ar    1  <O>11      -0.0555
  19 C15      -0.7616   -10.4151    -3.7128  C.ar    1  <O>11      -0.0254
  20 C16       0.5820   -10.0891    -3.5231  C.ar    1  <O>11       0.1355
  21 F1        1.0413    -9.7017    -2.2909  F       1  <O>11      -0.2047
  22 N3        3.5160   -10.1860    -3.2900  N.am    1  <O>11      -0.2959
  23 C17       3.0432   -10.8702    -2.2392  C.3     1  <O>11       0.0276
  24 C18       4.5466   -11.1367    -1.9852  C.3     1  <O>11       0.0671
  25 C19       5.0568   -12.4943    -2.4734  C.2     1  <O>11       0.2217
  26 O3        5.1665   -12.7113    -3.6713  O.2     1  <O>11      -0.2752
  27 N4        5.3905   -13.4655    -1.5686  N.am    1  <O>11      -0.3012
  28 C20       5.2812   -13.2626    -0.1698  C.3     1  <O>11       0.0147
  29 C21       5.9890   -14.4878     0.3924  C.3     1  <O>11      -0.0357
  30 C22       5.7570   -15.5410    -0.6841  C.3     1  <O>11      -0.0357
  31 C23       5.8670   -14.7374    -1.9699  C.3     1  <O>11       0.0147
  32 C24       4.7926    -9.9562    -2.9543  C.3     1  <O>11       0.0276
  33 H1       -1.8854   -11.5308    -7.3201  H       1  <O>11       0.0377
  34 H2       -0.2837   -12.2193    -7.6796  H       1  <O>11       0.0377
  35 H3        1.1543    -9.6455   -11.1167  H       1  <O>11       0.1921
  36 H4        2.5340   -10.2767    -1.4794  H       1  <O>11       0.0472
  37 H5        2.4417   -11.7472    -2.4794  H       1  <O>11       0.0472
  38 H6        4.8784   -10.9706    -0.9600  H       1  <O>11       0.0425
  39 H7        5.7814   -12.3437     0.1354  H       1  <O>11       0.0464
  40 H8        4.2369   -13.2302     0.1437  H       1  <O>11       0.0464
  41 H9        7.0538   -14.2967     0.5299  H       1  <O>11       0.0281
  42 H10       5.5479   -14.7940     1.3403  H       1  <O>11       0.0281
  43 H11       6.5199   -16.3187    -0.6406  H       1  <O>11       0.0281
  44 H12       4.7703   -15.9915    -0.5856  H       1  <O>11       0.0281
  45 H13       6.8988   -14.6811    -2.3161  H       1  <O>11       0.0464
  46 H14       5.2418   -15.1620    -2.7567  H       1  <O>11       0.0464
  47 H15       4.9909    -8.9924    -2.4843  H       1  <O>11       0.0472
  48 H16       5.5261   -10.1351    -3.7403  H       1  <O>11       0.0472
  49 H17       1.6706   -10.6282    -6.6546  H       1  <O>11       0.0629
  50 H18      -1.1626    -5.8808    -9.4933  H       1  <O>11       0.0625
  51 H19      -2.6713    -5.4733    -7.6456  H       1  <O>11       0.0618
  52 H20      -3.2294    -7.2691    -6.1163  H       1  <O>11       0.0618
  53 H21      -2.2721    -9.4705    -6.4331  H       1  <O>11       0.0624
  54 H22      -2.2232   -11.0568    -5.1017  H       1  <O>11       0.0621
  55 H23      -1.4179   -10.3584    -2.9184  H       1  <O>11       0.0646
@<TRIPOS>BOND
     1     1     2    2
     2     2     3    1
     3     3     4   ar
     4     4     5   ar
     5     5     6    1
     6     6     7    1
     7     7     8   ar
     8     8     9   ar
     9     9    10   ar
    10    10    11    2
    11    10    12   ar
    12    12    13   ar
    13    13    14   ar
    14    14    15   ar
    15    15    16   ar
    16    16    17   ar
    17     7    17   ar
    18    12    17   ar
    19     5    18   ar
    20    18    19   ar
    21    19    20   ar
    22     3    20   ar
    23    20    21    1
    24     2    22   am
    25    22    23    1
    26    23    24    1
    27    24    25    1
    28    25    26    2
    29    25    27   am
    30    27    28    1
    31    28    29    1
    32    29    30    1
    33    30    31    1
    34    27    31    1
    35    24    32    1
    36    22    32    1
    37     6    33    1
    38     6    34    1
    39     9    35    1
    40    23    36    1
    41    23    37    1
    42    24    38    1
    43    28    39    1
    44    28    40    1
    45    29    41    1
    46    29    42    1
    47    30    43    1
    48    30    44    1
    49    31    45    1
    50    31    46    1
    51    32    47    1
    52    32    48    1
    53     4    49    1
    54    13    50    1
    55    14    51    1
    56    15    52    1
    57    16    53    1
    58    18    54    1
    59    19    55    1
@<TRIPOS>MOLECULE
mol100_1_26
 55 59 0 0 0
SMALL
USER_CHARGES
****
VDW energy = -42.49
@<TRIPOS>ATOM
   1 O1        3.4420    -9.1855    -5.2979  O.2     1  <O>11      -0.2699
   2 C1        2.8552    -9.8129    -4.4288  C.2     1  <O>11       0.2494
   3 C2        1.4620   -10.1610    -4.6040  C.ar    1  <O>11       0.0723
   4 C3        1.0120   -10.5683    -5.8623  C.ar    1  <O>11      -0.0433
   5 C4       -0.3367   -10.8946    -6.0422  C.ar    1  <O>11      -0.0406
   6 C5       -0.8169   -11.3202    -7.3712  C.3     1  <O>11       0.0171
   7 C6       -0.5725   -10.2360    -8.3571  C.ar    1  <O>11       0.0736
   8 N1       -1.5493    -9.2576    -8.5741  N.ar    1  <O>11      -0.1750
   9 N2       -1.3873    -8.3251    -9.5405  N.ar    1  <O>11      -0.2425
  10 C7       -0.2585    -8.3424   -10.2891  C.ar    1  <O>11       0.2725
  11 O2       -0.1951    -7.4080   -11.3403  O.2     1  <O>11      -0.2658
  12 C8        0.8111    -9.2221   -10.0683  C.ar    1  <O>11       0.0496
  13 C9        2.0147    -9.2047   -10.8103  C.ar    1  <O>11      -0.0487
  14 C10       3.0269   -10.1314   -10.5595  C.ar    1  <O>11      -0.0610
  15 C11       2.8566   -11.0939    -9.5707  C.ar    1  <O>11      -0.0611
  16 C12       1.6723   -11.1308    -8.8327  C.ar    1  <O>11      -0.0521
  17 C13       0.6388   -10.1944    -9.0679  C.ar    1  <O>11       0.0106
  18 C14      -1.2280   -10.8179    -4.9689  C.ar    1  <O>11      -0.0555
  19 C15      -0.7616   -10.4151    -3.7128  C.ar    1  <O>11      -0.0254
  20 C16       0.5820   -10.0891    -3.5231  C.ar    1  <O>11       0.1355
  21 F1        1.0413    -9.7017    -2.2909  F       1  <O>11      -0.2047
  22 N3        3.5160   -10.1860    -3.2900  N.am    1  <O>11      -0.2959
  23 C17       3.0432   -10.8702    -2.2392  C.3     1  <O>11       0.0276
  24 C18       4.5466   -11.1367    -1.9852  C.3     1  <O>11       0.0671
  25 C19       5.0568   -12.4943    -2.4734  C.2     1  <O>11       0.2217
  26 O3        5.1665   -12.7113    -3.6713  O.2     1  <O>11      -0.2752
  27 N4        5.3905   -13.4655    -1.5686  N.am    1  <O>11      -0.3012
  28 C20       5.8679   -14.7384    -1.9704  C.3     1  <O>11       0.0147
  29 C21       5.8493   -15.5196    -0.6636  C.3     1  <O>11      -0.0357
  30 C22       6.0706   -14.4369     0.3854  C.3     1  <O>11      -0.0357
  31 C23       5.2811   -13.2630    -0.1711  C.3     1  <O>11       0.0147
  32 C24       4.7926    -9.9562    -2.9543  C.3     1  <O>11       0.0276
  33 H1       -1.8854   -11.5308    -7.3201  H       1  <O>11       0.0377
  34 H2       -0.2837   -12.2193    -7.6796  H       1  <O>11       0.0377
  35 H3       -2.0973    -7.6257    -9.7016  H       1  <O>11       0.1921
  36 H4        2.5340   -10.2767    -1.4794  H       1  <O>11       0.0472
  37 H5        2.4417   -11.7472    -2.4794  H       1  <O>11       0.0472
  38 H6        4.8784   -10.9706    -0.9600  H       1  <O>11       0.0425
  39 H7        5.2078   -15.1915    -2.7099  H       1  <O>11       0.0464
  40 H8        6.8779   -14.6708    -2.3767  H       1  <O>11       0.0464
  41 H9        4.8894   -16.0160    -0.5172  H       1  <O>11       0.0281
  42 H10       6.6496   -16.2583    -0.6379  H       1  <O>11       0.0281
  43 H11       5.6815   -14.7473     1.3554  H       1  <O>11       0.0281
  44 H12       7.1276   -14.1908     0.4779  H       1  <O>11       0.0281
  45 H13       4.2407   -13.2951     0.1521  H       1  <O>11       0.0464
  46 H14       5.7249   -12.3114     0.1250  H       1  <O>11       0.0464
  47 H15       4.9909    -8.9924    -2.4843  H       1  <O>11       0.0472
  48 H16       5.5261   -10.1351    -3.7403  H       1  <O>11       0.0472
  49 H17       1.6706   -10.6282    -6.6546  H       1  <O>11       0.0629
  50 H18       2.1464    -8.4956   -11.5485  H       1  <O>11       0.0625
  51 H19       3.9011   -10.1027   -11.1072  H       1  <O>11       0.0618
  52 H20       3.6044   -11.7798    -9.3827  H       1  <O>11       0.0618
  53 H21       1.5491   -11.8520    -8.1048  H       1  <O>11       0.0624
  54 H22      -2.2232   -11.0568    -5.1017  H       1  <O>11       0.0621
  55 H23      -1.4179   -10.3584    -2.9184  H       1  <O>11       0.0646
@<TRIPOS>BOND
     1     1     2    2
     2     2     3    1
     3     3     4   ar
     4     4     5   ar
     5     5     6    1
     6     6     7    1
     7     7     8   ar
     8     8     9   ar
     9     9    10   ar
    10    10    11    2
    11    10    12   ar
    12    12    13   ar
    13    13    14   ar
    14    14    15   ar
    15    15    16   ar
    16    16    17   ar
    17     7    17   ar
    18    12    17   ar
    19     5    18   ar
    20    18    19   ar
    21    19    20   ar
    22     3    20   ar
    23    20    21    1
    24     2    22   am
    25    22    23    1
    26    23    24    1
    27    24    25    1
    28    25    26    2
    29    25    27   am
    30    27    28    1
    31    28    29    1
    32    29    30    1
    33    30    31    1
    34    27    31    1
    35    24    32    1
    36    22    32    1
    37     6    33    1
    38     6    34    1
    39     9    35    1
    40    23    36    1
    41    23    37    1
    42    24    38    1
    43    28    39    1
    44    28    40    1
    45    29    41    1
    46    29    42    1
    47    30    43    1
    48    30    44    1
    49    31    45    1
    50    31    46    1
    51    32    47    1
    52    32    48    1
    53     4    49    1
    54    13    50    1
    55    14    51    1
    56    15    52    1
    57    16    53    1
    58    18    54    1
    59    19    55    1
@<TRIPOS>MOLECULE
mol100_1_27
 55 59 0 0 0
SMALL
USER_CHARGES
****
VDW energy = -23.96
@<TRIPOS>ATOM
   1 O1        3.4420    -9.1855    -5.2979  O.2     1  <O>11      -0.2699
   2 C1        2.8552    -9.8129    -4.4288  C.2     1  <O>11       0.2494
   3 C2        1.4620   -10.1610    -4.6040  C.ar    1  <O>11       0.0723
   4 C3        0.5927    -9.2326    -5.1822  C.ar    1  <O>11      -0.0433
   5 C4       -0.7586    -9.5576    -5.3434  C.ar    1  <O>11      -0.0406
   6 C5       -1.6811    -8.5776    -5.9489  C.3     1  <O>11       0.0171
   7 C6       -1.7136    -8.7717    -7.4214  C.ar    1  <O>11       0.0736
   8 N1       -0.8431    -9.6873    -8.0235  N.ar    1  <O>11      -0.1750
   9 N2       -0.7869    -9.8010    -9.3702  N.ar    1  <O>11      -0.2425
  10 C7       -1.5953    -9.0244   -10.1306  C.ar    1  <O>11       0.2725
  11 O2       -1.4190    -9.1205   -11.5241  O.2     1  <O>11      -0.2658
  12 C8       -2.5657    -8.1588    -9.6052  C.ar    1  <O>11       0.0496
  13 C9       -3.4505    -7.3903   -10.3964  C.ar    1  <O>11      -0.0487
  14 C10      -4.3713    -6.5229    -9.8081  C.ar    1  <O>11      -0.0610
  15 C11      -4.4237    -6.4016    -8.4241  C.ar    1  <O>11      -0.0611
  16 C12      -3.5533    -7.1471    -7.6272  C.ar    1  <O>11      -0.0521
  17 C13      -2.6187    -8.0372    -8.2059  C.ar    1  <O>11       0.0106
  18 C14      -1.2358   -10.8050    -4.9328  C.ar    1  <O>11      -0.0555
  19 C15      -0.3521   -11.7274    -4.3617  C.ar    1  <O>11      -0.0254
  20 C16       0.9977   -11.4130    -4.1980  C.ar    1  <O>11       0.1355
  21 F1        1.8657   -12.3190    -3.6457  F       1  <O>11      -0.2047
  22 N3        3.5160   -10.1860    -3.2900  N.am    1  <O>11      -0.2959
  23 C17       3.0432   -10.8702    -2.2392  C.3     1  <O>11       0.0276
  24 C18       4.5466   -11.1367    -1.9852  C.3     1  <O>11       0.0671
  25 C19       5.0568   -12.4943    -2.4734  C.2     1  <O>11       0.2217
  26 O3        5.1665   -12.7113    -3.6713  O.2     1  <O>11      -0.2752
  27 N4        5.3905   -13.4655    -1.5686  N.am    1  <O>11      -0.3012
  28 C20       5.8679   -14.7384    -1.9704  C.3     1  <O>11       0.0147
  29 C21       5.8493   -15.5196    -0.6636  C.3     1  <O>11      -0.0357
  30 C22       6.0706   -14.4369     0.3854  C.3     1  <O>11      -0.0357
  31 C23       5.2811   -13.2630    -0.1711  C.3     1  <O>11       0.0147
  32 C24       4.7926    -9.9562    -2.9543  C.3     1  <O>11       0.0276
  33 H1       -1.3367    -7.5682    -5.7229  H       1  <O>11       0.0377
  34 H2       -2.6817    -8.7200    -5.5410  H       1  <O>11       0.0377
  35 H3       -0.1517   -10.4556    -9.8029  H       1  <O>11       0.1921
  36 H4        2.5340   -10.2767    -1.4794  H       1  <O>11       0.0472
  37 H5        2.4417   -11.7472    -2.4794  H       1  <O>11       0.0472
  38 H6        4.8784   -10.9706    -0.9600  H       1  <O>11       0.0425
  39 H7        5.2078   -15.1915    -2.7099  H       1  <O>11       0.0464
  40 H8        6.8779   -14.6708    -2.3767  H       1  <O>11       0.0464
  41 H9        4.8894   -16.0160    -0.5172  H       1  <O>11       0.0281
  42 H10       6.6496   -16.2583    -0.6379  H       1  <O>11       0.0281
  43 H11       5.6815   -14.7473     1.3554  H       1  <O>11       0.0281
  44 H12       7.1276   -14.1908     0.4779  H       1  <O>11       0.0281
  45 H13       4.2407   -13.2951     0.1521  H       1  <O>11       0.0464
  46 H14       5.7249   -12.3114     0.1250  H       1  <O>11       0.0464
  47 H15       4.9909    -8.9924    -2.4843  H       1  <O>11       0.0472
  48 H16       5.5261   -10.1351    -3.7403  H       1  <O>11       0.0472
  49 H17       0.9453    -8.3124    -5.4886  H       1  <O>11       0.0629
  50 H18      -3.4146    -7.4722   -11.4245  H       1  <O>11       0.0625
  51 H19      -5.0130    -5.9720   -10.3996  H       1  <O>11       0.0618
  52 H20      -5.1048    -5.7614    -7.9867  H       1  <O>11       0.0618
  53 H21      -3.5923    -7.0475    -6.6007  H       1  <O>11       0.0624
  54 H22      -2.2328   -11.0443    -5.0499  H       1  <O>11       0.0621
  55 H23      -0.7021   -12.6495    -4.0583  H       1  <O>11       0.0646
@<TRIPOS>BOND
     1     1     2    2
     2     2     3    1
     3     3     4   ar
     4     4     5   ar
     5     5     6    1
     6     6     7    1
     7     7     8   ar
     8     8     9   ar
     9     9    10   ar
    10    10    11    2
    11    10    12   ar
    12    12    13   ar
    13    13    14   ar
    14    14    15   ar
    15    15    16   ar
    16    16    17   ar
    17     7    17   ar
    18    12    17   ar
    19     5    18   ar
    20    18    19   ar
    21    19    20   ar
    22     3    20   ar
    23    20    21    1
    24     2    22   am
    25    22    23    1
    26    23    24    1
    27    24    25    1
    28    25    26    2
    29    25    27   am
    30    27    28    1
    31    28    29    1
    32    29    30    1
    33    30    31    1
    34    27    31    1
    35    24    32    1
    36    22    32    1
    37     6    33    1
    38     6    34    1
    39     9    35    1
    40    23    36    1
    41    23    37    1
    42    24    38    1
    43    28    39    1
    44    28    40    1
    45    29    41    1
    46    29    42    1
    47    30    43    1
    48    30    44    1
    49    31    45    1
    50    31    46    1
    51    32    47    1
    52    32    48    1
    53     4    49    1
    54    13    50    1
    55    14    51    1
    56    15    52    1
    57    16    53    1
    58    18    54    1
    59    19    55    1
@<TRIPOS>MOLECULE
mol100_1_28
 55 59 0 0 0
SMALL
USER_CHARGES
****
VDW energy = -23.82
@<TRIPOS>ATOM
   1 O1        3.4420    -9.1855    -5.2979  O.2     1  <O>11      -0.2699
   2 C1        2.8552    -9.8129    -4.4288  C.2     1  <O>11       0.2494
   3 C2        1.4620   -10.1610    -4.6040  C.ar    1  <O>11       0.0723
   4 C3        0.5927    -9.2326    -5.1822  C.ar    1  <O>11      -0.0433
   5 C4       -0.7586    -9.5576    -5.3434  C.ar    1  <O>11      -0.0406
   6 C5       -1.6811    -8.5776    -5.9489  C.3     1  <O>11       0.0171
   7 C6       -2.2680    -7.7253    -4.8830  C.ar    1  <O>11       0.0736
   8 N1       -2.0071    -8.0117    -3.5383  N.ar    1  <O>11      -0.1750
   9 N2       -2.6157    -7.3112    -2.5542  N.ar    1  <O>11      -0.2425
  10 C7       -3.4736    -6.3174    -2.8876  C.ar    1  <O>11       0.2725
  11 O2       -4.1471    -5.6931    -1.8204  O.2     1  <O>11      -0.2658
  12 C8       -3.7106    -5.9003    -4.2055  C.ar    1  <O>11       0.0496
  13 C9       -4.5609    -4.8253    -4.5532  C.ar    1  <O>11      -0.0487
  14 C10      -4.7778    -4.4838    -5.8884  C.ar    1  <O>11      -0.0610
  15 C11      -4.1573    -5.2088    -6.8994  C.ar    1  <O>11      -0.0611
  16 C12      -3.3199    -6.2776    -6.5754  C.ar    1  <O>11      -0.0521
  17 C13      -3.0822    -6.6331    -5.2272  C.ar    1  <O>11       0.0106
  18 C14      -1.2358   -10.8050    -4.9328  C.ar    1  <O>11      -0.0555
  19 C15      -0.3521   -11.7274    -4.3617  C.ar    1  <O>11      -0.0254
  20 C16       0.9977   -11.4130    -4.1980  C.ar    1  <O>11       0.1355
  21 F1        1.8657   -12.3190    -3.6457  F       1  <O>11      -0.2047
  22 N3        3.5160   -10.1860    -3.2900  N.am    1  <O>11      -0.2959
  23 C17       3.0432   -10.8702    -2.2392  C.3     1  <O>11       0.0276
  24 C18       4.5466   -11.1367    -1.9852  C.3     1  <O>11       0.0671
  25 C19       5.0568   -12.4943    -2.4734  C.2     1  <O>11       0.2217
  26 O3        5.1665   -12.7113    -3.6713  O.2     1  <O>11      -0.2752
  27 N4        5.3905   -13.4655    -1.5686  N.am    1  <O>11      -0.3012
  28 C20       5.8679   -14.7384    -1.9704  C.3     1  <O>11       0.0147
  29 C21       5.8493   -15.5196    -0.6636  C.3     1  <O>11      -0.0357
  30 C22       6.0706   -14.4369     0.3854  C.3     1  <O>11      -0.0357
  31 C23       5.2811   -13.2630    -0.1711  C.3     1  <O>11       0.0147
  32 C24       4.7926    -9.9562    -2.9543  C.3     1  <O>11       0.0276
  33 H1       -2.4784    -9.1057    -6.4722  H       1  <O>11       0.0377
  34 H2       -1.1348    -7.9524    -6.6551  H       1  <O>11       0.0377
  35 H3       -2.4331    -7.5255    -1.5847  H       1  <O>11       0.1921
  36 H4        2.5340   -10.2767    -1.4794  H       1  <O>11       0.0472
  37 H5        2.4417   -11.7472    -2.4794  H       1  <O>11       0.0472
  38 H6        4.8784   -10.9706    -0.9600  H       1  <O>11       0.0425
  39 H7        5.2078   -15.1915    -2.7099  H       1  <O>11       0.0464
  40 H8        6.8779   -14.6708    -2.3767  H       1  <O>11       0.0464
  41 H9        4.8894   -16.0160    -0.5172  H       1  <O>11       0.0281
  42 H10       6.6496   -16.2583    -0.6379  H       1  <O>11       0.0281
  43 H11       5.6815   -14.7473     1.3554  H       1  <O>11       0.0281
  44 H12       7.1276   -14.1908     0.4779  H       1  <O>11       0.0281
  45 H13       4.2407   -13.2951     0.1521  H       1  <O>11       0.0464
  46 H14       5.7249   -12.3114     0.1250  H       1  <O>11       0.0464
  47 H15       4.9909    -8.9924    -2.4843  H       1  <O>11       0.0472
  48 H16       5.5261   -10.1351    -3.7403  H       1  <O>11       0.0472
  49 H17       0.9453    -8.3124    -5.4886  H       1  <O>11       0.0629
  50 H18      -5.0280    -4.2852    -3.8082  H       1  <O>11       0.0625
  51 H19      -5.3982    -3.6938    -6.1254  H       1  <O>11       0.0618
  52 H20      -4.3155    -4.9573    -7.8878  H       1  <O>11       0.0618
  53 H21      -2.8676    -6.8164    -7.3306  H       1  <O>11       0.0624
  54 H22      -2.2328   -11.0443    -5.0499  H       1  <O>11       0.0621
  55 H23      -0.7021   -12.6495    -4.0583  H       1  <O>11       0.0646
@<TRIPOS>BOND
     1     1     2    2
     2     2     3    1
     3     3     4   ar
     4     4     5   ar
     5     5     6    1
     6     6     7    1
     7     7     8   ar
     8     8     9   ar
     9     9    10   ar
    10    10    11    2
    11    10    12   ar
    12    12    13   ar
    13    13    14   ar
    14    14    15   ar
    15    15    16   ar
    16    16    17   ar
    17     7    17   ar
    18    12    17   ar
    19     5    18   ar
    20    18    19   ar
    21    19    20   ar
    22     3    20   ar
    23    20    21    1
    24     2    22   am
    25    22    23    1
    26    23    24    1
    27    24    25    1
    28    25    26    2
    29    25    27   am
    30    27    28    1
    31    28    29    1
    32    29    30    1
    33    30    31    1
    34    27    31    1
    35    24    32    1
    36    22    32    1
    37     6    33    1
    38     6    34    1
    39     9    35    1
    40    23    36    1
    41    23    37    1
    42    24    38    1
    43    28    39    1
    44    28    40    1
    45    29    41    1
    46    29    42    1
    47    30    43    1
    48    30    44    1
    49    31    45    1
    50    31    46    1
    51    32    47    1
    52    32    48    1
    53     4    49    1
    54    13    50    1
    55    14    51    1
    56    15    52    1
    57    16    53    1
    58    18    54    1
    59    19    55    1
@<TRIPOS>MOLECULE
mol100_1_29
 55 59 0 0 0
SMALL
USER_CHARGES
****
VDW energy = -20.60
@<TRIPOS>ATOM
   1 O1        3.4420    -9.1855    -5.2979  O.2     1  <O>11      -0.2699
   2 C1        2.8552    -9.8129    -4.4288  C.2     1  <O>11       0.2494
   3 C2        1.4620   -10.1610    -4.6040  C.ar    1  <O>11       0.0723
   4 C3        0.8563   -11.0347    -3.6977  C.ar    1  <O>11      -0.0433
   5 C4       -0.4874   -11.3857    -3.8680  C.ar    1  <O>11      -0.0406
   6 C5       -1.1293   -12.3126    -2.9156  C.3     1  <O>11       0.0171
   7 C6       -2.5879   -12.3744    -3.1909  C.ar    1  <O>11       0.0736
   8 N1       -3.4567   -11.4833    -2.5510  N.ar    1  <O>11      -0.1750
   9 N2       -4.7955   -11.5928    -2.7098  N.ar    1  <O>11      -0.2425
  10 C7       -5.2856   -12.5708    -3.5087  C.ar    1  <O>11       0.2725
  11 O2       -6.6875   -12.6923    -3.5545  O.2     1  <O>11      -0.2658
  12 C8       -4.4823   -13.4369    -4.2647  C.ar    1  <O>11       0.0496
  13 C9       -4.9908   -14.4205    -5.1441  C.ar    1  <O>11      -0.0487
  14 C10      -4.1342   -15.2723    -5.8420  C.ar    1  <O>11      -0.0610
  15 C11      -2.7585   -15.1635    -5.6728  C.ar    1  <O>11      -0.0611
  16 C12      -2.2385   -14.2030    -4.8036  C.ar    1  <O>11      -0.0521
  17 C13      -3.0915   -13.3259    -4.0939  C.ar    1  <O>11       0.0106
  18 C14      -1.2211   -10.8622    -4.9356  C.ar    1  <O>11      -0.0555
  19 C15      -0.6032    -9.9828    -5.8314  C.ar    1  <O>11      -0.0254
  20 C16       0.7361    -9.6256    -5.6691  C.ar    1  <O>11       0.1355
  21 F1        1.3401    -8.7580    -6.5419  F       1  <O>11      -0.2047
  22 N3        3.5160   -10.1860    -3.2900  N.am    1  <O>11      -0.2959
  23 C17       4.7930    -9.9560    -2.9550  C.3     1  <O>11       0.0276
  24 C18       4.2650   -10.2400    -1.5280  C.3     1  <O>11       0.0671
  25 C19       3.9580    -8.9970    -0.6900  C.2     1  <O>11       0.2217
  26 O3        2.8424    -8.4985    -0.7220  O.2     1  <O>11      -0.2752
  27 N4        4.9326    -8.4436     0.0956  N.am    1  <O>11      -0.3012
  28 C20       6.2410    -8.9845     0.1671  C.3     1  <O>11       0.0147
  29 C21       6.8512    -8.2066     1.3251  C.3     1  <O>11      -0.0357
  30 C22       6.1090    -6.8769     1.2728  C.3     1  <O>11      -0.0357
  31 C23       4.6984    -7.2940     0.8890  C.3     1  <O>11       0.0147
  32 C24       3.0440   -10.8700    -2.2390  C.3     1  <O>11       0.0276
  33 H1       -0.9662   -11.9570    -1.8980  H       1  <O>11       0.0377
  34 H2       -0.6956   -13.3063    -3.0272  H       1  <O>11       0.0377
  35 H3       -5.4210   -10.9547    -2.2400  H       1  <O>11       0.1921
  36 H4        5.5190   -10.6720    -3.3410  H       1  <O>11       0.0472
  37 H5        5.1520    -8.9420    -3.1330  H       1  <O>11       0.0472
  38 H6        4.8680   -10.9340    -0.9420  H       1  <O>11       0.0425
  39 H7        6.2147   -10.0529     0.3804  H       1  <O>11       0.0464
  40 H8        6.7906    -8.8115    -0.7591  H       1  <O>11       0.0464
  41 H9        6.6769    -8.7151     2.2740  H       1  <O>11       0.0281
  42 H10       7.9212    -8.0630     1.1794  H       1  <O>11       0.0281
  43 H11       6.1218    -6.3838     2.2451  H       1  <O>11       0.0281
  44 H12       6.5410    -6.2160     0.5226  H       1  <O>11       0.0281
  45 H13       4.1025    -7.5363     1.7688  H       1  <O>11       0.0464
  46 H14       4.1976    -6.5139     0.3139  H       1  <O>11       0.0464
  47 H15       3.0620   -11.9560    -2.3360  H       1  <O>11       0.0472
  48 H16       2.0680   -10.5540    -1.8710  H       1  <O>11       0.0472
  49 H17       1.3969   -11.4191    -2.9071  H       1  <O>11       0.0629
  50 H18      -6.0110   -14.5097    -5.2716  H       1  <O>11       0.0625
  51 H19      -4.5212   -15.9824    -6.4832  H       1  <O>11       0.0618
  52 H20      -2.1229   -15.7918    -6.1888  H       1  <O>11       0.0618
  53 H21      -1.2168   -14.1317    -4.6769  H       1  <O>11       0.0624
  54 H22      -2.2117   -11.1223    -5.0625  H       1  <O>11       0.0621
  55 H23      -1.1433    -9.5944    -6.6203  H       1  <O>11       0.0646
@<TRIPOS>BOND
     1     1     2    2
     2     2     3    1
     3     3     4   ar
     4     4     5   ar
     5     5     6    1
     6     6     7    1
     7     7     8   ar
     8     8     9   ar
     9     9    10   ar
    10    10    11    2
    11    10    12   ar
    12    12    13   ar
    13    13    14   ar
    14    14    15   ar
    15    15    16   ar
    16    16    17   ar
    17     7    17   ar
    18    12    17   ar
    19     5    18   ar
    20    18    19   ar
    21    19    20   ar
    22     3    20   ar
    23    20    21    1
    24     2    22   am
    25    22    23    1
    26    23    24    1
    27    24    25    1
    28    25    26    2
    29    25    27   am
    30    27    28    1
    31    28    29    1
    32    29    30    1
    33    30    31    1
    34    27    31    1
    35    24    32    1
    36    22    32    1
    37     6    33    1
    38     6    34    1
    39     9    35    1
    40    23    36    1
    41    23    37    1
    42    24    38    1
    43    28    39    1
    44    28    40    1
    45    29    41    1
    46    29    42    1
    47    30    43    1
    48    30    44    1
    49    31    45    1
    50    31    46    1
    51    32    47    1
    52    32    48    1
    53     4    49    1
    54    13    50    1
    55    14    51    1
    56    15    52    1
    57    16    53    1
    58    18    54    1
    59    19    55    1
@<TRIPOS>MOLECULE
mol100_1_30
 55 59 0 0 0
SMALL
USER_CHARGES
****
VDW energy = -20.38
@<TRIPOS>ATOM
   1 O1        3.4420    -9.1855    -5.2979  O.2     1  <O>11      -0.2699
   2 C1        2.8552    -9.8129    -4.4288  C.2     1  <O>11       0.2494
   3 C2        1.4620   -10.1610    -4.6040  C.ar    1  <O>11       0.0723
   4 C3        0.8563   -11.0347    -3.6977  C.ar    1  <O>11      -0.0433
   5 C4       -0.4874   -11.3857    -3.8680  C.ar    1  <O>11      -0.0406
   6 C5       -1.1293   -12.3126    -2.9156  C.3     1  <O>11       0.0171
   7 C6       -2.5879   -12.3744    -3.1909  C.ar    1  <O>11       0.0736
   8 N1       -3.4567   -11.4833    -2.5510  N.ar    1  <O>11      -0.1750
   9 N2       -4.7955   -11.5928    -2.7098  N.ar    1  <O>11      -0.2425
  10 C7       -5.2856   -12.5708    -3.5087  C.ar    1  <O>11       0.2725
  11 O2       -6.6875   -12.6923    -3.5545  O.2     1  <O>11      -0.2658
  12 C8       -4.4823   -13.4369    -4.2647  C.ar    1  <O>11       0.0496
  13 C9       -4.9908   -14.4205    -5.1441  C.ar    1  <O>11      -0.0487
  14 C10      -4.1342   -15.2723    -5.8420  C.ar    1  <O>11      -0.0610
  15 C11      -2.7585   -15.1635    -5.6728  C.ar    1  <O>11      -0.0611
  16 C12      -2.2385   -14.2030    -4.8036  C.ar    1  <O>11      -0.0521
  17 C13      -3.0915   -13.3259    -4.0939  C.ar    1  <O>11       0.0106
  18 C14      -1.2211   -10.8622    -4.9356  C.ar    1  <O>11      -0.0555
  19 C15      -0.6032    -9.9828    -5.8314  C.ar    1  <O>11      -0.0254
  20 C16       0.7361    -9.6256    -5.6691  C.ar    1  <O>11       0.1355
  21 F1        1.3401    -8.7580    -6.5419  F       1  <O>11      -0.2047
  22 N3        3.5160   -10.1860    -3.2900  N.am    1  <O>11      -0.2959
  23 C17       4.7930    -9.9560    -2.9550  C.3     1  <O>11       0.0276
  24 C18       4.2650   -10.2400    -1.5280  C.3     1  <O>11       0.0671
  25 C19       3.9580    -8.9970    -0.6900  C.2     1  <O>11       0.2217
  26 O3        2.8424    -8.4985    -0.7220  O.2     1  <O>11      -0.2752
  27 N4        4.9326    -8.4436     0.0956  N.am    1  <O>11      -0.3012
  28 C20       4.6979    -7.2932     0.8901  C.3     1  <O>11       0.0147
  29 C21       6.1009    -6.9277     1.3549  C.3     1  <O>11      -0.0357
  30 C22       6.8137    -8.2742     1.3829  C.3     1  <O>11      -0.0357
  31 C23       6.2399    -8.9837     0.1669  C.3     1  <O>11       0.0147
  32 C24       3.0440   -10.8700    -2.2390  C.3     1  <O>11       0.0276
  33 H1       -0.9662   -11.9570    -1.8980  H       1  <O>11       0.0377
  34 H2       -0.6956   -13.3063    -3.0272  H       1  <O>11       0.0377
  35 H3       -5.4210   -10.9547    -2.2400  H       1  <O>11       0.1921
  36 H4        5.5190   -10.6720    -3.3410  H       1  <O>11       0.0472
  37 H5        5.1520    -8.9420    -3.1330  H       1  <O>11       0.0472
  38 H6        4.8680   -10.9340    -0.9420  H       1  <O>11       0.0425
  39 H7        4.2564    -6.4902     0.3001  H       1  <O>11       0.0464
  40 H8        4.0482    -7.5234     1.7355  H       1  <O>11       0.0464
  41 H9        6.5812    -6.2452     0.6529  H       1  <O>11       0.0281
  42 H10       6.0796    -6.4761     2.3461  H       1  <O>11       0.0281
  43 H11       7.8926    -8.1471     1.2905  H       1  <O>11       0.0281
  44 H12       6.5873    -8.8187     2.2985  H       1  <O>11       0.0281
  45 H13       6.8110    -8.7550    -0.7327  H       1  <O>11       0.0464
  46 H14       6.2122   -10.0641     0.3155  H       1  <O>11       0.0464
  47 H15       3.0620   -11.9560    -2.3360  H       1  <O>11       0.0472
  48 H16       2.0680   -10.5540    -1.8710  H       1  <O>11       0.0472
  49 H17       1.3969   -11.4191    -2.9071  H       1  <O>11       0.0629
  50 H18      -6.0110   -14.5097    -5.2716  H       1  <O>11       0.0625
  51 H19      -4.5212   -15.9824    -6.4832  H       1  <O>11       0.0618
  52 H20      -2.1229   -15.7918    -6.1888  H       1  <O>11       0.0618
  53 H21      -1.2168   -14.1317    -4.6769  H       1  <O>11       0.0624
  54 H22      -2.2117   -11.1223    -5.0625  H       1  <O>11       0.0621
  55 H23      -1.1433    -9.5944    -6.6203  H       1  <O>11       0.0646
@<TRIPOS>BOND
     1     1     2    2
     2     2     3    1
     3     3     4   ar
     4     4     5   ar
     5     5     6    1
     6     6     7    1
     7     7     8   ar
     8     8     9   ar
     9     9    10   ar
    10    10    11    2
    11    10    12   ar
    12    12    13   ar
    13    13    14   ar
    14    14    15   ar
    15    15    16   ar
    16    16    17   ar
    17     7    17   ar
    18    12    17   ar
    19     5    18   ar
    20    18    19   ar
    21    19    20   ar
    22     3    20   ar
    23    20    21    1
    24     2    22   am
    25    22    23    1
    26    23    24    1
    27    24    25    1
    28    25    26    2
    29    25    27   am
    30    27    28    1
    31    28    29    1
    32    29    30    1
    33    30    31    1
    34    27    31    1
    35    24    32    1
    36    22    32    1
    37     6    33    1
    38     6    34    1
    39     9    35    1
    40    23    36    1
    41    23    37    1
    42    24    38    1
    43    28    39    1
    44    28    40    1
    45    29    41    1
    46    29    42    1
    47    30    43    1
    48    30    44    1
    49    31    45    1
    50    31    46    1
    51    32    47    1
    52    32    48    1
    53     4    49    1
    54    13    50    1
    55    14    51    1
    56    15    52    1
    57    16    53    1
    58    18    54    1
    59    19    55    1
