@<TRIPOS>MOLECULE
mol16_1_1
 37 39 0 0 0
SMALL
USER_CHARGES
****
VDW energy = -92.43
@<TRIPOS>ATOM
   1 O1        8.7381    -1.4068    -2.6744  O.2     1  <O>11      -0.2751
   2 C1        7.6234    -1.0459    -3.0216  C.2     1  <O>11       0.2231
   3 C2        6.7510    -0.2990    -2.0700  C.3     1  <O>11       0.0688
   4 C3        7.4590    -0.1250    -0.7860  C.ar    1  <O>11       0.0780
   5 N1        7.2738    -1.1113     0.1273  N.ar    1  <O>11      -0.1748
   6 N2        7.8032    -0.9746     1.3639  N.ar    1  <O>11      -0.2425
   7 C4        8.5122     0.1405     1.6571  C.ar    1  <O>11       0.2725
   8 O2        8.9520     0.2652     2.9887  O.2     1  <O>11      -0.2658
   9 C5        8.8181     1.1406     0.7225  C.ar    1  <O>11       0.0496
  10 C6        9.6078     2.2762     1.0104  C.ar    1  <O>11      -0.0487
  11 C7        9.8460     3.2515     0.0410  C.ar    1  <O>11      -0.0610
  12 C8        9.2966     3.1146    -1.2286  C.ar    1  <O>11      -0.0611
  13 C9        8.5069     2.0039    -1.5290  C.ar    1  <O>11      -0.0521
  14 C10       8.2616     1.0015    -0.5623  C.ar    1  <O>11       0.0108
  15 N3        7.1750    -1.3270    -4.2840  N.am    1  <O>11      -0.2852
  16 C11       7.9910    -2.0260    -5.1740  C.ar    1  <O>11       0.0339
  17 C12       8.8696    -1.3332    -6.0246  C.ar    1  <O>11      -0.0405
  18 C13       9.6790    -2.0339    -6.9249  C.ar    1  <O>11      -0.0595
  19 C14       9.6236    -3.4288    -6.9828  C.ar    1  <O>11      -0.0500
  20 C15       8.7541    -4.1191    -6.1308  C.ar    1  <O>11       0.0566
  21 C16       8.7007    -5.5925    -6.1941  C.3     1  <O>11       0.4175
  22 F1        7.7829    -6.0602    -5.2737  F       1  <O>11      -0.1659
  23 F2        9.9470    -6.1119    -5.9061  F       1  <O>11      -0.1659
  24 F3        8.3212    -5.9850    -7.4630  F       1  <O>11      -0.1659
  25 C17       7.9434    -3.4293    -5.2281  C.ar    1  <O>11      -0.0288
  26 H1        6.5110     0.6790    -2.4880  H       1  <O>11       0.0423
  27 H2        5.8310    -0.8590    -1.9040  H       1  <O>11       0.0423
  28 H3        7.6690    -1.6952     2.0590  H       1  <O>11       0.1921
  29 H4        6.2450    -1.0260    -4.5740  H       1  <O>11       0.1548
  30 H5       10.0150     2.3861     1.9523  H       1  <O>11       0.0625
  31 H6       10.4288     4.0728     0.2663  H       1  <O>11       0.0618
  32 H7        9.4726     3.8333    -1.9480  H       1  <O>11       0.0618
  33 H8        8.0956     1.9129    -2.4711  H       1  <O>11       0.0624
  34 H9        8.9177    -0.3032    -5.9848  H       1  <O>11       0.0636
  35 H10      10.3195    -1.5186    -7.5488  H       1  <O>11       0.0618
  36 H11      10.2191    -3.9459    -7.6484  H       1  <O>11       0.0623
  37 H12       7.3098    -3.9493    -4.6011  H       1  <O>11       0.0642
@<TRIPOS>BOND
     1     1     2    2
     2     2     3    1
     3     3     4    1
     4     4     5   ar
     5     5     6   ar
     6     6     7   ar
     7     7     8    2
     8     7     9   ar
     9     9    10   ar
    10    10    11   ar
    11    11    12   ar
    12    12    13   ar
    13    13    14   ar
    14     4    14   ar
    15     9    14   ar
    16     2    15   am
    17    15    16    1
    18    16    17   ar
    19    17    18   ar
    20    18    19   ar
    21    19    20   ar
    22    20    21    1
    23    21    22    1
    24    21    23    1
    25    21    24    1
    26    20    25   ar
    27    16    25   ar
    28     3    26    1
    29     3    27    1
    30     6    28    1
    31    15    29    1
    32    10    30    1
    33    11    31    1
    34    12    32    1
    35    13    33    1
    36    17    34    1
    37    18    35    1
    38    19    36    1
    39    25    37    1
@<TRIPOS>MOLECULE
mol16_1_2
 37 39 0 0 0
SMALL
USER_CHARGES
****
VDW energy = -89.92
@<TRIPOS>ATOM
   1 O1        8.7381    -1.4068    -2.6744  O.2     1  <O>11      -0.2751
   2 C1        7.6234    -1.0459    -3.0216  C.2     1  <O>11       0.2231
   3 C2        6.7510    -0.2990    -2.0700  C.3     1  <O>11       0.0688
   4 C3        7.4590    -0.1250    -0.7860  C.ar    1  <O>11       0.0780
   5 N1        8.2092     1.0001    -0.6747  N.ar    1  <O>11      -0.1748
   6 N2        8.9699     1.1805     0.4285  N.ar    1  <O>11      -0.2425
   7 C4        8.9575     0.2366     1.3986  C.ar    1  <O>11       0.2725
   8 O2        9.8445     0.4380     2.4732  O.2     1  <O>11      -0.2658
   9 C5        8.1258    -0.8927     1.3798  C.ar    1  <O>11       0.0496
  10 C6        8.0677    -1.8485     2.4186  C.ar    1  <O>11      -0.0487
  11 C7        7.2409    -2.9685     2.3203  C.ar    1  <O>11      -0.0610
  12 C8        6.4634    -3.1576     1.1837  C.ar    1  <O>11      -0.0611
  13 C9        6.5139    -2.2287     0.1435  C.ar    1  <O>11      -0.0521
  14 C10       7.3393    -1.0836     0.2288  C.ar    1  <O>11       0.0108
  15 N3        7.1750    -1.3270    -4.2840  N.am    1  <O>11      -0.2852
  16 C11       7.9910    -2.0260    -5.1740  C.ar    1  <O>11       0.0339
  17 C12       8.4384    -3.3206    -4.8591  C.ar    1  <O>11      -0.0405
  18 C13       9.2660    -4.0164    -5.7465  C.ar    1  <O>11      -0.0595
  19 C14       9.6512    -3.4314    -6.9555  C.ar    1  <O>11      -0.0500
  20 C15       9.1999    -2.1452    -7.2724  C.ar    1  <O>11       0.0566
  21 C16       9.6077    -1.5323    -8.5514  C.3     1  <O>11       0.4175
  22 F1       10.7837    -0.8302    -8.3716  F       1  <O>11      -0.1659
  23 F2        8.6196    -0.6715    -8.9859  F       1  <O>11      -0.1659
  24 F3        9.8021    -2.5224    -9.4947  F       1  <O>11      -0.1659
  25 C17       8.3728    -1.4432    -6.3943  C.ar    1  <O>11      -0.0288
  26 H1        6.5110     0.6790    -2.4880  H       1  <O>11       0.0423
  27 H2        5.8310    -0.8590    -1.9040  H       1  <O>11       0.0423
  28 H3        9.5407     2.0084     0.5251  H       1  <O>11       0.1921
  29 H4        6.2450    -1.0260    -4.5740  H       1  <O>11       0.1548
  30 H5        8.6457    -1.7163     3.2633  H       1  <O>11       0.0625
  31 H6        7.2067    -3.6549     3.0901  H       1  <O>11       0.0618
  32 H7        5.8496    -3.9840     1.1091  H       1  <O>11       0.0618
  33 H8        5.9402    -2.3797    -0.7009  H       1  <O>11       0.0624
  34 H9        8.1550    -3.7598    -3.9693  H       1  <O>11       0.0636
  35 H10       9.5933    -4.9654    -5.5074  H       1  <O>11       0.0618
  36 H11      10.2636    -3.9436    -7.6094  H       1  <O>11       0.0623
  37 H12       8.0420    -0.4973    -6.6410  H       1  <O>11       0.0642
@<TRIPOS>BOND
     1     1     2    2
     2     2     3    1
     3     3     4    1
     4     4     5   ar
     5     5     6   ar
     6     6     7   ar
     7     7     8    2
     8     7     9   ar
     9     9    10   ar
    10    10    11   ar
    11    11    12   ar
    12    12    13   ar
    13    13    14   ar
    14     4    14   ar
    15     9    14   ar
    16     2    15   am
    17    15    16    1
    18    16    17   ar
    19    17    18   ar
    20    18    19   ar
    21    19    20   ar
    22    20    21    1
    23    21    22    1
    24    21    23    1
    25    21    24    1
    26    20    25   ar
    27    16    25   ar
    28     3    26    1
    29     3    27    1
    30     6    28    1
    31    15    29    1
    32    10    30    1
    33    11    31    1
    34    12    32    1
    35    13    33    1
    36    17    34    1
    37    18    35    1
    38    19    36    1
    39    25    37    1
@<TRIPOS>MOLECULE
mol16_1_3
 37 39 0 0 0
SMALL
USER_CHARGES
****
VDW energy = -89.79
@<TRIPOS>ATOM
   1 O1        8.7381    -1.4068    -2.6744  O.2     1  <O>11      -0.2751
   2 C1        7.6234    -1.0459    -3.0216  C.2     1  <O>11       0.2231
   3 C2        6.7510    -0.2990    -2.0700  C.3     1  <O>11       0.0688
   4 C3        7.4590    -0.1250    -0.7860  C.ar    1  <O>11       0.0780
   5 N1        8.2092     1.0001    -0.6747  N.ar    1  <O>11      -0.1748
   6 N2        8.9699     1.1805     0.4285  N.ar    1  <O>11      -0.2425
   7 C4        8.9575     0.2366     1.3986  C.ar    1  <O>11       0.2725
   8 O2        9.8445     0.4380     2.4732  O.2     1  <O>11      -0.2658
   9 C5        8.1258    -0.8927     1.3798  C.ar    1  <O>11       0.0496
  10 C6        8.0677    -1.8485     2.4186  C.ar    1  <O>11      -0.0487
  11 C7        7.2409    -2.9685     2.3203  C.ar    1  <O>11      -0.0610
  12 C8        6.4634    -3.1576     1.1837  C.ar    1  <O>11      -0.0611
  13 C9        6.5139    -2.2287     0.1435  C.ar    1  <O>11      -0.0521
  14 C10       7.3393    -1.0836     0.2288  C.ar    1  <O>11       0.0108
  15 N3        7.1750    -1.3270    -4.2840  N.am    1  <O>11      -0.2852
  16 C11       7.9910    -2.0260    -5.1740  C.ar    1  <O>11       0.0339
  17 C12       8.4384    -3.3206    -4.8591  C.ar    1  <O>11      -0.0405
  18 C13       9.2660    -4.0164    -5.7465  C.ar    1  <O>11      -0.0595
  19 C14       9.6512    -3.4314    -6.9555  C.ar    1  <O>11      -0.0500
  20 C15       9.1999    -2.1452    -7.2724  C.ar    1  <O>11       0.0566
  21 C16       9.6077    -1.5323    -8.5514  C.3     1  <O>11       0.4175
  22 F1       10.9847    -1.4331    -8.5964  F       1  <O>11      -0.1659
  23 F2        9.0518    -0.2730    -8.6571  F       1  <O>11      -0.1659
  24 F3        9.1682    -2.3180    -9.5989  F       1  <O>11      -0.1659
  25 C17       8.3728    -1.4432    -6.3943  C.ar    1  <O>11      -0.0288
  26 H1        6.5110     0.6790    -2.4880  H       1  <O>11       0.0423
  27 H2        5.8310    -0.8590    -1.9040  H       1  <O>11       0.0423
  28 H3        9.5407     2.0084     0.5251  H       1  <O>11       0.1921
  29 H4        6.2450    -1.0260    -4.5740  H       1  <O>11       0.1548
  30 H5        8.6457    -1.7163     3.2633  H       1  <O>11       0.0625
  31 H6        7.2067    -3.6549     3.0901  H       1  <O>11       0.0618
  32 H7        5.8496    -3.9840     1.1091  H       1  <O>11       0.0618
  33 H8        5.9402    -2.3797    -0.7009  H       1  <O>11       0.0624
  34 H9        8.1550    -3.7598    -3.9693  H       1  <O>11       0.0636
  35 H10       9.5933    -4.9654    -5.5074  H       1  <O>11       0.0618
  36 H11      10.2636    -3.9436    -7.6094  H       1  <O>11       0.0623
  37 H12       8.0420    -0.4973    -6.6410  H       1  <O>11       0.0642
@<TRIPOS>BOND
     1     1     2    2
     2     2     3    1
     3     3     4    1
     4     4     5   ar
     5     5     6   ar
     6     6     7   ar
     7     7     8    2
     8     7     9   ar
     9     9    10   ar
    10    10    11   ar
    11    11    12   ar
    12    12    13   ar
    13    13    14   ar
    14     4    14   ar
    15     9    14   ar
    16     2    15   am
    17    15    16    1
    18    16    17   ar
    19    17    18   ar
    20    18    19   ar
    21    19    20   ar
    22    20    21    1
    23    21    22    1
    24    21    23    1
    25    21    24    1
    26    20    25   ar
    27    16    25   ar
    28     3    26    1
    29     3    27    1
    30     6    28    1
    31    15    29    1
    32    10    30    1
    33    11    31    1
    34    12    32    1
    35    13    33    1
    36    17    34    1
    37    18    35    1
    38    19    36    1
    39    25    37    1
@<TRIPOS>MOLECULE
mol16_1_4
 37 39 0 0 0
SMALL
USER_CHARGES
****
VDW energy = -88.28
@<TRIPOS>ATOM
   1 O1        8.7381    -1.4068    -2.6744  O.2     1  <O>11      -0.2751
   2 C1        7.6234    -1.0459    -3.0216  C.2     1  <O>11       0.2231
   3 C2        6.7510    -0.2990    -2.0700  C.3     1  <O>11       0.0688
   4 C3        6.0363     0.7713    -2.7938  C.ar    1  <O>11       0.0780
   5 N1        4.6817     0.6972    -2.7676  N.ar    1  <O>11      -0.1748
   6 N2        3.9576     1.5792    -3.4928  N.ar    1  <O>11      -0.2425
   7 C4        4.6032     2.5199    -4.2211  C.ar    1  <O>11       0.2725
   8 O2        3.7957     3.3432    -5.0287  O.2     1  <O>11      -0.2658
   9 C5        5.9936     2.7038    -4.2038  C.ar    1  <O>11       0.0496
  10 C6        6.6647     3.7224    -4.9166  C.ar    1  <O>11      -0.0487
  11 C7        8.0559     3.8281    -4.8817  C.ar    1  <O>11      -0.0610
  12 C8        8.8011     2.9176    -4.1414  C.ar    1  <O>11      -0.0611
  13 C9        8.1564     1.8995    -3.4377  C.ar    1  <O>11      -0.0521
  14 C10       6.7473     1.7817    -3.4545  C.ar    1  <O>11       0.0108
  15 N3        7.1750    -1.3270    -4.2840  N.am    1  <O>11      -0.2852
  16 C11       7.9910    -2.0260    -5.1740  C.ar    1  <O>11       0.0339
  17 C12       8.4384    -3.3206    -4.8591  C.ar    1  <O>11      -0.0405
  18 C13       9.2660    -4.0164    -5.7465  C.ar    1  <O>11      -0.0595
  19 C14       9.6512    -3.4314    -6.9555  C.ar    1  <O>11      -0.0500
  20 C15       9.1999    -2.1452    -7.2724  C.ar    1  <O>11       0.0566
  21 C16       9.6077    -1.5323    -8.5514  C.3     1  <O>11       0.4175
  22 F1       10.7837    -0.8302    -8.3716  F       1  <O>11      -0.1659
  23 F2        8.6196    -0.6715    -8.9859  F       1  <O>11      -0.1659
  24 F3        9.8021    -2.5224    -9.4947  F       1  <O>11      -0.1659
  25 C17       8.3728    -1.4432    -6.3943  C.ar    1  <O>11      -0.0288
  26 H1        6.0274    -0.9835    -1.6265  H       1  <O>11       0.0423
  27 H2        7.3639     0.1414    -1.2839  H       1  <O>11       0.0423
  28 H3        2.9484     1.5342    -3.4914  H       1  <O>11       0.1921
  29 H4        6.2450    -1.0260    -4.5740  H       1  <O>11       0.1548
  30 H5        6.1177     4.3988    -5.4717  H       1  <O>11       0.0625
  31 H6        8.5304     4.5807    -5.4045  H       1  <O>11       0.0618
  32 H7        9.8299     2.9946    -4.1123  H       1  <O>11       0.0618
  33 H8        8.7165     1.2223    -2.8968  H       1  <O>11       0.0624
  34 H9        8.1550    -3.7598    -3.9693  H       1  <O>11       0.0636
  35 H10       9.5933    -4.9654    -5.5074  H       1  <O>11       0.0618
  36 H11      10.2636    -3.9436    -7.6094  H       1  <O>11       0.0623
  37 H12       8.0420    -0.4973    -6.6410  H       1  <O>11       0.0642
@<TRIPOS>BOND
     1     1     2    2
     2     2     3    1
     3     3     4    1
     4     4     5   ar
     5     5     6   ar
     6     6     7   ar
     7     7     8    2
     8     7     9   ar
     9     9    10   ar
    10    10    11   ar
    11    11    12   ar
    12    12    13   ar
    13    13    14   ar
    14     4    14   ar
    15     9    14   ar
    16     2    15   am
    17    15    16    1
    18    16    17   ar
    19    17    18   ar
    20    18    19   ar
    21    19    20   ar
    22    20    21    1
    23    21    22    1
    24    21    23    1
    25    21    24    1
    26    20    25   ar
    27    16    25   ar
    28     3    26    1
    29     3    27    1
    30     6    28    1
    31    15    29    1
    32    10    30    1
    33    11    31    1
    34    12    32    1
    35    13    33    1
    36    17    34    1
    37    18    35    1
    38    19    36    1
    39    25    37    1
@<TRIPOS>MOLECULE
mol16_1_5
 37 39 0 0 0
SMALL
USER_CHARGES
****
VDW energy = -87.28
@<TRIPOS>ATOM
   1 O1        8.7381    -1.4068    -2.6744  O.2     1  <O>11      -0.2751
   2 C1        7.6234    -1.0459    -3.0216  C.2     1  <O>11       0.2231
   3 C2        6.7510    -0.2990    -2.0700  C.3     1  <O>11       0.0688
   4 C3        7.4590    -0.1250    -0.7860  C.ar    1  <O>11       0.0780
   5 N1        7.6639     1.1582    -0.3954  N.ar    1  <O>11      -0.1748
   6 N2        8.3957     1.4019     0.7151  N.ar    1  <O>11      -0.2425
   7 C4        8.8992     0.3580     1.4143  C.ar    1  <O>11       0.2725
   8 O2        9.7320     0.6822     2.5022  O.2     1  <O>11      -0.2658
   9 C5        8.6336    -0.9858     1.1124  C.ar    1  <O>11       0.0496
  10 C6        9.1091    -2.0758     1.8752  C.ar    1  <O>11      -0.0487
  11 C7        8.8347    -3.3914     1.4988  C.ar    1  <O>11      -0.0610
  12 C8        8.0878    -3.6426     0.3537  C.ar    1  <O>11      -0.0611
  13 C9        7.6169    -2.5789    -0.4172  C.ar    1  <O>11      -0.0521
  14 C10       7.8777    -1.2393    -0.0470  C.ar    1  <O>11       0.0108
  15 N3        7.1750    -1.3270    -4.2840  N.am    1  <O>11      -0.2852
  16 C11       7.9910    -2.0260    -5.1740  C.ar    1  <O>11       0.0339
  17 C12       7.9422    -3.4295    -5.2284  C.ar    1  <O>11      -0.0405
  18 C13       8.7689    -4.1304    -6.1127  C.ar    1  <O>11      -0.0595
  19 C14       9.6471    -3.4404    -6.9522  C.ar    1  <O>11      -0.0500
  20 C15       9.6905    -2.0425    -6.9032  C.ar    1  <O>11       0.0566
  21 C16      10.6181    -1.3179    -7.7933  C.3     1  <O>11       0.4175
  22 F1       10.4955     0.0412    -7.5787  F       1  <O>11      -0.1659
  23 F2       10.3139    -1.6054    -9.1089  F       1  <O>11      -0.1659
  24 F3       11.9148    -1.7112    -7.5250  F       1  <O>11      -0.1659
  25 C17       8.8688    -1.3339    -6.0254  C.ar    1  <O>11      -0.0288
  26 H1        6.5110     0.6790    -2.4880  H       1  <O>11       0.0423
  27 H2        5.8310    -0.8590    -1.9040  H       1  <O>11       0.0423
  28 H3        8.5650     2.3511     1.0166  H       1  <O>11       0.1921
  29 H4        6.2450    -1.0260    -4.5740  H       1  <O>11       0.1548
  30 H5        9.6679    -1.8963     2.7240  H       1  <O>11       0.0625
  31 H6        9.1858    -4.1762     2.0695  H       1  <O>11       0.0618
  32 H7        7.8818    -4.6144     0.0740  H       1  <O>11       0.0618
  33 H8        7.0699    -2.7729    -1.2706  H       1  <O>11       0.0624
  34 H9        7.2936    -3.9453    -4.6134  H       1  <O>11       0.0636
  35 H10       8.7301    -5.1612    -6.1451  H       1  <O>11       0.0618
  36 H11      10.2587    -3.9573    -7.6031  H       1  <O>11       0.0623
  37 H12       8.9058    -0.3028    -6.0017  H       1  <O>11       0.0642
@<TRIPOS>BOND
     1     1     2    2
     2     2     3    1
     3     3     4    1
     4     4     5   ar
     5     5     6   ar
     6     6     7   ar
     7     7     8    2
     8     7     9   ar
     9     9    10   ar
    10    10    11   ar
    11    11    12   ar
    12    12    13   ar
    13    13    14   ar
    14     4    14   ar
    15     9    14   ar
    16     2    15   am
    17    15    16    1
    18    16    17   ar
    19    17    18   ar
    20    18    19   ar
    21    19    20   ar
    22    20    21    1
    23    21    22    1
    24    21    23    1
    25    21    24    1
    26    20    25   ar
    27    16    25   ar
    28     3    26    1
    29     3    27    1
    30     6    28    1
    31    15    29    1
    32    10    30    1
    33    11    31    1
    34    12    32    1
    35    13    33    1
    36    17    34    1
    37    18    35    1
    38    19    36    1
    39    25    37    1
@<TRIPOS>MOLECULE
mol16_1_6
 37 39 0 0 0
SMALL
USER_CHARGES
****
VDW energy = -87.26
@<TRIPOS>ATOM
   1 O1        8.7381    -1.4068    -2.6744  O.2     1  <O>11      -0.2751
   2 C1        7.6234    -1.0459    -3.0216  C.2     1  <O>11       0.2231
   3 C2        6.7510    -0.2990    -2.0700  C.3     1  <O>11       0.0688
   4 C3        7.4590    -0.1250    -0.7860  C.ar    1  <O>11       0.0780
   5 N1        7.6639     1.1582    -0.3954  N.ar    1  <O>11      -0.1748
   6 N2        8.3957     1.4019     0.7151  N.ar    1  <O>11      -0.2425
   7 C4        8.8992     0.3580     1.4143  C.ar    1  <O>11       0.2725
   8 O2        9.7320     0.6822     2.5022  O.2     1  <O>11      -0.2658
   9 C5        8.6336    -0.9858     1.1124  C.ar    1  <O>11       0.0496
  10 C6        9.1091    -2.0758     1.8752  C.ar    1  <O>11      -0.0487
  11 C7        8.8347    -3.3914     1.4988  C.ar    1  <O>11      -0.0610
  12 C8        8.0878    -3.6426     0.3537  C.ar    1  <O>11      -0.0611
  13 C9        7.6169    -2.5789    -0.4172  C.ar    1  <O>11      -0.0521
  14 C10       7.8777    -1.2393    -0.0470  C.ar    1  <O>11       0.0108
  15 N3        7.1750    -1.3270    -4.2840  N.am    1  <O>11      -0.2852
  16 C11       7.9910    -2.0260    -5.1740  C.ar    1  <O>11       0.0339
  17 C12       8.8696    -1.3332    -6.0246  C.ar    1  <O>11      -0.0405
  18 C13       9.6790    -2.0339    -6.9249  C.ar    1  <O>11      -0.0595
  19 C14       9.6236    -3.4288    -6.9828  C.ar    1  <O>11      -0.0500
  20 C15       8.7541    -4.1191    -6.1308  C.ar    1  <O>11       0.0566
  21 C16       8.7007    -5.5925    -6.1941  C.3     1  <O>11       0.4175
  22 F1        7.7828    -6.0602    -5.2738  F       1  <O>11      -0.1659
  23 F2        9.9469    -6.1119    -5.9060  F       1  <O>11      -0.1659
  24 F3        8.3214    -5.9850    -7.4630  F       1  <O>11      -0.1659
  25 C17       7.9434    -3.4293    -5.2281  C.ar    1  <O>11      -0.0288
  26 H1        6.5110     0.6790    -2.4880  H       1  <O>11       0.0423
  27 H2        5.8310    -0.8590    -1.9040  H       1  <O>11       0.0423
  28 H3        8.5650     2.3511     1.0166  H       1  <O>11       0.1921
  29 H4        6.2450    -1.0260    -4.5740  H       1  <O>11       0.1548
  30 H5        9.6679    -1.8963     2.7240  H       1  <O>11       0.0625
  31 H6        9.1858    -4.1762     2.0695  H       1  <O>11       0.0618
  32 H7        7.8818    -4.6144     0.0740  H       1  <O>11       0.0618
  33 H8        7.0699    -2.7729    -1.2706  H       1  <O>11       0.0624
  34 H9        8.9177    -0.3032    -5.9848  H       1  <O>11       0.0636
  35 H10      10.3195    -1.5186    -7.5488  H       1  <O>11       0.0618
  36 H11      10.2191    -3.9459    -7.6484  H       1  <O>11       0.0623
  37 H12       7.3098    -3.9493    -4.6011  H       1  <O>11       0.0642
@<TRIPOS>BOND
     1     1     2    2
     2     2     3    1
     3     3     4    1
     4     4     5   ar
     5     5     6   ar
     6     6     7   ar
     7     7     8    2
     8     7     9   ar
     9     9    10   ar
    10    10    11   ar
    11    11    12   ar
    12    12    13   ar
    13    13    14   ar
    14     4    14   ar
    15     9    14   ar
    16     2    15   am
    17    15    16    1
    18    16    17   ar
    19    17    18   ar
    20    18    19   ar
    21    19    20   ar
    22    20    21    1
    23    21    22    1
    24    21    23    1
    25    21    24    1
    26    20    25   ar
    27    16    25   ar
    28     3    26    1
    29     3    27    1
    30     6    28    1
    31    15    29    1
    32    10    30    1
    33    11    31    1
    34    12    32    1
    35    13    33    1
    36    17    34    1
    37    18    35    1
    38    19    36    1
    39    25    37    1
@<TRIPOS>MOLECULE
mol16_1_7
 37 39 0 0 0
SMALL
USER_CHARGES
****
VDW energy = -85.58
@<TRIPOS>ATOM
   1 O1        8.7381    -1.4068    -2.6744  O.2     1  <O>11      -0.2751
   2 C1        7.6234    -1.0459    -3.0216  C.2     1  <O>11       0.2231
   3 C2        6.7510    -0.2990    -2.0700  C.3     1  <O>11       0.0688
   4 C3        7.4592    -0.1246    -0.7862  C.ar    1  <O>11       0.0780
   5 N1        7.6639     1.1587    -0.3959  N.ar    1  <O>11      -0.1748
   6 N2        8.3958     1.4028     0.7145  N.ar    1  <O>11      -0.2425
   7 C4        8.8996     0.3591     1.4138  C.ar    1  <O>11       0.2725
   8 O2        9.7325     0.6838     2.5014  O.2     1  <O>11      -0.2658
   9 C5        8.6343    -0.9847     1.1122  C.ar    1  <O>11       0.0496
  10 C6        9.1101    -2.0745     1.8751  C.ar    1  <O>11      -0.0487
  11 C7        8.8360    -3.3902     1.4990  C.ar    1  <O>11      -0.0610
  12 C8        8.0890    -3.6418     0.3541  C.ar    1  <O>11      -0.0611
  13 C9        7.6177    -2.5784    -0.4169  C.ar    1  <O>11      -0.0521
  14 C10       7.8783    -1.2386    -0.0470  C.ar    1  <O>11       0.0108
  15 N3        7.1750    -1.3270    -4.2840  N.am    1  <O>11      -0.2852
  16 C11       7.9910    -2.0260    -5.1740  C.ar    1  <O>11       0.0339
  17 C12       8.4384    -3.3206    -4.8591  C.ar    1  <O>11      -0.0405
  18 C13       9.2660    -4.0164    -5.7465  C.ar    1  <O>11      -0.0595
  19 C14       9.6512    -3.4314    -6.9555  C.ar    1  <O>11      -0.0500
  20 C15       9.1999    -2.1452    -7.2724  C.ar    1  <O>11       0.0566
  21 C16       9.6077    -1.5323    -8.5514  C.3     1  <O>11       0.4175
  22 F1       10.7837    -0.8302    -8.3716  F       1  <O>11      -0.1659
  23 F2        8.6196    -0.6715    -8.9859  F       1  <O>11      -0.1659
  24 F3        9.8021    -2.5224    -9.4947  F       1  <O>11      -0.1659
  25 C17       8.3728    -1.4432    -6.3943  C.ar    1  <O>11      -0.0288
  26 H1        6.5107     0.6789    -2.4882  H       1  <O>11       0.0423
  27 H2        5.8312    -0.8592    -1.9037  H       1  <O>11       0.0423
  28 H3        8.5649     2.3521     1.0158  H       1  <O>11       0.1921
  29 H4        6.2450    -1.0260    -4.5740  H       1  <O>11       0.1548
  30 H5        9.6691    -1.8947     2.7238  H       1  <O>11       0.0625
  31 H6        9.1873    -4.1749     2.0699  H       1  <O>11       0.0618
  32 H7        7.8832    -4.6137     0.0747  H       1  <O>11       0.0618
  33 H8        7.0706    -2.7727    -1.2701  H       1  <O>11       0.0624
  34 H9        8.1550    -3.7598    -3.9693  H       1  <O>11       0.0636
  35 H10       9.5933    -4.9654    -5.5074  H       1  <O>11       0.0618
  36 H11      10.2636    -3.9436    -7.6094  H       1  <O>11       0.0623
  37 H12       8.0420    -0.4973    -6.6410  H       1  <O>11       0.0642
@<TRIPOS>BOND
     1     1     2    2
     2     2     3    1
     3     3     4    1
     4     4     5   ar
     5     5     6   ar
     6     6     7   ar
     7     7     8    2
     8     7     9   ar
     9     9    10   ar
    10    10    11   ar
    11    11    12   ar
    12    12    13   ar
    13    13    14   ar
    14     4    14   ar
    15     9    14   ar
    16     2    15   am
    17    15    16    1
    18    16    17   ar
    19    17    18   ar
    20    18    19   ar
    21    19    20   ar
    22    20    21    1
    23    21    22    1
    24    21    23    1
    25    21    24    1
    26    20    25   ar
    27    16    25   ar
    28     3    26    1
    29     3    27    1
    30     6    28    1
    31    15    29    1
    32    10    30    1
    33    11    31    1
    34    12    32    1
    35    13    33    1
    36    17    34    1
    37    18    35    1
    38    19    36    1
    39    25    37    1
@<TRIPOS>MOLECULE
mol16_1_8
 37 39 0 0 0
SMALL
USER_CHARGES
****
VDW energy = -85.42
@<TRIPOS>ATOM
   1 O1        8.7381    -1.4068    -2.6744  O.2     1  <O>11      -0.2751
   2 C1        7.6234    -1.0459    -3.0216  C.2     1  <O>11       0.2231
   3 C2        6.7510    -0.2990    -2.0700  C.3     1  <O>11       0.0688
   4 C3        7.4590    -0.1250    -0.7860  C.ar    1  <O>11       0.0780
   5 N1        7.6639     1.1582    -0.3954  N.ar    1  <O>11      -0.1748
   6 N2        8.3957     1.4019     0.7151  N.ar    1  <O>11      -0.2425
   7 C4        8.8992     0.3580     1.4143  C.ar    1  <O>11       0.2725
   8 O2        9.7320     0.6822     2.5022  O.2     1  <O>11      -0.2658
   9 C5        8.6336    -0.9858     1.1124  C.ar    1  <O>11       0.0496
  10 C6        9.1091    -2.0758     1.8752  C.ar    1  <O>11      -0.0487
  11 C7        8.8347    -3.3914     1.4988  C.ar    1  <O>11      -0.0610
  12 C8        8.0878    -3.6426     0.3537  C.ar    1  <O>11      -0.0611
  13 C9        7.6169    -2.5789    -0.4172  C.ar    1  <O>11      -0.0521
  14 C10       7.8777    -1.2393    -0.0470  C.ar    1  <O>11       0.0108
  15 N3        7.1750    -1.3270    -4.2840  N.am    1  <O>11      -0.2852
  16 C11       7.9910    -2.0260    -5.1740  C.ar    1  <O>11       0.0339
  17 C12       9.2415    -1.5051    -5.5486  C.ar    1  <O>11      -0.0405
  18 C13      10.0541    -2.2007    -6.4499  C.ar    1  <O>11      -0.0595
  19 C14       9.6309    -3.4214    -6.9820  C.ar    1  <O>11      -0.0500
  20 C15       8.3889    -3.9436    -6.6035  C.ar    1  <O>11       0.0566
  21 C16       7.9471    -5.2342    -7.1664  C.3     1  <O>11       0.4175
  22 F1        7.2435    -5.0109    -8.3340  F       1  <O>11      -0.1659
  23 F2        7.1350    -5.8804    -6.2560  F       1  <O>11      -0.1659
  24 F3        9.0504    -6.0200    -7.4369  F       1  <O>11      -0.1659
  25 C17       7.5714    -3.2580    -5.7038  C.ar    1  <O>11      -0.0288
  26 H1        6.5110     0.6790    -2.4880  H       1  <O>11       0.0423
  27 H2        5.8310    -0.8590    -1.9040  H       1  <O>11       0.0423
  28 H3        8.5650     2.3511     1.0166  H       1  <O>11       0.1921
  29 H4        6.2450    -1.0260    -4.5740  H       1  <O>11       0.1548
  30 H5        9.6679    -1.8963     2.7240  H       1  <O>11       0.0625
  31 H6        9.1858    -4.1762     2.0695  H       1  <O>11       0.0618
  32 H7        7.8818    -4.6144     0.0740  H       1  <O>11       0.0618
  33 H8        7.0699    -2.7729    -1.2706  H       1  <O>11       0.0624
  34 H9        9.5616    -0.6056    -5.1570  H       1  <O>11       0.0636
  35 H10      10.9698    -1.8108    -6.7231  H       1  <O>11       0.0618
  36 H11      10.2293    -3.9337    -7.6487  H       1  <O>11       0.0623
  37 H12       6.6597    -3.6553    -5.4280  H       1  <O>11       0.0642
@<TRIPOS>BOND
     1     1     2    2
     2     2     3    1
     3     3     4    1
     4     4     5   ar
     5     5     6   ar
     6     6     7   ar
     7     7     8    2
     8     7     9   ar
     9     9    10   ar
    10    10    11   ar
    11    11    12   ar
    12    12    13   ar
    13    13    14   ar
    14     4    14   ar
    15     9    14   ar
    16     2    15   am
    17    15    16    1
    18    16    17   ar
    19    17    18   ar
    20    18    19   ar
    21    19    20   ar
    22    20    21    1
    23    21    22    1
    24    21    23    1
    25    21    24    1
    26    20    25   ar
    27    16    25   ar
    28     3    26    1
    29     3    27    1
    30     6    28    1
    31    15    29    1
    32    10    30    1
    33    11    31    1
    34    12    32    1
    35    13    33    1
    36    17    34    1
    37    18    35    1
    38    19    36    1
    39    25    37    1
@<TRIPOS>MOLECULE
mol16_1_9
 37 39 0 0 0
SMALL
USER_CHARGES
****
VDW energy = -84.82
@<TRIPOS>ATOM
   1 O1        8.7381    -1.4068    -2.6744  O.2     1  <O>11      -0.2751
   2 C1        7.6234    -1.0459    -3.0216  C.2     1  <O>11       0.2231
   3 C2        6.7510    -0.2990    -2.0700  C.3     1  <O>11       0.0688
   4 C3        7.4590    -0.1250    -0.7860  C.ar    1  <O>11       0.0780
   5 N1        8.2092     1.0001    -0.6747  N.ar    1  <O>11      -0.1748
   6 N2        8.9699     1.1805     0.4285  N.ar    1  <O>11      -0.2425
   7 C4        8.9575     0.2366     1.3986  C.ar    1  <O>11       0.2725
   8 O2        9.8445     0.4380     2.4732  O.2     1  <O>11      -0.2658
   9 C5        8.1258    -0.8927     1.3798  C.ar    1  <O>11       0.0496
  10 C6        8.0677    -1.8485     2.4186  C.ar    1  <O>11      -0.0487
  11 C7        7.2409    -2.9685     2.3203  C.ar    1  <O>11      -0.0610
  12 C8        6.4634    -3.1576     1.1837  C.ar    1  <O>11      -0.0611
  13 C9        6.5139    -2.2287     0.1435  C.ar    1  <O>11      -0.0521
  14 C10       7.3393    -1.0836     0.2288  C.ar    1  <O>11       0.0108
  15 N3        7.1750    -1.3270    -4.2840  N.am    1  <O>11      -0.2852
  16 C11       5.9022    -0.9146    -4.6795  C.ar    1  <O>11       0.0339
  17 C12       5.5666     0.4502    -4.6787  C.ar    1  <O>11      -0.0405
  18 C13       4.2866     0.8622    -5.0642  C.ar    1  <O>11      -0.0595
  19 C14       3.3326    -0.0798    -5.4574  C.ar    1  <O>11      -0.0500
  20 C15       3.6689    -1.4382    -5.4653  C.ar    1  <O>11       0.0566
  21 C16       2.6586    -2.4292    -5.8833  C.3     1  <O>11       0.4175
  22 F1        1.9383    -2.8460    -4.7809  F       1  <O>11      -0.1659
  23 F2        3.2882    -3.5146    -6.4591  F       1  <O>11      -0.1659
  24 F3        1.8025    -1.8539    -6.8021  F       1  <O>11      -0.1659
  25 C17       4.9437    -1.8593    -5.0837  C.ar    1  <O>11      -0.0288
  26 H1        6.5110     0.6790    -2.4880  H       1  <O>11       0.0423
  27 H2        5.8310    -0.8590    -1.9040  H       1  <O>11       0.0423
  28 H3        9.5407     2.0084     0.5251  H       1  <O>11       0.1921
  29 H4        7.7708    -1.8374    -4.9353  H       1  <O>11       0.1548
  30 H5        8.6457    -1.7163     3.2633  H       1  <O>11       0.0625
  31 H6        7.2067    -3.6549     3.0901  H       1  <O>11       0.0618
  32 H7        5.8496    -3.9840     1.1091  H       1  <O>11       0.0618
  33 H8        5.9402    -2.3797    -0.7009  H       1  <O>11       0.0624
  34 H9        6.2675     1.1515    -4.3924  H       1  <O>11       0.0636
  35 H10       4.0460     1.8658    -5.0581  H       1  <O>11       0.0618
  36 H11       2.3875     0.2237    -5.7398  H       1  <O>11       0.0623
  37 H12       5.1820    -2.8633    -5.0983  H       1  <O>11       0.0642
@<TRIPOS>BOND
     1     1     2    2
     2     2     3    1
     3     3     4    1
     4     4     5   ar
     5     5     6   ar
     6     6     7   ar
     7     7     8    2
     8     7     9   ar
     9     9    10   ar
    10    10    11   ar
    11    11    12   ar
    12    12    13   ar
    13    13    14   ar
    14     4    14   ar
    15     9    14   ar
    16     2    15   am
    17    15    16    1
    18    16    17   ar
    19    17    18   ar
    20    18    19   ar
    21    19    20   ar
    22    20    21    1
    23    21    22    1
    24    21    23    1
    25    21    24    1
    26    20    25   ar
    27    16    25   ar
    28     3    26    1
    29     3    27    1
    30     6    28    1
    31    15    29    1
    32    10    30    1
    33    11    31    1
    34    12    32    1
    35    13    33    1
    36    17    34    1
    37    18    35    1
    38    19    36    1
    39    25    37    1
@<TRIPOS>MOLECULE
mol16_1_10
 37 39 0 0 0
SMALL
USER_CHARGES
****
VDW energy = -77.39
@<TRIPOS>ATOM
   1 O1        8.7381    -1.4068    -2.6744  O.2     1  <O>11      -0.2751
   2 C1        7.6234    -1.0459    -3.0216  C.2     1  <O>11       0.2231
   3 C2        6.7510    -0.2990    -2.0700  C.3     1  <O>11       0.0688
   4 C3        7.4590    -0.1250    -0.7860  C.ar    1  <O>11       0.0780
   5 N1        8.7070    -0.6540    -0.7250  N.ar    1  <O>11      -0.1748
   6 N2        9.3790    -0.6280     0.4480  N.ar    1  <O>11      -0.2425
   7 C4        8.7920    -0.0670     1.5310  C.ar    1  <O>11       0.2725
   8 O2        9.5040    -0.1600     2.7420  O.2     1  <O>11      -0.2658
   9 C5        7.5490     0.5820     1.4980  C.ar    1  <O>11       0.0496
  10 C6        6.9610     1.2200     2.6130  C.ar    1  <O>11      -0.0487
  11 C7        5.7040     1.8190     2.5190  C.ar    1  <O>11      -0.0610
  12 C8        5.0100     1.7870     1.3150  C.ar    1  <O>11      -0.0611
  13 C9        5.5710     1.1540     0.2050  C.ar    1  <O>11      -0.0521
  14 C10       6.8470     0.5490     0.2790  C.ar    1  <O>11       0.0108
  15 N3        7.1750    -1.3270    -4.2840  N.am    1  <O>11      -0.2852
  16 C11       7.9910    -2.0260    -5.1740  C.ar    1  <O>11       0.0339
  17 C12       8.8696    -1.3332    -6.0246  C.ar    1  <O>11      -0.0405
  18 C13       9.6790    -2.0339    -6.9249  C.ar    1  <O>11      -0.0595
  19 C14       9.6236    -3.4288    -6.9828  C.ar    1  <O>11      -0.0500
  20 C15       8.7541    -4.1191    -6.1308  C.ar    1  <O>11       0.0566
  21 C16       8.7007    -5.5925    -6.1941  C.3     1  <O>11       0.4175
  22 F1        7.7450    -5.9798    -7.1132  F       1  <O>11      -0.1659
  23 F2        8.3741    -6.0958    -4.9507  F       1  <O>11      -0.1659
  24 F3        9.9340    -6.0816    -6.5785  F       1  <O>11      -0.1659
  25 C17       7.9434    -3.4293    -5.2281  C.ar    1  <O>11      -0.0288
  26 H1        6.5110     0.6790    -2.4880  H       1  <O>11       0.0423
  27 H2        5.8310    -0.8590    -1.9040  H       1  <O>11       0.0423
  28 H3       10.3060    -1.0240     0.5140  H       1  <O>11       0.1921
  29 H4        6.2450    -1.0260    -4.5740  H       1  <O>11       0.1548
  30 H5        7.4690     1.2435     3.5110  H       1  <O>11       0.0625
  31 H6        5.2905     2.2848     3.3418  H       1  <O>11       0.0618
  32 H7        4.0811     2.2308     1.2421  H       1  <O>11       0.0618
  33 H8        5.0466     1.1270    -0.6834  H       1  <O>11       0.0624
  34 H9        8.9177    -0.3032    -5.9848  H       1  <O>11       0.0636
  35 H10      10.3195    -1.5186    -7.5488  H       1  <O>11       0.0618
  36 H11      10.2191    -3.9459    -7.6484  H       1  <O>11       0.0623
  37 H12       7.3098    -3.9493    -4.6011  H       1  <O>11       0.0642
@<TRIPOS>BOND
     1     1     2    2
     2     2     3    1
     3     3     4    1
     4     4     5   ar
     5     5     6   ar
     6     6     7   ar
     7     7     8    2
     8     7     9   ar
     9     9    10   ar
    10    10    11   ar
    11    11    12   ar
    12    12    13   ar
    13    13    14   ar
    14     4    14   ar
    15     9    14   ar
    16     2    15   am
    17    15    16    1
    18    16    17   ar
    19    17    18   ar
    20    18    19   ar
    21    19    20   ar
    22    20    21    1
    23    21    22    1
    24    21    23    1
    25    21    24    1
    26    20    25   ar
    27    16    25   ar
    28     3    26    1
    29     3    27    1
    30     6    28    1
    31    15    29    1
    32    10    30    1
    33    11    31    1
    34    12    32    1
    35    13    33    1
    36    17    34    1
    37    18    35    1
    38    19    36    1
    39    25    37    1
@<TRIPOS>MOLECULE
mol16_1_11
 37 39 0 0 0
SMALL
USER_CHARGES
****
VDW energy = -77.32
@<TRIPOS>ATOM
   1 O1        8.7381    -1.4068    -2.6744  O.2     1  <O>11      -0.2751
   2 C1        7.6234    -1.0459    -3.0216  C.2     1  <O>11       0.2231
   3 C2        6.7510    -0.2990    -2.0700  C.3     1  <O>11       0.0688
   4 C3        7.4590    -0.1250    -0.7860  C.ar    1  <O>11       0.0780
   5 N1        8.7070    -0.6540    -0.7250  N.ar    1  <O>11      -0.1748
   6 N2        9.3790    -0.6280     0.4480  N.ar    1  <O>11      -0.2425
   7 C4        8.7920    -0.0670     1.5310  C.ar    1  <O>11       0.2725
   8 O2        9.5040    -0.1600     2.7420  O.2     1  <O>11      -0.2658
   9 C5        7.5490     0.5820     1.4980  C.ar    1  <O>11       0.0496
  10 C6        6.9610     1.2200     2.6130  C.ar    1  <O>11      -0.0487
  11 C7        5.7040     1.8190     2.5190  C.ar    1  <O>11      -0.0610
  12 C8        5.0100     1.7870     1.3150  C.ar    1  <O>11      -0.0611
  13 C9        5.5710     1.1540     0.2050  C.ar    1  <O>11      -0.0521
  14 C10       6.8470     0.5490     0.2790  C.ar    1  <O>11       0.0108
  15 N3        7.1750    -1.3270    -4.2840  N.am    1  <O>11      -0.2852
  16 C11       7.9910    -2.0260    -5.1740  C.ar    1  <O>11       0.0339
  17 C12       7.9422    -3.4295    -5.2284  C.ar    1  <O>11      -0.0405
  18 C13       8.7689    -4.1304    -6.1127  C.ar    1  <O>11      -0.0595
  19 C14       9.6471    -3.4404    -6.9522  C.ar    1  <O>11      -0.0500
  20 C15       9.6905    -2.0425    -6.9032  C.ar    1  <O>11       0.0566
  21 C16      10.6181    -1.3179    -7.7933  C.3     1  <O>11       0.4175
  22 F1       10.4955     0.0412    -7.5787  F       1  <O>11      -0.1659
  23 F2       10.3139    -1.6054    -9.1089  F       1  <O>11      -0.1659
  24 F3       11.9148    -1.7112    -7.5250  F       1  <O>11      -0.1659
  25 C17       8.8688    -1.3339    -6.0254  C.ar    1  <O>11      -0.0288
  26 H1        6.5110     0.6790    -2.4880  H       1  <O>11       0.0423
  27 H2        5.8310    -0.8590    -1.9040  H       1  <O>11       0.0423
  28 H3       10.3060    -1.0240     0.5140  H       1  <O>11       0.1921
  29 H4        6.2450    -1.0260    -4.5740  H       1  <O>11       0.1548
  30 H5        7.4690     1.2435     3.5110  H       1  <O>11       0.0625
  31 H6        5.2905     2.2848     3.3418  H       1  <O>11       0.0618
  32 H7        4.0811     2.2308     1.2421  H       1  <O>11       0.0618
  33 H8        5.0466     1.1270    -0.6834  H       1  <O>11       0.0624
  34 H9        7.2936    -3.9453    -4.6134  H       1  <O>11       0.0636
  35 H10       8.7301    -5.1612    -6.1451  H       1  <O>11       0.0618
  36 H11      10.2587    -3.9573    -7.6031  H       1  <O>11       0.0623
  37 H12       8.9058    -0.3028    -6.0017  H       1  <O>11       0.0642
@<TRIPOS>BOND
     1     1     2    2
     2     2     3    1
     3     3     4    1
     4     4     5   ar
     5     5     6   ar
     6     6     7   ar
     7     7     8    2
     8     7     9   ar
     9     9    10   ar
    10    10    11   ar
    11    11    12   ar
    12    12    13   ar
    13    13    14   ar
    14     4    14   ar
    15     9    14   ar
    16     2    15   am
    17    15    16    1
    18    16    17   ar
    19    17    18   ar
    20    18    19   ar
    21    19    20   ar
    22    20    21    1
    23    21    22    1
    24    21    23    1
    25    21    24    1
    26    20    25   ar
    27    16    25   ar
    28     3    26    1
    29     3    27    1
    30     6    28    1
    31    15    29    1
    32    10    30    1
    33    11    31    1
    34    12    32    1
    35    13    33    1
    36    17    34    1
    37    18    35    1
    38    19    36    1
    39    25    37    1
@<TRIPOS>MOLECULE
mol16_1_12
 37 39 0 0 0
SMALL
USER_CHARGES
****
VDW energy = -77.29
@<TRIPOS>ATOM
   1 O1        8.7381    -1.4068    -2.6744  O.2     1  <O>11      -0.2751
   2 C1        7.6234    -1.0459    -3.0216  C.2     1  <O>11       0.2231
   3 C2        6.7510    -0.2990    -2.0700  C.3     1  <O>11       0.0688
   4 C3        7.4590    -0.1250    -0.7860  C.ar    1  <O>11       0.0780
   5 N1        8.7070    -0.6540    -0.7250  N.ar    1  <O>11      -0.1748
   6 N2        9.3790    -0.6280     0.4480  N.ar    1  <O>11      -0.2425
   7 C4        8.7920    -0.0670     1.5310  C.ar    1  <O>11       0.2725
   8 O2        9.5040    -0.1600     2.7420  O.2     1  <O>11      -0.2658
   9 C5        7.5490     0.5820     1.4980  C.ar    1  <O>11       0.0496
  10 C6        6.9610     1.2200     2.6130  C.ar    1  <O>11      -0.0487
  11 C7        5.7040     1.8190     2.5190  C.ar    1  <O>11      -0.0610
  12 C8        5.0100     1.7870     1.3150  C.ar    1  <O>11      -0.0611
  13 C9        5.5710     1.1540     0.2050  C.ar    1  <O>11      -0.0521
  14 C10       6.8470     0.5490     0.2790  C.ar    1  <O>11       0.0108
  15 N3        7.1750    -1.3270    -4.2840  N.am    1  <O>11      -0.2852
  16 C11       7.9910    -2.0260    -5.1740  C.ar    1  <O>11       0.0339
  17 C12       8.8696    -1.3332    -6.0246  C.ar    1  <O>11      -0.0405
  18 C13       9.6790    -2.0339    -6.9249  C.ar    1  <O>11      -0.0595
  19 C14       9.6236    -3.4288    -6.9828  C.ar    1  <O>11      -0.0500
  20 C15       8.7541    -4.1191    -6.1308  C.ar    1  <O>11       0.0566
  21 C16       8.7007    -5.5925    -6.1941  C.3     1  <O>11       0.4175
  22 F1        7.7829    -6.0602    -5.2737  F       1  <O>11      -0.1659
  23 F2        9.9470    -6.1119    -5.9061  F       1  <O>11      -0.1659
  24 F3        8.3212    -5.9850    -7.4630  F       1  <O>11      -0.1659
  25 C17       7.9434    -3.4293    -5.2281  C.ar    1  <O>11      -0.0288
  26 H1        6.5110     0.6790    -2.4880  H       1  <O>11       0.0423
  27 H2        5.8310    -0.8590    -1.9040  H       1  <O>11       0.0423
  28 H3       10.3060    -1.0240     0.5140  H       1  <O>11       0.1921
  29 H4        6.2450    -1.0260    -4.5740  H       1  <O>11       0.1548
  30 H5        7.4690     1.2435     3.5110  H       1  <O>11       0.0625
  31 H6        5.2905     2.2848     3.3418  H       1  <O>11       0.0618
  32 H7        4.0811     2.2308     1.2421  H       1  <O>11       0.0618
  33 H8        5.0466     1.1270    -0.6834  H       1  <O>11       0.0624
  34 H9        8.9177    -0.3032    -5.9848  H       1  <O>11       0.0636
  35 H10      10.3195    -1.5186    -7.5488  H       1  <O>11       0.0618
  36 H11      10.2191    -3.9459    -7.6484  H       1  <O>11       0.0623
  37 H12       7.3098    -3.9493    -4.6011  H       1  <O>11       0.0642
@<TRIPOS>BOND
     1     1     2    2
     2     2     3    1
     3     3     4    1
     4     4     5   ar
     5     5     6   ar
     6     6     7   ar
     7     7     8    2
     8     7     9   ar
     9     9    10   ar
    10    10    11   ar
    11    11    12   ar
    12    12    13   ar
    13    13    14   ar
    14     4    14   ar
    15     9    14   ar
    16     2    15   am
    17    15    16    1
    18    16    17   ar
    19    17    18   ar
    20    18    19   ar
    21    19    20   ar
    22    20    21    1
    23    21    22    1
    24    21    23    1
    25    21    24    1
    26    20    25   ar
    27    16    25   ar
    28     3    26    1
    29     3    27    1
    30     6    28    1
    31    15    29    1
    32    10    30    1
    33    11    31    1
    34    12    32    1
    35    13    33    1
    36    17    34    1
    37    18    35    1
    38    19    36    1
    39    25    37    1
@<TRIPOS>MOLECULE
mol16_1_13
 37 39 0 0 0
SMALL
USER_CHARGES
****
VDW energy = -75.69
@<TRIPOS>ATOM
   1 O1        8.7381    -1.4068    -2.6744  O.2     1  <O>11      -0.2751
   2 C1        7.6234    -1.0459    -3.0216  C.2     1  <O>11       0.2231
   3 C2        6.7510    -0.2990    -2.0700  C.3     1  <O>11       0.0688
   4 C3        7.4590    -0.1250    -0.7860  C.ar    1  <O>11       0.0780
   5 N1        8.7070    -0.6540    -0.7250  N.ar    1  <O>11      -0.1748
   6 N2        9.3790    -0.6280     0.4480  N.ar    1  <O>11      -0.2425
   7 C4        8.7920    -0.0670     1.5310  C.ar    1  <O>11       0.2725
   8 O2        9.5040    -0.1600     2.7420  O.2     1  <O>11      -0.2658
   9 C5        7.5490     0.5820     1.4980  C.ar    1  <O>11       0.0496
  10 C6        6.9610     1.2200     2.6130  C.ar    1  <O>11      -0.0487
  11 C7        5.7040     1.8190     2.5190  C.ar    1  <O>11      -0.0610
  12 C8        5.0100     1.7870     1.3150  C.ar    1  <O>11      -0.0611
  13 C9        5.5710     1.1540     0.2050  C.ar    1  <O>11      -0.0521
  14 C10       6.8470     0.5490     0.2790  C.ar    1  <O>11       0.0108
  15 N3        7.1750    -1.3270    -4.2840  N.am    1  <O>11      -0.2852
  16 C11       5.9022    -0.9146    -4.6795  C.ar    1  <O>11       0.0339
  17 C12       4.7917    -1.7532    -4.4826  C.ar    1  <O>11      -0.0405
  18 C13       3.5176    -1.3441    -4.8900  C.ar    1  <O>11      -0.0595
  19 C14       3.3381    -0.0962    -5.4922  C.ar    1  <O>11      -0.0500
  20 C15       4.4426     0.7419    -5.6818  C.ar    1  <O>11       0.0566
  21 C16       4.2477     2.0599    -6.3164  C.3     1  <O>11       0.4175
  22 F1        4.3908     1.9380    -7.6849  F       1  <O>11      -0.1659
  23 F2        5.1875     2.9480    -5.8326  F       1  <O>11      -0.1659
  24 F3        2.9810     2.5277    -6.0258  F       1  <O>11      -0.1659
  25 C17       5.7177     0.3435    -5.2776  C.ar    1  <O>11      -0.0288
  26 H1        6.5110     0.6790    -2.4880  H       1  <O>11       0.0423
  27 H2        5.8310    -0.8590    -1.9040  H       1  <O>11       0.0423
  28 H3       10.3060    -1.0240     0.5140  H       1  <O>11       0.1921
  29 H4        7.7708    -1.8374    -4.9353  H       1  <O>11       0.1548
  30 H5        7.4690     1.2435     3.5110  H       1  <O>11       0.0625
  31 H6        5.2905     2.2848     3.3418  H       1  <O>11       0.0618
  32 H7        4.0811     2.2308     1.2421  H       1  <O>11       0.0618
  33 H8        5.0466     1.1270    -0.6834  H       1  <O>11       0.0624
  34 H9        4.9168    -2.6749    -4.0355  H       1  <O>11       0.0636
  35 H10       2.7071    -1.9663    -4.7452  H       1  <O>11       0.0618
  36 H11       2.3985     0.2050    -5.7949  H       1  <O>11       0.0623
  37 H12       6.5241     0.9721    -5.4179  H       1  <O>11       0.0642
@<TRIPOS>BOND
     1     1     2    2
     2     2     3    1
     3     3     4    1
     4     4     5   ar
     5     5     6   ar
     6     6     7   ar
     7     7     8    2
     8     7     9   ar
     9     9    10   ar
    10    10    11   ar
    11    11    12   ar
    12    12    13   ar
    13    13    14   ar
    14     4    14   ar
    15     9    14   ar
    16     2    15   am
    17    15    16    1
    18    16    17   ar
    19    17    18   ar
    20    18    19   ar
    21    19    20   ar
    22    20    21    1
    23    21    22    1
    24    21    23    1
    25    21    24    1
    26    20    25   ar
    27    16    25   ar
    28     3    26    1
    29     3    27    1
    30     6    28    1
    31    15    29    1
    32    10    30    1
    33    11    31    1
    34    12    32    1
    35    13    33    1
    36    17    34    1
    37    18    35    1
    38    19    36    1
    39    25    37    1
@<TRIPOS>MOLECULE
mol16_1_14
 37 39 0 0 0
SMALL
USER_CHARGES
****
VDW energy = -75.59
@<TRIPOS>ATOM
   1 O1        8.7381    -1.4068    -2.6744  O.2     1  <O>11      -0.2751
   2 C1        7.6234    -1.0459    -3.0216  C.2     1  <O>11       0.2231
   3 C2        6.7510    -0.2990    -2.0700  C.3     1  <O>11       0.0688
   4 C3        7.4590    -0.1250    -0.7860  C.ar    1  <O>11       0.0780
   5 N1        8.7067    -0.6546    -0.7248  N.ar    1  <O>11      -0.1748
   6 N2        9.3787    -0.6286     0.4483  N.ar    1  <O>11      -0.2425
   7 C4        8.7919    -0.0670     1.5311  C.ar    1  <O>11       0.2725
   8 O2        9.5038    -0.1600     2.7421  O.2     1  <O>11      -0.2658
   9 C5        7.5492     0.5825     1.4978  C.ar    1  <O>11       0.0496
  10 C6        6.9614     1.2211     2.6126  C.ar    1  <O>11      -0.0487
  11 C7        5.7047     1.8207     2.5184  C.ar    1  <O>11      -0.0610
  12 C8        5.0108     1.7887     1.3144  C.ar    1  <O>11      -0.0611
  13 C9        5.5715     1.1551     0.2046  C.ar    1  <O>11      -0.0521
  14 C10       6.8472     0.5496     0.2788  C.ar    1  <O>11       0.0108
  15 N3        7.1750    -1.3270    -4.2840  N.am    1  <O>11      -0.2852
  16 C11       7.9910    -2.0260    -5.1740  C.ar    1  <O>11       0.0339
  17 C12       8.4384    -3.3206    -4.8591  C.ar    1  <O>11      -0.0405
  18 C13       9.2660    -4.0164    -5.7465  C.ar    1  <O>11      -0.0595
  19 C14       9.6512    -3.4314    -6.9555  C.ar    1  <O>11      -0.0500
  20 C15       9.1999    -2.1452    -7.2724  C.ar    1  <O>11       0.0566
  21 C16       9.6077    -1.5323    -8.5514  C.3     1  <O>11       0.4175
  22 F1       10.7837    -0.8302    -8.3716  F       1  <O>11      -0.1659
  23 F2        8.6196    -0.6715    -8.9859  F       1  <O>11      -0.1659
  24 F3        9.8021    -2.5224    -9.4947  F       1  <O>11      -0.1659
  25 C17       8.3728    -1.4432    -6.3943  C.ar    1  <O>11      -0.0288
  26 H1        6.5110     0.6790    -2.4880  H       1  <O>11       0.0423
  27 H2        5.8310    -0.8590    -1.9040  H       1  <O>11       0.0423
  28 H3       10.3055    -1.0250     0.5144  H       1  <O>11       0.1921
  29 H4        6.2450    -1.0260    -4.5740  H       1  <O>11       0.1548
  30 H5        7.4694     1.2446     3.5106  H       1  <O>11       0.0625
  31 H6        5.2914     2.2869     3.3410  H       1  <O>11       0.0618
  32 H7        4.0821     2.2329     1.2413  H       1  <O>11       0.0618
  33 H8        5.0472     1.1282    -0.6839  H       1  <O>11       0.0624
  34 H9        8.1550    -3.7598    -3.9693  H       1  <O>11       0.0636
  35 H10       9.5933    -4.9654    -5.5074  H       1  <O>11       0.0618
  36 H11      10.2636    -3.9436    -7.6094  H       1  <O>11       0.0623
  37 H12       8.0420    -0.4973    -6.6410  H       1  <O>11       0.0642
@<TRIPOS>BOND
     1     1     2    2
     2     2     3    1
     3     3     4    1
     4     4     5   ar
     5     5     6   ar
     6     6     7   ar
     7     7     8    2
     8     7     9   ar
     9     9    10   ar
    10    10    11   ar
    11    11    12   ar
    12    12    13   ar
    13    13    14   ar
    14     4    14   ar
    15     9    14   ar
    16     2    15   am
    17    15    16    1
    18    16    17   ar
    19    17    18   ar
    20    18    19   ar
    21    19    20   ar
    22    20    21    1
    23    21    22    1
    24    21    23    1
    25    21    24    1
    26    20    25   ar
    27    16    25   ar
    28     3    26    1
    29     3    27    1
    30     6    28    1
    31    15    29    1
    32    10    30    1
    33    11    31    1
    34    12    32    1
    35    13    33    1
    36    17    34    1
    37    18    35    1
    38    19    36    1
    39    25    37    1
@<TRIPOS>MOLECULE
mol16_1_15
 37 39 0 0 0
SMALL
USER_CHARGES
****
VDW energy = -75.54
@<TRIPOS>ATOM
   1 O1        8.7381    -1.4068    -2.6744  O.2     1  <O>11      -0.2751
   2 C1        7.6234    -1.0459    -3.0216  C.2     1  <O>11       0.2231
   3 C2        6.7510    -0.2990    -2.0700  C.3     1  <O>11       0.0688
   4 C3        7.4590    -0.1250    -0.7860  C.ar    1  <O>11       0.0780
   5 N1        8.7070    -0.6540    -0.7250  N.ar    1  <O>11      -0.1748
   6 N2        9.3790    -0.6280     0.4480  N.ar    1  <O>11      -0.2425
   7 C4        8.7920    -0.0670     1.5310  C.ar    1  <O>11       0.2725
   8 O2        9.5040    -0.1600     2.7420  O.2     1  <O>11      -0.2658
   9 C5        7.5490     0.5820     1.4980  C.ar    1  <O>11       0.0496
  10 C6        6.9610     1.2200     2.6130  C.ar    1  <O>11      -0.0487
  11 C7        5.7040     1.8190     2.5190  C.ar    1  <O>11      -0.0610
  12 C8        5.0100     1.7870     1.3150  C.ar    1  <O>11      -0.0611
  13 C9        5.5710     1.1540     0.2050  C.ar    1  <O>11      -0.0521
  14 C10       6.8470     0.5490     0.2790  C.ar    1  <O>11       0.0108
  15 N3        7.1750    -1.3270    -4.2840  N.am    1  <O>11      -0.2852
  16 C11       7.9910    -2.0260    -5.1740  C.ar    1  <O>11       0.0339
  17 C12       9.2415    -1.5051    -5.5486  C.ar    1  <O>11      -0.0405
  18 C13      10.0541    -2.2007    -6.4499  C.ar    1  <O>11      -0.0595
  19 C14       9.6309    -3.4214    -6.9820  C.ar    1  <O>11      -0.0500
  20 C15       8.3889    -3.9436    -6.6035  C.ar    1  <O>11       0.0566
  21 C16       7.9471    -5.2342    -7.1664  C.3     1  <O>11       0.4175
  22 F1        7.2435    -5.0109    -8.3340  F       1  <O>11      -0.1659
  23 F2        7.1350    -5.8804    -6.2560  F       1  <O>11      -0.1659
  24 F3        9.0504    -6.0200    -7.4369  F       1  <O>11      -0.1659
  25 C17       7.5714    -3.2580    -5.7038  C.ar    1  <O>11      -0.0288
  26 H1        6.5110     0.6790    -2.4880  H       1  <O>11       0.0423
  27 H2        5.8310    -0.8590    -1.9040  H       1  <O>11       0.0423
  28 H3       10.3060    -1.0240     0.5140  H       1  <O>11       0.1921
  29 H4        6.2450    -1.0260    -4.5740  H       1  <O>11       0.1548
  30 H5        7.4690     1.2435     3.5110  H       1  <O>11       0.0625
  31 H6        5.2905     2.2848     3.3418  H       1  <O>11       0.0618
  32 H7        4.0811     2.2308     1.2421  H       1  <O>11       0.0618
  33 H8        5.0466     1.1270    -0.6834  H       1  <O>11       0.0624
  34 H9        9.5616    -0.6056    -5.1570  H       1  <O>11       0.0636
  35 H10      10.9698    -1.8108    -6.7231  H       1  <O>11       0.0618
  36 H11      10.2293    -3.9337    -7.6487  H       1  <O>11       0.0623
  37 H12       6.6597    -3.6553    -5.4280  H       1  <O>11       0.0642
@<TRIPOS>BOND
     1     1     2    2
     2     2     3    1
     3     3     4    1
     4     4     5   ar
     5     5     6   ar
     6     6     7   ar
     7     7     8    2
     8     7     9   ar
     9     9    10   ar
    10    10    11   ar
    11    11    12   ar
    12    12    13   ar
    13    13    14   ar
    14     4    14   ar
    15     9    14   ar
    16     2    15   am
    17    15    16    1
    18    16    17   ar
    19    17    18   ar
    20    18    19   ar
    21    19    20   ar
    22    20    21    1
    23    21    22    1
    24    21    23    1
    25    21    24    1
    26    20    25   ar
    27    16    25   ar
    28     3    26    1
    29     3    27    1
    30     6    28    1
    31    15    29    1
    32    10    30    1
    33    11    31    1
    34    12    32    1
    35    13    33    1
    36    17    34    1
    37    18    35    1
    38    19    36    1
    39    25    37    1
@<TRIPOS>MOLECULE
mol16_1_16
 37 39 0 0 0
SMALL
USER_CHARGES
****
VDW energy = -75.51
@<TRIPOS>ATOM
   1 O1        8.7381    -1.4068    -2.6744  O.2     1  <O>11      -0.2751
   2 C1        7.6234    -1.0459    -3.0216  C.2     1  <O>11       0.2231
   3 C2        6.7510    -0.2990    -2.0700  C.3     1  <O>11       0.0688
   4 C3        7.4590    -0.1250    -0.7860  C.ar    1  <O>11       0.0780
   5 N1        8.7070    -0.6540    -0.7250  N.ar    1  <O>11      -0.1748
   6 N2        9.3790    -0.6280     0.4480  N.ar    1  <O>11      -0.2425
   7 C4        8.7920    -0.0670     1.5310  C.ar    1  <O>11       0.2725
   8 O2        9.5040    -0.1600     2.7420  O.2     1  <O>11      -0.2658
   9 C5        7.5490     0.5820     1.4980  C.ar    1  <O>11       0.0496
  10 C6        6.9610     1.2200     2.6130  C.ar    1  <O>11      -0.0487
  11 C7        5.7040     1.8190     2.5190  C.ar    1  <O>11      -0.0610
  12 C8        5.0100     1.7870     1.3150  C.ar    1  <O>11      -0.0611
  13 C9        5.5710     1.1540     0.2050  C.ar    1  <O>11      -0.0521
  14 C10       6.8470     0.5490     0.2790  C.ar    1  <O>11       0.0108
  15 N3        7.1750    -1.3270    -4.2840  N.am    1  <O>11      -0.2852
  16 C11       5.9022    -0.9146    -4.6795  C.ar    1  <O>11       0.0339
  17 C12       4.7917    -1.7532    -4.4826  C.ar    1  <O>11      -0.0405
  18 C13       3.5176    -1.3441    -4.8900  C.ar    1  <O>11      -0.0595
  19 C14       3.3381    -0.0962    -5.4922  C.ar    1  <O>11      -0.0500
  20 C15       4.4426     0.7419    -5.6818  C.ar    1  <O>11       0.0566
  21 C16       4.2477     2.0599    -6.3164  C.3     1  <O>11       0.4175
  22 F1        3.3730     2.8122    -5.5569  F       1  <O>11      -0.1659
  23 F2        3.7273     1.8889    -7.5836  F       1  <O>11      -0.1659
  24 F3        5.4618     2.7131    -6.4025  F       1  <O>11      -0.1659
  25 C17       5.7177     0.3435    -5.2776  C.ar    1  <O>11      -0.0288
  26 H1        6.5110     0.6790    -2.4880  H       1  <O>11       0.0423
  27 H2        5.8310    -0.8590    -1.9040  H       1  <O>11       0.0423
  28 H3       10.3060    -1.0240     0.5140  H       1  <O>11       0.1921
  29 H4        7.7708    -1.8374    -4.9353  H       1  <O>11       0.1548
  30 H5        7.4690     1.2435     3.5110  H       1  <O>11       0.0625
  31 H6        5.2905     2.2848     3.3418  H       1  <O>11       0.0618
  32 H7        4.0811     2.2308     1.2421  H       1  <O>11       0.0618
  33 H8        5.0466     1.1270    -0.6834  H       1  <O>11       0.0624
  34 H9        4.9168    -2.6749    -4.0355  H       1  <O>11       0.0636
  35 H10       2.7071    -1.9663    -4.7452  H       1  <O>11       0.0618
  36 H11       2.3985     0.2050    -5.7949  H       1  <O>11       0.0623
  37 H12       6.5241     0.9721    -5.4179  H       1  <O>11       0.0642
@<TRIPOS>BOND
     1     1     2    2
     2     2     3    1
     3     3     4    1
     4     4     5   ar
     5     5     6   ar
     6     6     7   ar
     7     7     8    2
     8     7     9   ar
     9     9    10   ar
    10    10    11   ar
    11    11    12   ar
    12    12    13   ar
    13    13    14   ar
    14     4    14   ar
    15     9    14   ar
    16     2    15   am
    17    15    16    1
    18    16    17   ar
    19    17    18   ar
    20    18    19   ar
    21    19    20   ar
    22    20    21    1
    23    21    22    1
    24    21    23    1
    25    21    24    1
    26    20    25   ar
    27    16    25   ar
    28     3    26    1
    29     3    27    1
    30     6    28    1
    31    15    29    1
    32    10    30    1
    33    11    31    1
    34    12    32    1
    35    13    33    1
    36    17    34    1
    37    18    35    1
    38    19    36    1
    39    25    37    1
@<TRIPOS>MOLECULE
mol16_1_17
 37 39 0 0 0
SMALL
USER_CHARGES
****
VDW energy = -75.51
@<TRIPOS>ATOM
   1 O1        8.7381    -1.4068    -2.6744  O.2     1  <O>11      -0.2751
   2 C1        7.6234    -1.0459    -3.0216  C.2     1  <O>11       0.2231
   3 C2        6.7510    -0.2990    -2.0700  C.3     1  <O>11       0.0688
   4 C3        7.4590    -0.1250    -0.7860  C.ar    1  <O>11       0.0780
   5 N1        8.7070    -0.6540    -0.7250  N.ar    1  <O>11      -0.1748
   6 N2        9.3790    -0.6280     0.4480  N.ar    1  <O>11      -0.2425
   7 C4        8.7920    -0.0670     1.5310  C.ar    1  <O>11       0.2725
   8 O2        9.5040    -0.1600     2.7420  O.2     1  <O>11      -0.2658
   9 C5        7.5490     0.5820     1.4980  C.ar    1  <O>11       0.0496
  10 C6        6.9610     1.2200     2.6130  C.ar    1  <O>11      -0.0487
  11 C7        5.7040     1.8190     2.5190  C.ar    1  <O>11      -0.0610
  12 C8        5.0100     1.7870     1.3150  C.ar    1  <O>11      -0.0611
  13 C9        5.5710     1.1540     0.2050  C.ar    1  <O>11      -0.0521
  14 C10       6.8470     0.5490     0.2790  C.ar    1  <O>11       0.0108
  15 N3        7.1750    -1.3270    -4.2840  N.am    1  <O>11      -0.2852
  16 C11       5.9022    -0.9146    -4.6795  C.ar    1  <O>11       0.0339
  17 C12       5.7184     0.3434    -5.2787  C.ar    1  <O>11      -0.0405
  18 C13       4.4404     0.7612    -5.6644  C.ar    1  <O>11      -0.0595
  19 C14       3.3366    -0.0709    -5.4610  C.ar    1  <O>11      -0.0500
  20 C15       3.5205    -1.3265    -4.8711  C.ar    1  <O>11       0.0566
  21 C16       2.3519    -2.2026    -4.6602  C.3     1  <O>11       0.4175
  22 F1        1.7578    -2.4790    -5.8762  F       1  <O>11      -0.1659
  23 F2        1.4428    -1.5685    -3.8372  F       1  <O>11      -0.1659
  24 F3        2.7618    -3.3820    -4.0694  F       1  <O>11      -0.1659
  25 C17       4.7917    -1.7531    -4.4839  C.ar    1  <O>11      -0.0288
  26 H1        6.5110     0.6790    -2.4880  H       1  <O>11       0.0423
  27 H2        5.8310    -0.8590    -1.9040  H       1  <O>11       0.0423
  28 H3       10.3060    -1.0240     0.5140  H       1  <O>11       0.1921
  29 H4        7.7708    -1.8374    -4.9353  H       1  <O>11       0.1548
  30 H5        7.4690     1.2435     3.5110  H       1  <O>11       0.0625
  31 H6        5.2905     2.2848     3.3418  H       1  <O>11       0.0618
  32 H7        4.0811     2.2308     1.2421  H       1  <O>11       0.0618
  33 H8        5.0466     1.1270    -0.6834  H       1  <O>11       0.0624
  34 H9        6.5299     0.9616    -5.4347  H       1  <O>11       0.0636
  35 H10       4.3123     1.6875    -6.1009  H       1  <O>11       0.0618
  36 H11       2.3932     0.2380    -5.7435  H       1  <O>11       0.0623
  37 H12       4.9160    -2.6832    -4.0544  H       1  <O>11       0.0642
@<TRIPOS>BOND
     1     1     2    2
     2     2     3    1
     3     3     4    1
     4     4     5   ar
     5     5     6   ar
     6     6     7   ar
     7     7     8    2
     8     7     9   ar
     9     9    10   ar
    10    10    11   ar
    11    11    12   ar
    12    12    13   ar
    13    13    14   ar
    14     4    14   ar
    15     9    14   ar
    16     2    15   am
    17    15    16    1
    18    16    17   ar
    19    17    18   ar
    20    18    19   ar
    21    19    20   ar
    22    20    21    1
    23    21    22    1
    24    21    23    1
    25    21    24    1
    26    20    25   ar
    27    16    25   ar
    28     3    26    1
    29     3    27    1
    30     6    28    1
    31    15    29    1
    32    10    30    1
    33    11    31    1
    34    12    32    1
    35    13    33    1
    36    17    34    1
    37    18    35    1
    38    19    36    1
    39    25    37    1
@<TRIPOS>MOLECULE
mol16_1_18
 37 39 0 0 0
SMALL
USER_CHARGES
****
VDW energy = -71.91
@<TRIPOS>ATOM
   1 O1        8.7381    -1.4068    -2.6744  O.2     1  <O>11      -0.2751
   2 C1        7.6234    -1.0459    -3.0216  C.2     1  <O>11       0.2231
   3 C2        6.7510    -0.2990    -2.0700  C.3     1  <O>11       0.0688
   4 C3        5.3571    -0.7653    -2.2104  C.ar    1  <O>11       0.0780
   5 N1        5.1512    -1.7371    -3.1348  N.ar    1  <O>11      -0.1748
   6 N2        3.8884    -2.1431    -3.3964  N.ar    1  <O>11      -0.2425
   7 C4        2.8609    -1.5748    -2.7230  C.ar    1  <O>11       0.2725
   8 O2        1.5674    -1.9719    -3.1119  O.2     1  <O>11      -0.2658
   9 C5        3.0253    -0.6414    -1.6890  C.ar    1  <O>11       0.0496
  10 C6        1.9581    -0.0912    -0.9444  C.ar    1  <O>11      -0.0487
  11 C7        2.1901     0.8598     0.0504  C.ar    1  <O>11      -0.0610
  12 C8        3.4876     1.2823     0.3154  C.ar    1  <O>11      -0.0611
  13 C9        4.5537     0.7563    -0.4155  C.ar    1  <O>11      -0.0521
  14 C10       4.3389    -0.2141    -1.4214  C.ar    1  <O>11       0.0108
  15 N3        7.1750    -1.3270    -4.2840  N.am    1  <O>11      -0.2852
  16 C11       7.9910    -2.0260    -5.1740  C.ar    1  <O>11       0.0339
  17 C12       9.2415    -1.5051    -5.5486  C.ar    1  <O>11      -0.0405
  18 C13      10.0541    -2.2007    -6.4499  C.ar    1  <O>11      -0.0595
  19 C14       9.6309    -3.4214    -6.9820  C.ar    1  <O>11      -0.0500
  20 C15       8.3889    -3.9436    -6.6035  C.ar    1  <O>11       0.0566
  21 C16       7.9471    -5.2342    -7.1664  C.3     1  <O>11       0.4175
  22 F1        8.3748    -6.2634    -6.3504  F       1  <O>11      -0.1659
  23 F2        8.4832    -5.3943    -8.4285  F       1  <O>11      -0.1659
  24 F3        6.5683    -5.2531    -7.2470  F       1  <O>11      -0.1659
  25 C17       7.5714    -3.2580    -5.7038  C.ar    1  <O>11      -0.0288
  26 H1        7.0920    -0.4752    -1.0495  H       1  <O>11       0.0423
  27 H2        6.8009     0.7669    -2.2910  H       1  <O>11       0.0423
  28 H3        3.7155    -2.8600    -4.0869  H       1  <O>11       0.1921
  29 H4        6.2450    -1.0260    -4.5740  H       1  <O>11       0.1548
  30 H5        0.9920    -0.3972    -1.1392  H       1  <O>11       0.0625
  31 H6        1.3998     1.2486     0.5882  H       1  <O>11       0.0618
  32 H7        3.6622     1.9840     1.0518  H       1  <O>11       0.0618
  33 H8        5.5135     1.0805    -0.2189  H       1  <O>11       0.0624
  34 H9        9.5616    -0.6056    -5.1570  H       1  <O>11       0.0636
  35 H10      10.9698    -1.8108    -6.7231  H       1  <O>11       0.0618
  36 H11      10.2293    -3.9337    -7.6487  H       1  <O>11       0.0623
  37 H12       6.6597    -3.6553    -5.4280  H       1  <O>11       0.0642
@<TRIPOS>BOND
     1     1     2    2
     2     2     3    1
     3     3     4    1
     4     4     5   ar
     5     5     6   ar
     6     6     7   ar
     7     7     8    2
     8     7     9   ar
     9     9    10   ar
    10    10    11   ar
    11    11    12   ar
    12    12    13   ar
    13    13    14   ar
    14     4    14   ar
    15     9    14   ar
    16     2    15   am
    17    15    16    1
    18    16    17   ar
    19    17    18   ar
    20    18    19   ar
    21    19    20   ar
    22    20    21    1
    23    21    22    1
    24    21    23    1
    25    21    24    1
    26    20    25   ar
    27    16    25   ar
    28     3    26    1
    29     3    27    1
    30     6    28    1
    31    15    29    1
    32    10    30    1
    33    11    31    1
    34    12    32    1
    35    13    33    1
    36    17    34    1
    37    18    35    1
    38    19    36    1
    39    25    37    1
@<TRIPOS>MOLECULE
mol16_1_19
 37 39 0 0 0
SMALL
USER_CHARGES
****
VDW energy = -71.86
@<TRIPOS>ATOM
   1 O1        8.7381    -1.4068    -2.6744  O.2     1  <O>11      -0.2751
   2 C1        7.6234    -1.0459    -3.0216  C.2     1  <O>11       0.2231
   3 C2        6.7510    -0.2990    -2.0700  C.3     1  <O>11       0.0688
   4 C3        5.3571    -0.7653    -2.2104  C.ar    1  <O>11       0.0780
   5 N1        5.1512    -1.7371    -3.1348  N.ar    1  <O>11      -0.1748
   6 N2        3.8884    -2.1431    -3.3964  N.ar    1  <O>11      -0.2425
   7 C4        2.8609    -1.5748    -2.7230  C.ar    1  <O>11       0.2725
   8 O2        1.5674    -1.9719    -3.1119  O.2     1  <O>11      -0.2658
   9 C5        3.0253    -0.6414    -1.6890  C.ar    1  <O>11       0.0496
  10 C6        1.9581    -0.0912    -0.9444  C.ar    1  <O>11      -0.0487
  11 C7        2.1901     0.8598     0.0504  C.ar    1  <O>11      -0.0610
  12 C8        3.4876     1.2823     0.3154  C.ar    1  <O>11      -0.0611
  13 C9        4.5537     0.7563    -0.4155  C.ar    1  <O>11      -0.0521
  14 C10       4.3389    -0.2141    -1.4214  C.ar    1  <O>11       0.0108
  15 N3        7.1750    -1.3270    -4.2840  N.am    1  <O>11      -0.2852
  16 C11       7.9910    -2.0260    -5.1740  C.ar    1  <O>11       0.0339
  17 C12       9.2415    -1.5051    -5.5486  C.ar    1  <O>11      -0.0405
  18 C13      10.0541    -2.2007    -6.4499  C.ar    1  <O>11      -0.0595
  19 C14       9.6309    -3.4214    -6.9820  C.ar    1  <O>11      -0.0500
  20 C15       8.3889    -3.9436    -6.6035  C.ar    1  <O>11       0.0566
  21 C16       7.9471    -5.2342    -7.1664  C.3     1  <O>11       0.4175
  22 F1        7.2435    -5.0109    -8.3340  F       1  <O>11      -0.1659
  23 F2        7.1350    -5.8804    -6.2560  F       1  <O>11      -0.1659
  24 F3        9.0504    -6.0200    -7.4369  F       1  <O>11      -0.1659
  25 C17       7.5714    -3.2580    -5.7038  C.ar    1  <O>11      -0.0288
  26 H1        7.0920    -0.4752    -1.0495  H       1  <O>11       0.0423
  27 H2        6.8009     0.7669    -2.2910  H       1  <O>11       0.0423
  28 H3        3.7155    -2.8600    -4.0869  H       1  <O>11       0.1921
  29 H4        6.2450    -1.0260    -4.5740  H       1  <O>11       0.1548
  30 H5        0.9920    -0.3972    -1.1392  H       1  <O>11       0.0625
  31 H6        1.3998     1.2486     0.5882  H       1  <O>11       0.0618
  32 H7        3.6622     1.9840     1.0518  H       1  <O>11       0.0618
  33 H8        5.5135     1.0805    -0.2189  H       1  <O>11       0.0624
  34 H9        9.5616    -0.6056    -5.1570  H       1  <O>11       0.0636
  35 H10      10.9698    -1.8108    -6.7231  H       1  <O>11       0.0618
  36 H11      10.2293    -3.9337    -7.6487  H       1  <O>11       0.0623
  37 H12       6.6597    -3.6553    -5.4280  H       1  <O>11       0.0642
@<TRIPOS>BOND
     1     1     2    2
     2     2     3    1
     3     3     4    1
     4     4     5   ar
     5     5     6   ar
     6     6     7   ar
     7     7     8    2
     8     7     9   ar
     9     9    10   ar
    10    10    11   ar
    11    11    12   ar
    12    12    13   ar
    13    13    14   ar
    14     4    14   ar
    15     9    14   ar
    16     2    15   am
    17    15    16    1
    18    16    17   ar
    19    17    18   ar
    20    18    19   ar
    21    19    20   ar
    22    20    21    1
    23    21    22    1
    24    21    23    1
    25    21    24    1
    26    20    25   ar
    27    16    25   ar
    28     3    26    1
    29     3    27    1
    30     6    28    1
    31    15    29    1
    32    10    30    1
    33    11    31    1
    34    12    32    1
    35    13    33    1
    36    17    34    1
    37    18    35    1
    38    19    36    1
    39    25    37    1
@<TRIPOS>MOLECULE
mol16_1_20
 37 39 0 0 0
SMALL
USER_CHARGES
****
VDW energy = -71.80
@<TRIPOS>ATOM
   1 O1        8.7381    -1.4068    -2.6744  O.2     1  <O>11      -0.2751
   2 C1        7.6234    -1.0459    -3.0216  C.2     1  <O>11       0.2231
   3 C2        6.7510    -0.2990    -2.0700  C.3     1  <O>11       0.0688
   4 C3        5.3571    -0.7653    -2.2104  C.ar    1  <O>11       0.0780
   5 N1        5.1512    -1.7371    -3.1348  N.ar    1  <O>11      -0.1748
   6 N2        3.8884    -2.1431    -3.3964  N.ar    1  <O>11      -0.2425
   7 C4        2.8609    -1.5748    -2.7230  C.ar    1  <O>11       0.2725
   8 O2        1.5674    -1.9719    -3.1119  O.2     1  <O>11      -0.2658
   9 C5        3.0253    -0.6414    -1.6890  C.ar    1  <O>11       0.0496
  10 C6        1.9581    -0.0912    -0.9444  C.ar    1  <O>11      -0.0487
  11 C7        2.1901     0.8598     0.0504  C.ar    1  <O>11      -0.0610
  12 C8        3.4876     1.2823     0.3154  C.ar    1  <O>11      -0.0611
  13 C9        4.5537     0.7563    -0.4155  C.ar    1  <O>11      -0.0521
  14 C10       4.3389    -0.2141    -1.4214  C.ar    1  <O>11       0.0108
  15 N3        7.1750    -1.3270    -4.2840  N.am    1  <O>11      -0.2852
  16 C11       7.9910    -2.0260    -5.1740  C.ar    1  <O>11       0.0339
  17 C12       9.2415    -1.5051    -5.5486  C.ar    1  <O>11      -0.0405
  18 C13      10.0541    -2.2007    -6.4499  C.ar    1  <O>11      -0.0595
  19 C14       9.6309    -3.4214    -6.9820  C.ar    1  <O>11      -0.0500
  20 C15       8.3889    -3.9436    -6.6035  C.ar    1  <O>11       0.0566
  21 C16       7.9471    -5.2342    -7.1664  C.3     1  <O>11       0.4175
  22 F1        6.7029    -5.5560    -6.6600  F       1  <O>11      -0.1659
  23 F2        8.8518    -6.2198    -6.8255  F       1  <O>11      -0.1659
  24 F3        7.8726    -5.1347    -8.5421  F       1  <O>11      -0.1659
  25 C17       7.5714    -3.2580    -5.7038  C.ar    1  <O>11      -0.0288
  26 H1        7.0920    -0.4752    -1.0495  H       1  <O>11       0.0423
  27 H2        6.8009     0.7669    -2.2910  H       1  <O>11       0.0423
  28 H3        3.7155    -2.8600    -4.0869  H       1  <O>11       0.1921
  29 H4        6.2450    -1.0260    -4.5740  H       1  <O>11       0.1548
  30 H5        0.9920    -0.3972    -1.1392  H       1  <O>11       0.0625
  31 H6        1.3998     1.2486     0.5882  H       1  <O>11       0.0618
  32 H7        3.6622     1.9840     1.0518  H       1  <O>11       0.0618
  33 H8        5.5135     1.0805    -0.2189  H       1  <O>11       0.0624
  34 H9        9.5616    -0.6056    -5.1570  H       1  <O>11       0.0636
  35 H10      10.9698    -1.8108    -6.7231  H       1  <O>11       0.0618
  36 H11      10.2293    -3.9337    -7.6487  H       1  <O>11       0.0623
  37 H12       6.6597    -3.6553    -5.4280  H       1  <O>11       0.0642
@<TRIPOS>BOND
     1     1     2    2
     2     2     3    1
     3     3     4    1
     4     4     5   ar
     5     5     6   ar
     6     6     7   ar
     7     7     8    2
     8     7     9   ar
     9     9    10   ar
    10    10    11   ar
    11    11    12   ar
    12    12    13   ar
    13    13    14   ar
    14     4    14   ar
    15     9    14   ar
    16     2    15   am
    17    15    16    1
    18    16    17   ar
    19    17    18   ar
    20    18    19   ar
    21    19    20   ar
    22    20    21    1
    23    21    22    1
    24    21    23    1
    25    21    24    1
    26    20    25   ar
    27    16    25   ar
    28     3    26    1
    29     3    27    1
    30     6    28    1
    31    15    29    1
    32    10    30    1
    33    11    31    1
    34    12    32    1
    35    13    33    1
    36    17    34    1
    37    18    35    1
    38    19    36    1
    39    25    37    1
@<TRIPOS>MOLECULE
mol16_1_21
 37 39 0 0 0
SMALL
USER_CHARGES
****
VDW energy = -71.37
@<TRIPOS>ATOM
   1 O1        8.7381    -1.4068    -2.6744  O.2     1  <O>11      -0.2751
   2 C1        7.6234    -1.0459    -3.0216  C.2     1  <O>11       0.2231
   3 C2        6.7510    -0.2990    -2.0700  C.3     1  <O>11       0.0688
   4 C3        6.0363     0.7713    -2.7938  C.ar    1  <O>11       0.0780
   5 N1        6.3008     0.8628    -4.1215  N.ar    1  <O>11      -0.1748
   6 N2        5.7668     1.8811    -4.8328  N.ar    1  <O>11      -0.2425
   7 C4        4.9744     2.7799    -4.2032  C.ar    1  <O>11       0.2725
   8 O2        4.5311     3.8683    -4.9785  O.2     1  <O>11      -0.2658
   9 C5        4.5884     2.6750    -2.8588  C.ar    1  <O>11       0.0496
  10 C6        3.7140     3.5788    -2.2151  C.ar    1  <O>11      -0.0487
  11 C7        3.3974     3.4345    -0.8635  C.ar    1  <O>11      -0.0610
  12 C8        3.9511     2.3914    -0.1302  C.ar    1  <O>11      -0.0611
  13 C9        4.8236     1.4936    -0.7468  C.ar    1  <O>11      -0.0521
  14 C10       5.1495     1.6191    -2.1171  C.ar    1  <O>11       0.0108
  15 N3        7.1750    -1.3270    -4.2840  N.am    1  <O>11      -0.2852
  16 C11       7.9910    -2.0260    -5.1740  C.ar    1  <O>11       0.0339
  17 C12       8.4384    -3.3206    -4.8591  C.ar    1  <O>11      -0.0405
  18 C13       9.2660    -4.0164    -5.7465  C.ar    1  <O>11      -0.0595
  19 C14       9.6512    -3.4314    -6.9555  C.ar    1  <O>11      -0.0500
  20 C15       9.1999    -2.1452    -7.2724  C.ar    1  <O>11       0.0566
  21 C16       9.6077    -1.5323    -8.5514  C.3     1  <O>11       0.4175
  22 F1       10.7837    -0.8302    -8.3716  F       1  <O>11      -0.1659
  23 F2        8.6196    -0.6715    -8.9859  F       1  <O>11      -0.1659
  24 F3        9.8021    -2.5224    -9.4947  F       1  <O>11      -0.1659
  25 C17       8.3728    -1.4432    -6.3943  C.ar    1  <O>11      -0.0288
  26 H1        6.0274    -0.9835    -1.6265  H       1  <O>11       0.0423
  27 H2        7.3639     0.1414    -1.2839  H       1  <O>11       0.0423
  28 H3        5.9591     1.9696    -5.8206  H       1  <O>11       0.1921
  29 H4        6.2450    -1.0260    -4.5740  H       1  <O>11       0.1548
  30 H5        3.3029     4.3580    -2.7527  H       1  <O>11       0.0625
  31 H6        2.7534     4.1008    -0.4094  H       1  <O>11       0.0618
  32 H7        3.7172     2.2811     0.8689  H       1  <O>11       0.0618
  33 H8        5.2373     0.7265    -0.1943  H       1  <O>11       0.0624
  34 H9        8.1550    -3.7598    -3.9693  H       1  <O>11       0.0636
  35 H10       9.5933    -4.9654    -5.5074  H       1  <O>11       0.0618
  36 H11      10.2636    -3.9436    -7.6094  H       1  <O>11       0.0623
  37 H12       8.0420    -0.4973    -6.6410  H       1  <O>11       0.0642
@<TRIPOS>BOND
     1     1     2    2
     2     2     3    1
     3     3     4    1
     4     4     5   ar
     5     5     6   ar
     6     6     7   ar
     7     7     8    2
     8     7     9   ar
     9     9    10   ar
    10    10    11   ar
    11    11    12   ar
    12    12    13   ar
    13    13    14   ar
    14     4    14   ar
    15     9    14   ar
    16     2    15   am
    17    15    16    1
    18    16    17   ar
    19    17    18   ar
    20    18    19   ar
    21    19    20   ar
    22    20    21    1
    23    21    22    1
    24    21    23    1
    25    21    24    1
    26    20    25   ar
    27    16    25   ar
    28     3    26    1
    29     3    27    1
    30     6    28    1
    31    15    29    1
    32    10    30    1
    33    11    31    1
    34    12    32    1
    35    13    33    1
    36    17    34    1
    37    18    35    1
    38    19    36    1
    39    25    37    1
@<TRIPOS>MOLECULE
mol16_1_22
 37 39 0 0 0
SMALL
USER_CHARGES
****
VDW energy = -71.15
@<TRIPOS>ATOM
   1 O1        8.7381    -1.4068    -2.6744  O.2     1  <O>11      -0.2751
   2 C1        7.6234    -1.0459    -3.0216  C.2     1  <O>11       0.2231
   3 C2        6.7510    -0.2990    -2.0700  C.3     1  <O>11       0.0688
   4 C3        6.0363     0.7713    -2.7938  C.ar    1  <O>11       0.0780
   5 N1        6.3003     0.8624    -4.1216  N.ar    1  <O>11      -0.1748
   6 N2        5.7663     1.8807    -4.8330  N.ar    1  <O>11      -0.2425
   7 C4        4.9744     2.7799    -4.2033  C.ar    1  <O>11       0.2725
   8 O2        4.5311     3.8681    -4.9787  O.2     1  <O>11      -0.2658
   9 C5        4.5889     2.6754    -2.8588  C.ar    1  <O>11       0.0496
  10 C6        3.7150     3.5796    -2.2149  C.ar    1  <O>11      -0.0487
  11 C7        3.3988     3.4357    -0.8632  C.ar    1  <O>11      -0.0610
  12 C8        3.9525     2.3927    -0.1298  C.ar    1  <O>11      -0.0611
  13 C9        4.8246     1.4945    -0.7465  C.ar    1  <O>11      -0.0521
  14 C10       5.1500     1.6195    -2.1170  C.ar    1  <O>11       0.0108
  15 N3        7.1750    -1.3270    -4.2840  N.am    1  <O>11      -0.2852
  16 C11       7.9910    -2.0260    -5.1740  C.ar    1  <O>11       0.0339
  17 C12       9.2415    -1.5051    -5.5486  C.ar    1  <O>11      -0.0405
  18 C13      10.0541    -2.2007    -6.4499  C.ar    1  <O>11      -0.0595
  19 C14       9.6309    -3.4214    -6.9820  C.ar    1  <O>11      -0.0500
  20 C15       8.3889    -3.9436    -6.6035  C.ar    1  <O>11       0.0566
  21 C16       7.9471    -5.2342    -7.1664  C.3     1  <O>11       0.4175
  22 F1        7.2435    -5.0109    -8.3340  F       1  <O>11      -0.1659
  23 F2        7.1350    -5.8804    -6.2560  F       1  <O>11      -0.1659
  24 F3        9.0504    -6.0200    -7.4369  F       1  <O>11      -0.1659
  25 C17       7.5714    -3.2580    -5.7038  C.ar    1  <O>11      -0.0288
  26 H1        6.0274    -0.9835    -1.6265  H       1  <O>11       0.0423
  27 H2        7.3639     0.1414    -1.2839  H       1  <O>11       0.0423
  28 H3        5.9583     1.9688    -5.8209  H       1  <O>11       0.1921
  29 H4        6.2450    -1.0260    -4.5740  H       1  <O>11       0.1548
  30 H5        3.3039     4.3587    -2.7525  H       1  <O>11       0.0625
  31 H6        2.7552     4.1023    -0.4090  H       1  <O>11       0.0618
  32 H7        3.7190     2.2827     0.8694  H       1  <O>11       0.0618
  33 H8        5.2383     0.7274    -0.1940  H       1  <O>11       0.0624
  34 H9        9.5616    -0.6056    -5.1570  H       1  <O>11       0.0636
  35 H10      10.9698    -1.8108    -6.7231  H       1  <O>11       0.0618
  36 H11      10.2293    -3.9337    -7.6487  H       1  <O>11       0.0623
  37 H12       6.6597    -3.6553    -5.4280  H       1  <O>11       0.0642
@<TRIPOS>BOND
     1     1     2    2
     2     2     3    1
     3     3     4    1
     4     4     5   ar
     5     5     6   ar
     6     6     7   ar
     7     7     8    2
     8     7     9   ar
     9     9    10   ar
    10    10    11   ar
    11    11    12   ar
    12    12    13   ar
    13    13    14   ar
    14     4    14   ar
    15     9    14   ar
    16     2    15   am
    17    15    16    1
    18    16    17   ar
    19    17    18   ar
    20    18    19   ar
    21    19    20   ar
    22    20    21    1
    23    21    22    1
    24    21    23    1
    25    21    24    1
    26    20    25   ar
    27    16    25   ar
    28     3    26    1
    29     3    27    1
    30     6    28    1
    31    15    29    1
    32    10    30    1
    33    11    31    1
    34    12    32    1
    35    13    33    1
    36    17    34    1
    37    18    35    1
    38    19    36    1
    39    25    37    1
@<TRIPOS>MOLECULE
mol16_1_23
 37 39 0 0 0
SMALL
USER_CHARGES
****
VDW energy = -61.57
@<TRIPOS>ATOM
   1 O1        8.7381    -1.4068    -2.6744  O.2     1  <O>11      -0.2751
   2 C1        7.6234    -1.0459    -3.0216  C.2     1  <O>11       0.2231
   3 C2        6.7510    -0.2990    -2.0700  C.3     1  <O>11       0.0688
   4 C3        7.4590    -0.1250    -0.7860  C.ar    1  <O>11       0.0780
   5 N1        8.2092     1.0001    -0.6747  N.ar    1  <O>11      -0.1748
   6 N2        8.9699     1.1805     0.4285  N.ar    1  <O>11      -0.2425
   7 C4        8.9575     0.2366     1.3986  C.ar    1  <O>11       0.2725
   8 O2        9.8445     0.4380     2.4732  O.2     1  <O>11      -0.2658
   9 C5        8.1258    -0.8927     1.3798  C.ar    1  <O>11       0.0496
  10 C6        8.0677    -1.8485     2.4186  C.ar    1  <O>11      -0.0487
  11 C7        7.2409    -2.9685     2.3203  C.ar    1  <O>11      -0.0610
  12 C8        6.4634    -3.1576     1.1837  C.ar    1  <O>11      -0.0611
  13 C9        6.5139    -2.2287     0.1435  C.ar    1  <O>11      -0.0521
  14 C10       7.3393    -1.0836     0.2288  C.ar    1  <O>11       0.0108
  15 N3        7.1750    -1.3270    -4.2840  N.am    1  <O>11      -0.2852
  16 C11       7.9910    -2.0260    -5.1740  C.ar    1  <O>11       0.0339
  17 C12       7.5380    -2.3180    -6.4720  C.ar    1  <O>11      -0.0405
  18 C13       8.3520    -3.0290    -7.3600  C.ar    1  <O>11      -0.0595
  19 C14       9.6240    -3.4510    -6.9650  C.ar    1  <O>11      -0.0500
  20 C15      10.0780    -3.1540    -5.6750  C.ar    1  <O>11       0.0566
  21 C16      11.4230    -3.6000    -5.2630  C.3     1  <O>11       0.4175
  22 F1       11.3386    -4.8582    -4.6992  F       1  <O>11      -0.1659
  23 F2       11.9390    -2.7147    -4.3378  F       1  <O>11      -0.1659
  24 F3       12.2512    -3.6450    -6.3676  F       1  <O>11      -0.1659
  25 C17       9.2740    -2.4440    -4.7820  C.ar    1  <O>11      -0.0288
  26 H1        6.5110     0.6790    -2.4880  H       1  <O>11       0.0423
  27 H2        5.8310    -0.8590    -1.9040  H       1  <O>11       0.0423
  28 H3        9.5407     2.0084     0.5251  H       1  <O>11       0.1921
  29 H4        6.2450    -1.0260    -4.5740  H       1  <O>11       0.1548
  30 H5        8.6457    -1.7163     3.2633  H       1  <O>11       0.0625
  31 H6        7.2067    -3.6549     3.0901  H       1  <O>11       0.0618
  32 H7        5.8496    -3.9840     1.1091  H       1  <O>11       0.0618
  33 H8        5.9402    -2.3797    -0.7009  H       1  <O>11       0.0624
  34 H9        6.6008    -2.0065    -6.7713  H       1  <O>11       0.0636
  35 H10       8.0117    -3.2427    -8.3106  H       1  <O>11       0.0618
  36 H11      10.2239    -3.9775    -7.6192  H       1  <O>11       0.0623
  37 H12       9.6214    -2.2263    -3.8349  H       1  <O>11       0.0642
@<TRIPOS>BOND
     1     1     2    2
     2     2     3    1
     3     3     4    1
     4     4     5   ar
     5     5     6   ar
     6     6     7   ar
     7     7     8    2
     8     7     9   ar
     9     9    10   ar
    10    10    11   ar
    11    11    12   ar
    12    12    13   ar
    13    13    14   ar
    14     4    14   ar
    15     9    14   ar
    16     2    15   am
    17    15    16    1
    18    16    17   ar
    19    17    18   ar
    20    18    19   ar
    21    19    20   ar
    22    20    21    1
    23    21    22    1
    24    21    23    1
    25    21    24    1
    26    20    25   ar
    27    16    25   ar
    28     3    26    1
    29     3    27    1
    30     6    28    1
    31    15    29    1
    32    10    30    1
    33    11    31    1
    34    12    32    1
    35    13    33    1
    36    17    34    1
    37    18    35    1
    38    19    36    1
    39    25    37    1
@<TRIPOS>MOLECULE
mol16_1_24
 37 39 0 0 0
SMALL
USER_CHARGES
****
VDW energy = -57.26
@<TRIPOS>ATOM
   1 O1        8.7381    -1.4068    -2.6744  O.2     1  <O>11      -0.2751
   2 C1        7.6234    -1.0459    -3.0216  C.2     1  <O>11       0.2231
   3 C2        6.7510    -0.2990    -2.0700  C.3     1  <O>11       0.0688
   4 C3        7.4590    -0.1250    -0.7860  C.ar    1  <O>11       0.0780
   5 N1        7.6639     1.1582    -0.3954  N.ar    1  <O>11      -0.1748
   6 N2        8.3957     1.4019     0.7151  N.ar    1  <O>11      -0.2425
   7 C4        8.8992     0.3580     1.4143  C.ar    1  <O>11       0.2725
   8 O2        9.7320     0.6822     2.5022  O.2     1  <O>11      -0.2658
   9 C5        8.6336    -0.9858     1.1124  C.ar    1  <O>11       0.0496
  10 C6        9.1091    -2.0758     1.8752  C.ar    1  <O>11      -0.0487
  11 C7        8.8347    -3.3914     1.4988  C.ar    1  <O>11      -0.0610
  12 C8        8.0878    -3.6426     0.3537  C.ar    1  <O>11      -0.0611
  13 C9        7.6169    -2.5789    -0.4172  C.ar    1  <O>11      -0.0521
  14 C10       7.8777    -1.2393    -0.0470  C.ar    1  <O>11       0.0108
  15 N3        7.1750    -1.3270    -4.2840  N.am    1  <O>11      -0.2852
  16 C11       7.9910    -2.0260    -5.1740  C.ar    1  <O>11       0.0339
  17 C12       7.5380    -2.3180    -6.4720  C.ar    1  <O>11      -0.0405
  18 C13       8.3520    -3.0290    -7.3600  C.ar    1  <O>11      -0.0595
  19 C14       9.6240    -3.4510    -6.9650  C.ar    1  <O>11      -0.0500
  20 C15      10.0780    -3.1540    -5.6750  C.ar    1  <O>11       0.0566
  21 C16      11.4230    -3.6000    -5.2630  C.3     1  <O>11       0.4175
  22 F1       11.3386    -4.8582    -4.6992  F       1  <O>11      -0.1659
  23 F2       11.9390    -2.7147    -4.3378  F       1  <O>11      -0.1659
  24 F3       12.2512    -3.6450    -6.3676  F       1  <O>11      -0.1659
  25 C17       9.2740    -2.4440    -4.7820  C.ar    1  <O>11      -0.0288
  26 H1        6.5110     0.6790    -2.4880  H       1  <O>11       0.0423
  27 H2        5.8310    -0.8590    -1.9040  H       1  <O>11       0.0423
  28 H3        8.5650     2.3511     1.0166  H       1  <O>11       0.1921
  29 H4        6.2450    -1.0260    -4.5740  H       1  <O>11       0.1548
  30 H5        9.6679    -1.8963     2.7240  H       1  <O>11       0.0625
  31 H6        9.1858    -4.1762     2.0695  H       1  <O>11       0.0618
  32 H7        7.8818    -4.6144     0.0740  H       1  <O>11       0.0618
  33 H8        7.0699    -2.7729    -1.2706  H       1  <O>11       0.0624
  34 H9        6.6008    -2.0065    -6.7713  H       1  <O>11       0.0636
  35 H10       8.0117    -3.2427    -8.3106  H       1  <O>11       0.0618
  36 H11      10.2239    -3.9775    -7.6192  H       1  <O>11       0.0623
  37 H12       9.6214    -2.2263    -3.8349  H       1  <O>11       0.0642
@<TRIPOS>BOND
     1     1     2    2
     2     2     3    1
     3     3     4    1
     4     4     5   ar
     5     5     6   ar
     6     6     7   ar
     7     7     8    2
     8     7     9   ar
     9     9    10   ar
    10    10    11   ar
    11    11    12   ar
    12    12    13   ar
    13    13    14   ar
    14     4    14   ar
    15     9    14   ar
    16     2    15   am
    17    15    16    1
    18    16    17   ar
    19    17    18   ar
    20    18    19   ar
    21    19    20   ar
    22    20    21    1
    23    21    22    1
    24    21    23    1
    25    21    24    1
    26    20    25   ar
    27    16    25   ar
    28     3    26    1
    29     3    27    1
    30     6    28    1
    31    15    29    1
    32    10    30    1
    33    11    31    1
    34    12    32    1
    35    13    33    1
    36    17    34    1
    37    18    35    1
    38    19    36    1
    39    25    37    1
@<TRIPOS>MOLECULE
mol16_1_25
 37 39 0 0 0
SMALL
USER_CHARGES
****
VDW energy = -47.51
@<TRIPOS>ATOM
   1 O1        8.7381    -1.4068    -2.6744  O.2     1  <O>11      -0.2751
   2 C1        7.6234    -1.0459    -3.0216  C.2     1  <O>11       0.2231
   3 C2        6.7510    -0.2990    -2.0700  C.3     1  <O>11       0.0688
   4 C3        7.4590    -0.1250    -0.7860  C.ar    1  <O>11       0.0780
   5 N1        8.7070    -0.6540    -0.7250  N.ar    1  <O>11      -0.1748
   6 N2        9.3790    -0.6280     0.4480  N.ar    1  <O>11      -0.2425
   7 C4        8.7920    -0.0670     1.5310  C.ar    1  <O>11       0.2725
   8 O2        9.5040    -0.1600     2.7420  O.2     1  <O>11      -0.2658
   9 C5        7.5490     0.5820     1.4980  C.ar    1  <O>11       0.0496
  10 C6        6.9610     1.2200     2.6130  C.ar    1  <O>11      -0.0487
  11 C7        5.7040     1.8190     2.5190  C.ar    1  <O>11      -0.0610
  12 C8        5.0100     1.7870     1.3150  C.ar    1  <O>11      -0.0611
  13 C9        5.5710     1.1540     0.2050  C.ar    1  <O>11      -0.0521
  14 C10       6.8470     0.5490     0.2790  C.ar    1  <O>11       0.0108
  15 N3        7.1750    -1.3270    -4.2840  N.am    1  <O>11      -0.2852
  16 C11       7.9910    -2.0260    -5.1740  C.ar    1  <O>11       0.0339
  17 C12       7.5380    -2.3180    -6.4720  C.ar    1  <O>11      -0.0405
  18 C13       8.3520    -3.0290    -7.3600  C.ar    1  <O>11      -0.0595
  19 C14       9.6240    -3.4510    -6.9650  C.ar    1  <O>11      -0.0500
  20 C15      10.0780    -3.1540    -5.6750  C.ar    1  <O>11       0.0566
  21 C16      11.4230    -3.6000    -5.2630  C.3     1  <O>11       0.4175
  22 F1       11.3386    -4.8582    -4.6992  F       1  <O>11      -0.1659
  23 F2       11.9390    -2.7147    -4.3378  F       1  <O>11      -0.1659
  24 F3       12.2512    -3.6450    -6.3676  F       1  <O>11      -0.1659
  25 C17       9.2740    -2.4440    -4.7820  C.ar    1  <O>11      -0.0288
  26 H1        6.5110     0.6790    -2.4880  H       1  <O>11       0.0423
  27 H2        5.8310    -0.8590    -1.9040  H       1  <O>11       0.0423
  28 H3       10.3060    -1.0240     0.5140  H       1  <O>11       0.1921
  29 H4        6.2450    -1.0260    -4.5740  H       1  <O>11       0.1548
  30 H5        7.4690     1.2435     3.5110  H       1  <O>11       0.0625
  31 H6        5.2905     2.2848     3.3418  H       1  <O>11       0.0618
  32 H7        4.0811     2.2308     1.2421  H       1  <O>11       0.0618
  33 H8        5.0466     1.1270    -0.6834  H       1  <O>11       0.0624
  34 H9        6.6008    -2.0065    -6.7713  H       1  <O>11       0.0636
  35 H10       8.0117    -3.2427    -8.3106  H       1  <O>11       0.0618
  36 H11      10.2239    -3.9775    -7.6192  H       1  <O>11       0.0623
  37 H12       9.6214    -2.2263    -3.8349  H       1  <O>11       0.0642
@<TRIPOS>BOND
     1     1     2    2
     2     2     3    1
     3     3     4    1
     4     4     5   ar
     5     5     6   ar
     6     6     7   ar
     7     7     8    2
     8     7     9   ar
     9     9    10   ar
    10    10    11   ar
    11    11    12   ar
    12    12    13   ar
    13    13    14   ar
    14     4    14   ar
    15     9    14   ar
    16     2    15   am
    17    15    16    1
    18    16    17   ar
    19    17    18   ar
    20    18    19   ar
    21    19    20   ar
    22    20    21    1
    23    21    22    1
    24    21    23    1
    25    21    24    1
    26    20    25   ar
    27    16    25   ar
    28     3    26    1
    29     3    27    1
    30     6    28    1
    31    15    29    1
    32    10    30    1
    33    11    31    1
    34    12    32    1
    35    13    33    1
    36    17    34    1
    37    18    35    1
    38    19    36    1
    39    25    37    1
@<TRIPOS>MOLECULE
mol16_1_26
 37 39 0 0 0
SMALL
USER_CHARGES
****
VDW energy = -47.50
@<TRIPOS>ATOM
   1 O1        8.7381    -1.4068    -2.6744  O.2     1  <O>11      -0.2751
   2 C1        7.6234    -1.0459    -3.0216  C.2     1  <O>11       0.2231
   3 C2        6.7510    -0.2990    -2.0700  C.3     1  <O>11       0.0688
   4 C3        7.4590    -0.1250    -0.7860  C.ar    1  <O>11       0.0780
   5 N1        8.7070    -0.6540    -0.7250  N.ar    1  <O>11      -0.1748
   6 N2        9.3790    -0.6280     0.4480  N.ar    1  <O>11      -0.2425
   7 C4        8.7920    -0.0670     1.5310  C.ar    1  <O>11       0.2725
   8 O2        9.5040    -0.1600     2.7420  O.2     1  <O>11      -0.2658
   9 C5        7.5490     0.5820     1.4980  C.ar    1  <O>11       0.0496
  10 C6        6.9610     1.2200     2.6130  C.ar    1  <O>11      -0.0487
  11 C7        5.7040     1.8190     2.5190  C.ar    1  <O>11      -0.0610
  12 C8        5.0100     1.7870     1.3150  C.ar    1  <O>11      -0.0611
  13 C9        5.5710     1.1540     0.2050  C.ar    1  <O>11      -0.0521
  14 C10       6.8470     0.5490     0.2790  C.ar    1  <O>11       0.0108
  15 N3        7.1750    -1.3270    -4.2840  N.am    1  <O>11      -0.2852
  16 C11       7.9910    -2.0260    -5.1740  C.ar    1  <O>11       0.0339
  17 C12       7.5380    -2.3180    -6.4720  C.ar    1  <O>11      -0.0405
  18 C13       8.3520    -3.0290    -7.3600  C.ar    1  <O>11      -0.0595
  19 C14       9.6240    -3.4510    -6.9650  C.ar    1  <O>11      -0.0500
  20 C15      10.0780    -3.1540    -5.6750  C.ar    1  <O>11       0.0566
  21 C16      11.4230    -3.6000    -5.2630  C.3     1  <O>11       0.4175
  22 F1       12.3473    -2.6203    -5.5695  F       1  <O>11      -0.1659
  23 F2       11.7474    -4.7639    -5.9308  F       1  <O>11      -0.1659
  24 F3       11.4335    -3.8331    -3.9015  F       1  <O>11      -0.1659
  25 C17       9.2740    -2.4440    -4.7820  C.ar    1  <O>11      -0.0288
  26 H1        6.5110     0.6790    -2.4880  H       1  <O>11       0.0423
  27 H2        5.8310    -0.8590    -1.9040  H       1  <O>11       0.0423
  28 H3       10.3060    -1.0240     0.5140  H       1  <O>11       0.1921
  29 H4        6.2450    -1.0260    -4.5740  H       1  <O>11       0.1548
  30 H5        7.4690     1.2435     3.5110  H       1  <O>11       0.0625
  31 H6        5.2905     2.2848     3.3418  H       1  <O>11       0.0618
  32 H7        4.0811     2.2308     1.2421  H       1  <O>11       0.0618
  33 H8        5.0466     1.1270    -0.6834  H       1  <O>11       0.0624
  34 H9        6.6008    -2.0065    -6.7713  H       1  <O>11       0.0636
  35 H10       8.0117    -3.2427    -8.3106  H       1  <O>11       0.0618
  36 H11      10.2239    -3.9775    -7.6192  H       1  <O>11       0.0623
  37 H12       9.6214    -2.2263    -3.8349  H       1  <O>11       0.0642
@<TRIPOS>BOND
     1     1     2    2
     2     2     3    1
     3     3     4    1
     4     4     5   ar
     5     5     6   ar
     6     6     7   ar
     7     7     8    2
     8     7     9   ar
     9     9    10   ar
    10    10    11   ar
    11    11    12   ar
    12    12    13   ar
    13    13    14   ar
    14     4    14   ar
    15     9    14   ar
    16     2    15   am
    17    15    16    1
    18    16    17   ar
    19    17    18   ar
    20    18    19   ar
    21    19    20   ar
    22    20    21    1
    23    21    22    1
    24    21    23    1
    25    21    24    1
    26    20    25   ar
    27    16    25   ar
    28     3    26    1
    29     3    27    1
    30     6    28    1
    31    15    29    1
    32    10    30    1
    33    11    31    1
    34    12    32    1
    35    13    33    1
    36    17    34    1
    37    18    35    1
    38    19    36    1
    39    25    37    1
@<TRIPOS>MOLECULE
mol16_1_27
 37 39 0 0 0
SMALL
USER_CHARGES
****
VDW energy = -47.22
@<TRIPOS>ATOM
   1 O1        8.7381    -1.4068    -2.6744  O.2     1  <O>11      -0.2751
   2 C1        7.6234    -1.0459    -3.0216  C.2     1  <O>11       0.2231
   3 C2        6.7510    -0.2990    -2.0700  C.3     1  <O>11       0.0688
   4 C3        7.4590    -0.1250    -0.7860  C.ar    1  <O>11       0.0780
   5 N1        8.7070    -0.6540    -0.7250  N.ar    1  <O>11      -0.1748
   6 N2        9.3790    -0.6280     0.4480  N.ar    1  <O>11      -0.2425
   7 C4        8.7920    -0.0670     1.5310  C.ar    1  <O>11       0.2725
   8 O2        9.5040    -0.1600     2.7420  O.2     1  <O>11      -0.2658
   9 C5        7.5490     0.5820     1.4980  C.ar    1  <O>11       0.0496
  10 C6        6.9610     1.2200     2.6130  C.ar    1  <O>11      -0.0487
  11 C7        5.7040     1.8190     2.5190  C.ar    1  <O>11      -0.0610
  12 C8        5.0100     1.7870     1.3150  C.ar    1  <O>11      -0.0611
  13 C9        5.5710     1.1540     0.2050  C.ar    1  <O>11      -0.0521
  14 C10       6.8470     0.5490     0.2790  C.ar    1  <O>11       0.0108
  15 N3        7.1750    -1.3270    -4.2840  N.am    1  <O>11      -0.2852
  16 C11       7.9910    -2.0260    -5.1740  C.ar    1  <O>11       0.0339
  17 C12       7.5380    -2.3180    -6.4720  C.ar    1  <O>11      -0.0405
  18 C13       8.3520    -3.0290    -7.3600  C.ar    1  <O>11      -0.0595
  19 C14       9.6240    -3.4510    -6.9650  C.ar    1  <O>11      -0.0500
  20 C15      10.0780    -3.1540    -5.6750  C.ar    1  <O>11       0.0566
  21 C16      11.4230    -3.6000    -5.2630  C.3     1  <O>11       0.4175
  22 F1       11.6620    -3.2020    -3.9620  F       1  <O>11      -0.1659
  23 F2       12.3700    -3.0400    -6.0970  F       1  <O>11      -0.1659
  24 F3       11.4960    -4.9770    -5.3440  F       1  <O>11      -0.1659
  25 C17       9.2740    -2.4440    -4.7820  C.ar    1  <O>11      -0.0288
  26 H1        6.5110     0.6790    -2.4880  H       1  <O>11       0.0423
  27 H2        5.8310    -0.8590    -1.9040  H       1  <O>11       0.0423
  28 H3       10.3060    -1.0240     0.5140  H       1  <O>11       0.1921
  29 H4        6.2450    -1.0260    -4.5740  H       1  <O>11       0.1548
  30 H5        7.4690     1.2435     3.5110  H       1  <O>11       0.0625
  31 H6        5.2905     2.2848     3.3418  H       1  <O>11       0.0618
  32 H7        4.0811     2.2308     1.2421  H       1  <O>11       0.0618
  33 H8        5.0466     1.1270    -0.6834  H       1  <O>11       0.0624
  34 H9        6.6008    -2.0065    -6.7713  H       1  <O>11       0.0636
  35 H10       8.0117    -3.2427    -8.3106  H       1  <O>11       0.0618
  36 H11      10.2239    -3.9775    -7.6192  H       1  <O>11       0.0623
  37 H12       9.6214    -2.2263    -3.8349  H       1  <O>11       0.0642
@<TRIPOS>BOND
     1     1     2    2
     2     2     3    1
     3     3     4    1
     4     4     5   ar
     5     5     6   ar
     6     6     7   ar
     7     7     8    2
     8     7     9   ar
     9     9    10   ar
    10    10    11   ar
    11    11    12   ar
    12    12    13   ar
    13    13    14   ar
    14     4    14   ar
    15     9    14   ar
    16     2    15   am
    17    15    16    1
    18    16    17   ar
    19    17    18   ar
    20    18    19   ar
    21    19    20   ar
    22    20    21    1
    23    21    22    1
    24    21    23    1
    25    21    24    1
    26    20    25   ar
    27    16    25   ar
    28     3    26    1
    29     3    27    1
    30     6    28    1
    31    15    29    1
    32    10    30    1
    33    11    31    1
    34    12    32    1
    35    13    33    1
    36    17    34    1
    37    18    35    1
    38    19    36    1
    39    25    37    1
@<TRIPOS>MOLECULE
mol16_1_28
 37 39 0 0 0
SMALL
USER_CHARGES
****
VDW energy = -43.48
@<TRIPOS>ATOM
   1 O1        8.7381    -1.4068    -2.6744  O.2     1  <O>11      -0.2751
   2 C1        7.6234    -1.0459    -3.0216  C.2     1  <O>11       0.2231
   3 C2        6.7510    -0.2990    -2.0700  C.3     1  <O>11       0.0688
   4 C3        5.3571    -0.7653    -2.2104  C.ar    1  <O>11       0.0780
   5 N1        5.1512    -1.7371    -3.1348  N.ar    1  <O>11      -0.1748
   6 N2        3.8884    -2.1431    -3.3964  N.ar    1  <O>11      -0.2425
   7 C4        2.8609    -1.5748    -2.7230  C.ar    1  <O>11       0.2725
   8 O2        1.5674    -1.9719    -3.1119  O.2     1  <O>11      -0.2658
   9 C5        3.0253    -0.6414    -1.6890  C.ar    1  <O>11       0.0496
  10 C6        1.9581    -0.0912    -0.9444  C.ar    1  <O>11      -0.0487
  11 C7        2.1901     0.8598     0.0504  C.ar    1  <O>11      -0.0610
  12 C8        3.4876     1.2823     0.3154  C.ar    1  <O>11      -0.0611
  13 C9        4.5537     0.7563    -0.4155  C.ar    1  <O>11      -0.0521
  14 C10       4.3389    -0.2141    -1.4214  C.ar    1  <O>11       0.0108
  15 N3        7.1750    -1.3270    -4.2840  N.am    1  <O>11      -0.2852
  16 C11       7.9910    -2.0260    -5.1740  C.ar    1  <O>11       0.0339
  17 C12       7.5380    -2.3180    -6.4720  C.ar    1  <O>11      -0.0405
  18 C13       8.3520    -3.0290    -7.3600  C.ar    1  <O>11      -0.0595
  19 C14       9.6240    -3.4510    -6.9650  C.ar    1  <O>11      -0.0500
  20 C15      10.0780    -3.1540    -5.6750  C.ar    1  <O>11       0.0566
  21 C16      11.4230    -3.6000    -5.2630  C.3     1  <O>11       0.4175
  22 F1       12.3473    -2.6203    -5.5695  F       1  <O>11      -0.1659
  23 F2       11.7474    -4.7639    -5.9308  F       1  <O>11      -0.1659
  24 F3       11.4335    -3.8331    -3.9015  F       1  <O>11      -0.1659
  25 C17       9.2740    -2.4440    -4.7820  C.ar    1  <O>11      -0.0288
  26 H1        7.0920    -0.4752    -1.0495  H       1  <O>11       0.0423
  27 H2        6.8009     0.7669    -2.2910  H       1  <O>11       0.0423
  28 H3        3.7155    -2.8600    -4.0869  H       1  <O>11       0.1921
  29 H4        6.2450    -1.0260    -4.5740  H       1  <O>11       0.1548
  30 H5        0.9920    -0.3972    -1.1392  H       1  <O>11       0.0625
  31 H6        1.3998     1.2486     0.5882  H       1  <O>11       0.0618
  32 H7        3.6622     1.9840     1.0518  H       1  <O>11       0.0618
  33 H8        5.5135     1.0805    -0.2189  H       1  <O>11       0.0624
  34 H9        6.6008    -2.0065    -6.7713  H       1  <O>11       0.0636
  35 H10       8.0117    -3.2427    -8.3106  H       1  <O>11       0.0618
  36 H11      10.2239    -3.9775    -7.6192  H       1  <O>11       0.0623
  37 H12       9.6214    -2.2263    -3.8349  H       1  <O>11       0.0642
@<TRIPOS>BOND
     1     1     2    2
     2     2     3    1
     3     3     4    1
     4     4     5   ar
     5     5     6   ar
     6     6     7   ar
     7     7     8    2
     8     7     9   ar
     9     9    10   ar
    10    10    11   ar
    11    11    12   ar
    12    12    13   ar
    13    13    14   ar
    14     4    14   ar
    15     9    14   ar
    16     2    15   am
    17    15    16    1
    18    16    17   ar
    19    17    18   ar
    20    18    19   ar
    21    19    20   ar
    22    20    21    1
    23    21    22    1
    24    21    23    1
    25    21    24    1
    26    20    25   ar
    27    16    25   ar
    28     3    26    1
    29     3    27    1
    30     6    28    1
    31    15    29    1
    32    10    30    1
    33    11    31    1
    34    12    32    1
    35    13    33    1
    36    17    34    1
    37    18    35    1
    38    19    36    1
    39    25    37    1
@<TRIPOS>MOLECULE
mol16_1_29
 37 39 0 0 0
SMALL
USER_CHARGES
****
VDW energy = -43.15
@<TRIPOS>ATOM
   1 O1        8.7381    -1.4068    -2.6744  O.2     1  <O>11      -0.2751
   2 C1        7.6234    -1.0459    -3.0216  C.2     1  <O>11       0.2231
   3 C2        6.7510    -0.2990    -2.0700  C.3     1  <O>11       0.0688
   4 C3        5.3571    -0.7653    -2.2104  C.ar    1  <O>11       0.0780
   5 N1        5.1512    -1.7371    -3.1348  N.ar    1  <O>11      -0.1748
   6 N2        3.8884    -2.1431    -3.3964  N.ar    1  <O>11      -0.2425
   7 C4        2.8609    -1.5748    -2.7230  C.ar    1  <O>11       0.2725
   8 O2        1.5674    -1.9719    -3.1119  O.2     1  <O>11      -0.2658
   9 C5        3.0253    -0.6414    -1.6890  C.ar    1  <O>11       0.0496
  10 C6        1.9581    -0.0912    -0.9444  C.ar    1  <O>11      -0.0487
  11 C7        2.1901     0.8598     0.0504  C.ar    1  <O>11      -0.0610
  12 C8        3.4876     1.2823     0.3154  C.ar    1  <O>11      -0.0611
  13 C9        4.5537     0.7563    -0.4155  C.ar    1  <O>11      -0.0521
  14 C10       4.3389    -0.2141    -1.4214  C.ar    1  <O>11       0.0108
  15 N3        7.1750    -1.3270    -4.2840  N.am    1  <O>11      -0.2852
  16 C11       7.9910    -2.0260    -5.1740  C.ar    1  <O>11       0.0339
  17 C12       7.5380    -2.3180    -6.4720  C.ar    1  <O>11      -0.0405
  18 C13       8.3520    -3.0290    -7.3600  C.ar    1  <O>11      -0.0595
  19 C14       9.6240    -3.4510    -6.9650  C.ar    1  <O>11      -0.0500
  20 C15      10.0780    -3.1540    -5.6750  C.ar    1  <O>11       0.0566
  21 C16      11.4230    -3.6000    -5.2630  C.3     1  <O>11       0.4175
  22 F1       12.3702    -3.0389    -6.0973  F       1  <O>11      -0.1659
  23 F2       11.4969    -4.9763    -5.3427  F       1  <O>11      -0.1659
  24 F3       11.6614    -3.2015    -3.9621  F       1  <O>11      -0.1659
  25 C17       9.2740    -2.4440    -4.7820  C.ar    1  <O>11      -0.0288
  26 H1        7.0920    -0.4752    -1.0495  H       1  <O>11       0.0423
  27 H2        6.8009     0.7669    -2.2910  H       1  <O>11       0.0423
  28 H3        3.7155    -2.8600    -4.0869  H       1  <O>11       0.1921
  29 H4        6.2450    -1.0260    -4.5740  H       1  <O>11       0.1548
  30 H5        0.9920    -0.3972    -1.1392  H       1  <O>11       0.0625
  31 H6        1.3998     1.2486     0.5882  H       1  <O>11       0.0618
  32 H7        3.6622     1.9840     1.0518  H       1  <O>11       0.0618
  33 H8        5.5135     1.0805    -0.2189  H       1  <O>11       0.0624
  34 H9        6.6008    -2.0065    -6.7713  H       1  <O>11       0.0636
  35 H10       8.0117    -3.2427    -8.3106  H       1  <O>11       0.0618
  36 H11      10.2239    -3.9775    -7.6192  H       1  <O>11       0.0623
  37 H12       9.6214    -2.2263    -3.8349  H       1  <O>11       0.0642
@<TRIPOS>BOND
     1     1     2    2
     2     2     3    1
     3     3     4    1
     4     4     5   ar
     5     5     6   ar
     6     6     7   ar
     7     7     8    2
     8     7     9   ar
     9     9    10   ar
    10    10    11   ar
    11    11    12   ar
    12    12    13   ar
    13    13    14   ar
    14     4    14   ar
    15     9    14   ar
    16     2    15   am
    17    15    16    1
    18    16    17   ar
    19    17    18   ar
    20    18    19   ar
    21    19    20   ar
    22    20    21    1
    23    21    22    1
    24    21    23    1
    25    21    24    1
    26    20    25   ar
    27    16    25   ar
    28     3    26    1
    29     3    27    1
    30     6    28    1
    31    15    29    1
    32    10    30    1
    33    11    31    1
    34    12    32    1
    35    13    33    1
    36    17    34    1
    37    18    35    1
    38    19    36    1
    39    25    37    1
@<TRIPOS>MOLECULE
mol16_1_30
 37 39 0 0 0
SMALL
USER_CHARGES
****
VDW energy = -42.91
@<TRIPOS>ATOM
   1 O1        8.7381    -1.4068    -2.6744  O.2     1  <O>11      -0.2751
   2 C1        7.6234    -1.0459    -3.0216  C.2     1  <O>11       0.2231
   3 C2        6.7510    -0.2990    -2.0700  C.3     1  <O>11       0.0688
   4 C3        6.0363     0.7713    -2.7938  C.ar    1  <O>11       0.0780
   5 N1        6.3003     0.8624    -4.1216  N.ar    1  <O>11      -0.1748
   6 N2        5.7663     1.8807    -4.8330  N.ar    1  <O>11      -0.2425
   7 C4        4.9744     2.7799    -4.2033  C.ar    1  <O>11       0.2725
   8 O2        4.5311     3.8681    -4.9787  O.2     1  <O>11      -0.2658
   9 C5        4.5889     2.6754    -2.8588  C.ar    1  <O>11       0.0496
  10 C6        3.7150     3.5796    -2.2149  C.ar    1  <O>11      -0.0487
  11 C7        3.3988     3.4357    -0.8632  C.ar    1  <O>11      -0.0610
  12 C8        3.9525     2.3927    -0.1298  C.ar    1  <O>11      -0.0611
  13 C9        4.8246     1.4945    -0.7465  C.ar    1  <O>11      -0.0521
  14 C10       5.1500     1.6195    -2.1170  C.ar    1  <O>11       0.0108
  15 N3        7.1750    -1.3270    -4.2840  N.am    1  <O>11      -0.2852
  16 C11       7.9910    -2.0260    -5.1740  C.ar    1  <O>11       0.0339
  17 C12       7.5380    -2.3180    -6.4720  C.ar    1  <O>11      -0.0405
  18 C13       8.3520    -3.0290    -7.3600  C.ar    1  <O>11      -0.0595
  19 C14       9.6240    -3.4510    -6.9650  C.ar    1  <O>11      -0.0500
  20 C15      10.0780    -3.1540    -5.6750  C.ar    1  <O>11       0.0566
  21 C16      11.4230    -3.6000    -5.2630  C.3     1  <O>11       0.4175
  22 F1       11.3386    -4.8582    -4.6992  F       1  <O>11      -0.1659
  23 F2       11.9390    -2.7147    -4.3378  F       1  <O>11      -0.1659
  24 F3       12.2512    -3.6450    -6.3676  F       1  <O>11      -0.1659
  25 C17       9.2740    -2.4440    -4.7820  C.ar    1  <O>11      -0.0288
  26 H1        6.0274    -0.9835    -1.6265  H       1  <O>11       0.0423
  27 H2        7.3639     0.1414    -1.2839  H       1  <O>11       0.0423
  28 H3        5.9583     1.9688    -5.8209  H       1  <O>11       0.1921
  29 H4        6.2450    -1.0260    -4.5740  H       1  <O>11       0.1548
  30 H5        3.3039     4.3587    -2.7525  H       1  <O>11       0.0625
  31 H6        2.7552     4.1023    -0.4090  H       1  <O>11       0.0618
  32 H7        3.7190     2.2827     0.8694  H       1  <O>11       0.0618
  33 H8        5.2383     0.7274    -0.1940  H       1  <O>11       0.0624
  34 H9        6.6008    -2.0065    -6.7713  H       1  <O>11       0.0636
  35 H10       8.0117    -3.2427    -8.3106  H       1  <O>11       0.0618
  36 H11      10.2239    -3.9775    -7.6192  H       1  <O>11       0.0623
  37 H12       9.6214    -2.2263    -3.8349  H       1  <O>11       0.0642
@<TRIPOS>BOND
     1     1     2    2
     2     2     3    1
     3     3     4    1
     4     4     5   ar
     5     5     6   ar
     6     6     7   ar
     7     7     8    2
     8     7     9   ar
     9     9    10   ar
    10    10    11   ar
    11    11    12   ar
    12    12    13   ar
    13    13    14   ar
    14     4    14   ar
    15     9    14   ar
    16     2    15   am
    17    15    16    1
    18    16    17   ar
    19    17    18   ar
    20    18    19   ar
    21    19    20   ar
    22    20    21    1
    23    21    22    1
    24    21    23    1
    25    21    24    1
    26    20    25   ar
    27    16    25   ar
    28     3    26    1
    29     3    27    1
    30     6    28    1
    31    15    29    1
    32    10    30    1
    33    11    31    1
    34    12    32    1
    35    13    33    1
    36    17    34    1
    37    18    35    1
    38    19    36    1
    39    25    37    1
