@<TRIPOS>MOLECULE
mol17_1_1
 43 45 0 0 0
SMALL
USER_CHARGES
****
VDW energy = -64.02
@<TRIPOS>ATOM
   1 C1        5.4866     1.2825    -0.2360  C.3     1  <O>11       0.0340
   2 N1        6.7347     1.7343    -0.7968  N.ar    1  <O>11      -0.2318
   3 N2        7.2340     2.9457    -0.4598  N.ar    1  <O>11      -0.1724
   4 C2        8.4134     3.3437    -0.9933  C.ar    1  <O>11       0.0783
   5 C3        8.8350     4.7170    -0.6550  C.3     1  <O>11       0.0685
   6 C4        9.6535     4.6934     0.5922  C.2     1  <O>11       0.2189
   7 O1        9.8731     3.6325     1.1581  O.2     1  <O>11      -0.2754
   8 N3       10.1581     5.8592     1.1034  N.am    1  <O>11      -0.3147
   9 C5       10.9587     5.8339     2.3248  C.3     1  <O>11       0.0157
  10 C6       11.3934     7.2482     2.6746  C.3     1  <O>11      -0.0093
  11 C7       12.2070     7.2212     3.9160  C.ar    1  <O>11      -0.0107
  12 C8       13.6033     7.0630     3.8450  C.ar    1  <O>11      -0.0558
  13 C9       14.3685     7.0250     5.0150  C.ar    1  <O>11      -0.0613
  14 C10      13.7530     7.1476     6.2626  C.ar    1  <O>11      -0.0590
  15 C11      12.3649     7.3104     6.3339  C.ar    1  <O>11      -0.0262
  16 C12      11.5925     7.3534     5.1719  C.ar    1  <O>11       0.1266
  17 F1       10.2324     7.5211     5.2400  F       1  <O>11      -0.2052
  18 C13       9.2100     2.5349    -1.8162  C.ar    1  <O>11       0.0108
  19 C14      10.4688     2.9255    -2.3277  C.ar    1  <O>11      -0.0521
  20 C15      11.1965     2.0826    -3.1684  C.ar    1  <O>11      -0.0611
  21 C16      10.6797     0.8410    -3.5204  C.ar    1  <O>11      -0.0610
  22 C17       9.4353     0.4418    -3.0314  C.ar    1  <O>11      -0.0487
  23 C18       8.6875     1.2787    -2.1714  C.ar    1  <O>11       0.0498
  24 C19       7.4213     0.9528    -1.6663  C.ar    1  <O>11       0.2748
  25 O2        6.8651    -0.2620    -2.1105  O.2     1  <O>11      -0.2656
  26 H1        5.2515     0.2914    -0.6239  H       1  <O>11       0.0474
  27 H2        4.6926     1.9775    -0.5096  H       1  <O>11       0.0474
  28 H3        5.5714     1.2371     0.8498  H       1  <O>11       0.0474
  29 H4        7.9533     5.3396    -0.4982  H       1  <O>11       0.0423
  30 H5        9.4286     5.1270    -1.4721  H       1  <O>11       0.0423
  31 H6        9.9750     6.7436     0.6306  H       1  <O>11       0.1487
  32 H7       11.8394     5.2113     2.1679  H       1  <O>11       0.0465
  33 H8       10.3631     5.4237     3.1404  H       1  <O>11       0.0465
  34 H9       10.5108     7.8697     2.8296  H       1  <O>11       0.0329
  35 H10      11.9860     7.6577     1.8584  H       1  <O>11       0.0329
  36 H11      14.0646     6.9747     2.9261  H       1  <O>11       0.0621
  37 H12      15.3919     6.9059     4.9562  H       1  <O>11       0.0618
  38 H13      14.3178     7.1183     7.1258  H       1  <O>11       0.0618
  39 H14      11.9076     7.3997     7.2549  H       1  <O>11       0.0646
  40 H15      10.8555     3.8484    -2.0753  H       1  <O>11       0.0624
  41 H16      12.1168     2.3803    -3.5283  H       1  <O>11       0.0618
  42 H17      11.2155     0.2156    -4.1423  H       1  <O>11       0.0618
  43 H18       9.0548    -0.4786    -3.3016  H       1  <O>11       0.0625
@<TRIPOS>BOND
     1     1     2    1
     2     2     3   ar
     3     3     4   ar
     4     4     5    1
     5     5     6    1
     6     6     7    2
     7     6     8   am
     8     8     9    1
     9     9    10    1
    10    10    11    1
    11    11    12   ar
    12    12    13   ar
    13    13    14   ar
    14    14    15   ar
    15    15    16   ar
    16    11    16   ar
    17    16    17    1
    18     4    18   ar
    19    18    19   ar
    20    19    20   ar
    21    20    21   ar
    22    21    22   ar
    23    22    23   ar
    24    18    23   ar
    25    23    24   ar
    26     2    24   ar
    27    24    25    2
    28     1    26    1
    29     1    27    1
    30     1    28    1
    31     5    29    1
    32     5    30    1
    33     8    31    1
    34     9    32    1
    35     9    33    1
    36    10    34    1
    37    10    35    1
    38    12    36    1
    39    13    37    1
    40    14    38    1
    41    15    39    1
    42    19    40    1
    43    20    41    1
    44    21    42    1
    45    22    43    1
@<TRIPOS>MOLECULE
mol17_1_2
 43 45 0 0 0
SMALL
USER_CHARGES
****
VDW energy = -61.68
@<TRIPOS>ATOM
   1 C1        5.4866     1.2825    -0.2360  C.3     1  <O>11       0.0340
   2 N1        6.7347     1.7343    -0.7968  N.ar    1  <O>11      -0.2318
   3 N2        7.2340     2.9457    -0.4598  N.ar    1  <O>11      -0.1724
   4 C2        8.4134     3.3437    -0.9933  C.ar    1  <O>11       0.0783
   5 C3        8.8350     4.7170    -0.6550  C.3     1  <O>11       0.0685
   6 C4        9.6535     4.6934     0.5922  C.2     1  <O>11       0.2189
   7 O1        9.8731     3.6325     1.1581  O.2     1  <O>11      -0.2754
   8 N3       10.1581     5.8592     1.1034  N.am    1  <O>11      -0.3147
   9 C5       10.9587     5.8339     2.3248  C.3     1  <O>11       0.0157
  10 C6       11.3934     7.2482     2.6746  C.3     1  <O>11      -0.0093
  11 C7       12.2070     7.2212     3.9160  C.ar    1  <O>11      -0.0107
  12 C8       11.7893     7.9376     5.0528  C.ar    1  <O>11      -0.0558
  13 C9       12.5621     7.9224     6.2183  C.ar    1  <O>11      -0.0613
  14 C10      13.7523     7.1932     6.2640  C.ar    1  <O>11      -0.0590
  15 C11      14.1657     6.4761     5.1357  C.ar    1  <O>11      -0.0262
  16 C12      13.3997     6.4816     3.9687  C.ar    1  <O>11       0.1266
  17 F1       13.7996     5.7724     2.8642  F       1  <O>11      -0.2052
  18 C13       9.2100     2.5349    -1.8162  C.ar    1  <O>11       0.0108
  19 C14      10.4688     2.9255    -2.3277  C.ar    1  <O>11      -0.0521
  20 C15      11.1965     2.0826    -3.1684  C.ar    1  <O>11      -0.0611
  21 C16      10.6797     0.8410    -3.5204  C.ar    1  <O>11      -0.0610
  22 C17       9.4353     0.4418    -3.0314  C.ar    1  <O>11      -0.0487
  23 C18       8.6875     1.2787    -2.1714  C.ar    1  <O>11       0.0498
  24 C19       7.4213     0.9528    -1.6663  C.ar    1  <O>11       0.2748
  25 O2        6.8651    -0.2620    -2.1105  O.2     1  <O>11      -0.2656
  26 H1        5.2515     0.2914    -0.6239  H       1  <O>11       0.0474
  27 H2        4.6926     1.9775    -0.5096  H       1  <O>11       0.0474
  28 H3        5.5714     1.2371     0.8498  H       1  <O>11       0.0474
  29 H4        7.9533     5.3396    -0.4982  H       1  <O>11       0.0423
  30 H5        9.4286     5.1270    -1.4721  H       1  <O>11       0.0423
  31 H6        9.9750     6.7436     0.6306  H       1  <O>11       0.1487
  32 H7       11.8394     5.2113     2.1679  H       1  <O>11       0.0465
  33 H8       10.3631     5.4237     3.1404  H       1  <O>11       0.0465
  34 H9       10.5108     7.8697     2.8296  H       1  <O>11       0.0329
  35 H10      11.9860     7.6577     1.8584  H       1  <O>11       0.0329
  36 H11      10.9094     8.4761     5.0264  H       1  <O>11       0.0621
  37 H12      12.2517     8.4521     7.0478  H       1  <O>11       0.0618
  38 H13      14.3229     7.1833     7.1239  H       1  <O>11       0.0618
  39 H14      15.0456     5.9377     5.1666  H       1  <O>11       0.0646
  40 H15      10.8555     3.8484    -2.0753  H       1  <O>11       0.0624
  41 H16      12.1168     2.3803    -3.5283  H       1  <O>11       0.0618
  42 H17      11.2155     0.2156    -4.1423  H       1  <O>11       0.0618
  43 H18       9.0548    -0.4786    -3.3016  H       1  <O>11       0.0625
@<TRIPOS>BOND
     1     1     2    1
     2     2     3   ar
     3     3     4   ar
     4     4     5    1
     5     5     6    1
     6     6     7    2
     7     6     8   am
     8     8     9    1
     9     9    10    1
    10    10    11    1
    11    11    12   ar
    12    12    13   ar
    13    13    14   ar
    14    14    15   ar
    15    15    16   ar
    16    11    16   ar
    17    16    17    1
    18     4    18   ar
    19    18    19   ar
    20    19    20   ar
    21    20    21   ar
    22    21    22   ar
    23    22    23   ar
    24    18    23   ar
    25    23    24   ar
    26     2    24   ar
    27    24    25    2
    28     1    26    1
    29     1    27    1
    30     1    28    1
    31     5    29    1
    32     5    30    1
    33     8    31    1
    34     9    32    1
    35     9    33    1
    36    10    34    1
    37    10    35    1
    38    12    36    1
    39    13    37    1
    40    14    38    1
    41    15    39    1
    42    19    40    1
    43    20    41    1
    44    21    42    1
    45    22    43    1
@<TRIPOS>MOLECULE
mol17_1_3
 43 45 0 0 0
SMALL
USER_CHARGES
****
VDW energy = -58.68
@<TRIPOS>ATOM
   1 C1        5.4866     1.2825    -0.2360  C.3     1  <O>11       0.0340
   2 N1        6.7347     1.7343    -0.7968  N.ar    1  <O>11      -0.2318
   3 N2        7.2340     2.9457    -0.4598  N.ar    1  <O>11      -0.1724
   4 C2        8.4134     3.3437    -0.9933  C.ar    1  <O>11       0.0783
   5 C3        8.8350     4.7170    -0.6550  C.3     1  <O>11       0.0685
   6 C4        8.9745     5.5174    -1.9064  C.2     1  <O>11       0.2189
   7 O1        8.7455     5.0006    -2.9901  O.2     1  <O>11      -0.2754
   8 N3        9.3593     6.8299    -1.8416  N.am    1  <O>11      -0.3147
   9 C5        9.4957     7.6115    -3.0680  C.3     1  <O>11       0.0157
  10 C6        9.9303     9.0265    -2.7208  C.3     1  <O>11      -0.0093
  11 C7       10.0686     9.8198    -3.9678  C.ar    1  <O>11      -0.0107
  12 C8        8.9699    10.5357    -4.4779  C.ar    1  <O>11      -0.0558
  13 C9        9.0966    11.2730    -5.6595  C.ar    1  <O>11      -0.0613
  14 C10      10.3155    11.3075    -6.3402  C.ar    1  <O>11      -0.0590
  15 C11      11.4103    10.6001    -5.8307  C.ar    1  <O>11      -0.0262
  16 C12      11.2954     9.8642    -4.6501  C.ar    1  <O>11       0.1266
  17 F1       12.3701     9.1768    -4.1450  F       1  <O>11      -0.2052
  18 C13       9.2100     2.5349    -1.8162  C.ar    1  <O>11       0.0108
  19 C14      10.4688     2.9255    -2.3277  C.ar    1  <O>11      -0.0521
  20 C15      11.1965     2.0826    -3.1684  C.ar    1  <O>11      -0.0611
  21 C16      10.6797     0.8410    -3.5204  C.ar    1  <O>11      -0.0610
  22 C17       9.4353     0.4418    -3.0314  C.ar    1  <O>11      -0.0487
  23 C18       8.6875     1.2787    -2.1714  C.ar    1  <O>11       0.0498
  24 C19       7.4213     0.9528    -1.6663  C.ar    1  <O>11       0.2748
  25 O2        6.8651    -0.2620    -2.1105  O.2     1  <O>11      -0.2656
  26 H1        5.2515     0.2914    -0.6239  H       1  <O>11       0.0474
  27 H2        4.6926     1.9775    -0.5096  H       1  <O>11       0.0474
  28 H3        5.5714     1.2371     0.8498  H       1  <O>11       0.0474
  29 H4        9.7939     4.6854    -0.1362  H       1  <O>11       0.0423
  30 H5        8.0877     5.1783    -0.0094  H       1  <O>11       0.0423
  31 H6        9.5495     7.2604    -0.9373  H       1  <O>11       0.1487
  32 H7        8.5375     7.6425    -3.5863  H       1  <O>11       0.0465
  33 H8       10.2434     7.1484    -3.7119  H       1  <O>11       0.0465
  34 H9       10.8884     8.9929    -2.2009  H       1  <O>11       0.0329
  35 H10       9.1841     9.4871    -2.0757  H       1  <O>11       0.0329
  36 H11       8.0671    10.5167    -3.9782  H       1  <O>11       0.0621
  37 H12       8.2862    11.7937    -6.0299  H       1  <O>11       0.0618
  38 H13      10.4083    11.8507    -7.2127  H       1  <O>11       0.0618
  39 H14      12.3117    10.6228    -6.3328  H       1  <O>11       0.0646
  40 H15      10.8555     3.8484    -2.0753  H       1  <O>11       0.0624
  41 H16      12.1168     2.3803    -3.5283  H       1  <O>11       0.0618
  42 H17      11.2155     0.2156    -4.1423  H       1  <O>11       0.0618
  43 H18       9.0548    -0.4786    -3.3016  H       1  <O>11       0.0625
@<TRIPOS>BOND
     1     1     2    1
     2     2     3   ar
     3     3     4   ar
     4     4     5    1
     5     5     6    1
     6     6     7    2
     7     6     8   am
     8     8     9    1
     9     9    10    1
    10    10    11    1
    11    11    12   ar
    12    12    13   ar
    13    13    14   ar
    14    14    15   ar
    15    15    16   ar
    16    11    16   ar
    17    16    17    1
    18     4    18   ar
    19    18    19   ar
    20    19    20   ar
    21    20    21   ar
    22    21    22   ar
    23    22    23   ar
    24    18    23   ar
    25    23    24   ar
    26     2    24   ar
    27    24    25    2
    28     1    26    1
    29     1    27    1
    30     1    28    1
    31     5    29    1
    32     5    30    1
    33     8    31    1
    34     9    32    1
    35     9    33    1
    36    10    34    1
    37    10    35    1
    38    12    36    1
    39    13    37    1
    40    14    38    1
    41    15    39    1
    42    19    40    1
    43    20    41    1
    44    21    42    1
    45    22    43    1
@<TRIPOS>MOLECULE
mol17_1_4
 43 45 0 0 0
SMALL
USER_CHARGES
****
VDW energy = -56.58
@<TRIPOS>ATOM
   1 C1        5.4866     1.2825    -0.2360  C.3     1  <O>11       0.0340
   2 N1        6.7347     1.7343    -0.7968  N.ar    1  <O>11      -0.2318
   3 N2        7.2340     2.9457    -0.4598  N.ar    1  <O>11      -0.1724
   4 C2        8.4134     3.3437    -0.9933  C.ar    1  <O>11       0.0783
   5 C3        8.8350     4.7170    -0.6550  C.3     1  <O>11       0.0685
   6 C4       10.1458     4.6743     0.0562  C.2     1  <O>11       0.2189
   7 O1       10.6906     3.6008     0.2682  O.2     1  <O>11      -0.2754
   8 N3       10.7386     5.8365     0.4720  N.am    1  <O>11      -0.3147
   9 C5       12.0217     5.7924     1.1686  C.3     1  <O>11       0.0157
  10 C6       12.4570     7.2066     1.5180  C.3     1  <O>11      -0.0093
  11 C7       13.7610     7.1605     2.2258  C.ar    1  <O>11      -0.0107
  12 C8       14.9644     7.2230     1.4992  C.ar    1  <O>11      -0.0558
  13 C9       16.1930     7.1670     2.1650  C.ar    1  <O>11      -0.0613
  14 C10      16.2350     7.0523     3.5562  C.ar    1  <O>11      -0.0590
  15 C11      15.0386     6.9956     4.2800  C.ar    1  <O>11      -0.0262
  16 C12      13.8071     7.0545     3.6254  C.ar    1  <O>11       0.1266
  17 F1       12.6333     7.0071     4.3345  F       1  <O>11      -0.2052
  18 C13       9.2100     2.5349    -1.8162  C.ar    1  <O>11       0.0108
  19 C14      10.4688     2.9255    -2.3277  C.ar    1  <O>11      -0.0521
  20 C15      11.1965     2.0826    -3.1684  C.ar    1  <O>11      -0.0611
  21 C16      10.6797     0.8410    -3.5204  C.ar    1  <O>11      -0.0610
  22 C17       9.4353     0.4418    -3.0314  C.ar    1  <O>11      -0.0487
  23 C18       8.6875     1.2787    -2.1714  C.ar    1  <O>11       0.0498
  24 C19       7.4213     0.9528    -1.6663  C.ar    1  <O>11       0.2748
  25 O2        6.8651    -0.2620    -2.1105  O.2     1  <O>11      -0.2656
  26 H1        5.2515     0.2914    -0.6239  H       1  <O>11       0.0474
  27 H2        4.6926     1.9775    -0.5096  H       1  <O>11       0.0474
  28 H3        5.5714     1.2371     0.8498  H       1  <O>11       0.0474
  29 H4        8.0870     5.1781    -0.0089  H       1  <O>11       0.0423
  30 H5        8.9359     5.3022    -1.5691  H       1  <O>11       0.0423
  31 H6       10.2840     6.7315     0.2944  H       1  <O>11       0.1487
  32 H7       12.7688     5.3312     0.5229  H       1  <O>11       0.0465
  33 H8       11.9184     5.2069     2.0822  H       1  <O>11       0.0465
  34 H9       11.7073     7.6666     2.1627  H       1  <O>11       0.0329
  35 H10      12.5574     7.7911     0.6050  H       1  <O>11       0.0329
  36 H11      14.9403     7.3105     0.4713  H       1  <O>11       0.0621
  37 H12      17.0721     7.2105     1.6261  H       1  <O>11       0.0618
  38 H13      17.1418     7.0097     4.0469  H       1  <O>11       0.0618
  39 H14      15.0672     6.9093     5.3080  H       1  <O>11       0.0646
  40 H15      10.8555     3.8484    -2.0753  H       1  <O>11       0.0624
  41 H16      12.1168     2.3803    -3.5283  H       1  <O>11       0.0618
  42 H17      11.2155     0.2156    -4.1423  H       1  <O>11       0.0618
  43 H18       9.0548    -0.4786    -3.3016  H       1  <O>11       0.0625
@<TRIPOS>BOND
     1     1     2    1
     2     2     3   ar
     3     3     4   ar
     4     4     5    1
     5     5     6    1
     6     6     7    2
     7     6     8   am
     8     8     9    1
     9     9    10    1
    10    10    11    1
    11    11    12   ar
    12    12    13   ar
    13    13    14   ar
    14    14    15   ar
    15    15    16   ar
    16    11    16   ar
    17    16    17    1
    18     4    18   ar
    19    18    19   ar
    20    19    20   ar
    21    20    21   ar
    22    21    22   ar
    23    22    23   ar
    24    18    23   ar
    25    23    24   ar
    26     2    24   ar
    27    24    25    2
    28     1    26    1
    29     1    27    1
    30     1    28    1
    31     5    29    1
    32     5    30    1
    33     8    31    1
    34     9    32    1
    35     9    33    1
    36    10    34    1
    37    10    35    1
    38    12    36    1
    39    13    37    1
    40    14    38    1
    41    15    39    1
    42    19    40    1
    43    20    41    1
    44    21    42    1
    45    22    43    1
@<TRIPOS>MOLECULE
mol17_1_5
 43 45 0 0 0
SMALL
USER_CHARGES
****
VDW energy = -56.53
@<TRIPOS>ATOM
   1 C1        5.4866     1.2825    -0.2360  C.3     1  <O>11       0.0340
   2 N1        6.7347     1.7343    -0.7968  N.ar    1  <O>11      -0.2318
   3 N2        7.2340     2.9457    -0.4598  N.ar    1  <O>11      -0.1724
   4 C2        8.4134     3.3437    -0.9933  C.ar    1  <O>11       0.0783
   5 C3        8.8350     4.7170    -0.6550  C.3     1  <O>11       0.0685
   6 C4       10.1458     4.6743     0.0562  C.2     1  <O>11       0.2189
   7 O1       10.6906     3.6008     0.2682  O.2     1  <O>11      -0.2754
   8 N3       10.7386     5.8365     0.4720  N.am    1  <O>11      -0.3147
   9 C5       12.0217     5.7924     1.1686  C.3     1  <O>11       0.0157
  10 C6       12.4570     7.2066     1.5180  C.3     1  <O>11      -0.0093
  11 C7       13.7610     7.1605     2.2258  C.ar    1  <O>11      -0.0107
  12 C8       13.8029     7.0540     3.6282  C.ar    1  <O>11      -0.0558
  13 C9       15.0312     7.0232     4.2961  C.ar    1  <O>11      -0.0613
  14 C10      16.2257     7.0942     3.5760  C.ar    1  <O>11      -0.0590
  15 C11      16.1851     7.1946     2.1808  C.ar    1  <O>11      -0.0262
  16 C12      14.9644     7.2223     1.5043  C.ar    1  <O>11       0.1266
  17 F1       14.9231     7.3127     0.1358  F       1  <O>11      -0.2052
  18 C13       9.2100     2.5349    -1.8162  C.ar    1  <O>11       0.0108
  19 C14      10.4688     2.9255    -2.3277  C.ar    1  <O>11      -0.0521
  20 C15      11.1965     2.0826    -3.1684  C.ar    1  <O>11      -0.0611
  21 C16      10.6797     0.8410    -3.5204  C.ar    1  <O>11      -0.0610
  22 C17       9.4353     0.4418    -3.0314  C.ar    1  <O>11      -0.0487
  23 C18       8.6875     1.2787    -2.1714  C.ar    1  <O>11       0.0498
  24 C19       7.4213     0.9528    -1.6663  C.ar    1  <O>11       0.2748
  25 O2        6.8651    -0.2620    -2.1105  O.2     1  <O>11      -0.2656
  26 H1        5.2515     0.2914    -0.6239  H       1  <O>11       0.0474
  27 H2        4.6926     1.9775    -0.5096  H       1  <O>11       0.0474
  28 H3        5.5714     1.2371     0.8498  H       1  <O>11       0.0474
  29 H4        8.0870     5.1781    -0.0089  H       1  <O>11       0.0423
  30 H5        8.9359     5.3022    -1.5691  H       1  <O>11       0.0423
  31 H6       10.2840     6.7315     0.2944  H       1  <O>11       0.1487
  32 H7       12.7688     5.3312     0.5229  H       1  <O>11       0.0465
  33 H8       11.9184     5.2069     2.0822  H       1  <O>11       0.0465
  34 H9       11.7073     7.6666     2.1627  H       1  <O>11       0.0329
  35 H10      12.5574     7.7911     0.6050  H       1  <O>11       0.0329
  36 H11      12.9238     6.9984     4.1660  H       1  <O>11       0.0621
  37 H12      15.0550     6.9478     5.3250  H       1  <O>11       0.0618
  38 H13      17.1319     7.0727     4.0693  H       1  <O>11       0.0618
  39 H14      17.0665     7.2488     1.6466  H       1  <O>11       0.0646
  40 H15      10.8555     3.8484    -2.0753  H       1  <O>11       0.0624
  41 H16      12.1168     2.3803    -3.5283  H       1  <O>11       0.0618
  42 H17      11.2155     0.2156    -4.1423  H       1  <O>11       0.0618
  43 H18       9.0548    -0.4786    -3.3016  H       1  <O>11       0.0625
@<TRIPOS>BOND
     1     1     2    1
     2     2     3   ar
     3     3     4   ar
     4     4     5    1
     5     5     6    1
     6     6     7    2
     7     6     8   am
     8     8     9    1
     9     9    10    1
    10    10    11    1
    11    11    12   ar
    12    12    13   ar
    13    13    14   ar
    14    14    15   ar
    15    15    16   ar
    16    11    16   ar
    17    16    17    1
    18     4    18   ar
    19    18    19   ar
    20    19    20   ar
    21    20    21   ar
    22    21    22   ar
    23    22    23   ar
    24    18    23   ar
    25    23    24   ar
    26     2    24   ar
    27    24    25    2
    28     1    26    1
    29     1    27    1
    30     1    28    1
    31     5    29    1
    32     5    30    1
    33     8    31    1
    34     9    32    1
    35     9    33    1
    36    10    34    1
    37    10    35    1
    38    12    36    1
    39    13    37    1
    40    14    38    1
    41    15    39    1
    42    19    40    1
    43    20    41    1
    44    21    42    1
    45    22    43    1
@<TRIPOS>MOLECULE
mol17_1_6
 43 45 0 0 0
SMALL
USER_CHARGES
****
VDW energy = -56.04
@<TRIPOS>ATOM
   1 C1        5.4866     1.2825    -0.2360  C.3     1  <O>11       0.0340
   2 N1        6.7347     1.7343    -0.7968  N.ar    1  <O>11      -0.2318
   3 N2        7.2340     2.9457    -0.4598  N.ar    1  <O>11      -0.1724
   4 C2        8.4134     3.3437    -0.9933  C.ar    1  <O>11       0.0783
   5 C3        8.8350     4.7170    -0.6550  C.3     1  <O>11       0.0685
   6 C4       10.1458     4.6743     0.0562  C.2     1  <O>11       0.2189
   7 O1       10.6906     3.6008     0.2682  O.2     1  <O>11      -0.2754
   8 N3       10.7386     5.8365     0.4720  N.am    1  <O>11      -0.3147
   9 C5       10.0868     7.1190     0.2190  C.3     1  <O>11       0.0157
  10 C6       10.9458     8.2423     0.7774  C.3     1  <O>11      -0.0093
  11 C7       10.2825     9.5450     0.5197  C.ar    1  <O>11      -0.0107
  12 C8       10.5463    10.2521    -0.6679  C.ar    1  <O>11      -0.0558
  13 C9        9.9310    11.4853    -0.9051  C.ar    1  <O>11      -0.0613
  14 C10       9.0473    12.0229     0.0332  C.ar    1  <O>11      -0.0590
  15 C11       8.7802    11.3179     1.2122  C.ar    1  <O>11      -0.0262
  16 C12       9.3861    10.0844     1.4568  C.ar    1  <O>11       0.1266
  17 F1        9.1190     9.3882     2.6086  F       1  <O>11      -0.2052
  18 C13       9.2100     2.5349    -1.8162  C.ar    1  <O>11       0.0108
  19 C14      10.4688     2.9255    -2.3277  C.ar    1  <O>11      -0.0521
  20 C15      11.1965     2.0826    -3.1684  C.ar    1  <O>11      -0.0611
  21 C16      10.6797     0.8410    -3.5204  C.ar    1  <O>11      -0.0610
  22 C17       9.4353     0.4418    -3.0314  C.ar    1  <O>11      -0.0487
  23 C18       8.6875     1.2787    -2.1714  C.ar    1  <O>11       0.0498
  24 C19       7.4213     0.9528    -1.6663  C.ar    1  <O>11       0.2748
  25 O2        6.8651    -0.2620    -2.1105  O.2     1  <O>11      -0.2656
  26 H1        5.2515     0.2914    -0.6239  H       1  <O>11       0.0474
  27 H2        4.6926     1.9775    -0.5096  H       1  <O>11       0.0474
  28 H3        5.5714     1.2371     0.8498  H       1  <O>11       0.0474
  29 H4        8.0870     5.1781    -0.0089  H       1  <O>11       0.0423
  30 H5        8.9359     5.3022    -1.5691  H       1  <O>11       0.0423
  31 H6       11.6340     5.8054     0.9584  H       1  <O>11       0.1487
  32 H7        9.1112     7.1317     0.7047  H       1  <O>11       0.0465
  33 H8        9.9610     7.2561    -0.8550  H       1  <O>11       0.0465
  34 H9       11.9219     8.2267     0.2913  H       1  <O>11       0.0329
  35 H10      11.0729     8.1029     1.8496  H       1  <O>11       0.0329
  36 H11      11.1962     9.8590    -1.3666  H       1  <O>11       0.0621
  37 H12      10.1309    12.0002    -1.7769  H       1  <O>11       0.0618
  38 H13       8.5945    12.9336    -0.1417  H       1  <O>11       0.0618
  39 H14       8.1286    11.7139     1.9077  H       1  <O>11       0.0646
  40 H15      10.8555     3.8484    -2.0753  H       1  <O>11       0.0624
  41 H16      12.1168     2.3803    -3.5283  H       1  <O>11       0.0618
  42 H17      11.2155     0.2156    -4.1423  H       1  <O>11       0.0618
  43 H18       9.0548    -0.4786    -3.3016  H       1  <O>11       0.0625
@<TRIPOS>BOND
     1     1     2    1
     2     2     3   ar
     3     3     4   ar
     4     4     5    1
     5     5     6    1
     6     6     7    2
     7     6     8   am
     8     8     9    1
     9     9    10    1
    10    10    11    1
    11    11    12   ar
    12    12    13   ar
    13    13    14   ar
    14    14    15   ar
    15    15    16   ar
    16    11    16   ar
    17    16    17    1
    18     4    18   ar
    19    18    19   ar
    20    19    20   ar
    21    20    21   ar
    22    21    22   ar
    23    22    23   ar
    24    18    23   ar
    25    23    24   ar
    26     2    24   ar
    27    24    25    2
    28     1    26    1
    29     1    27    1
    30     1    28    1
    31     5    29    1
    32     5    30    1
    33     8    31    1
    34     9    32    1
    35     9    33    1
    36    10    34    1
    37    10    35    1
    38    12    36    1
    39    13    37    1
    40    14    38    1
    41    15    39    1
    42    19    40    1
    43    20    41    1
    44    21    42    1
    45    22    43    1
@<TRIPOS>MOLECULE
mol17_1_7
 43 45 0 0 0
SMALL
USER_CHARGES
****
VDW energy = -55.70
@<TRIPOS>ATOM
   1 C1        5.4866     1.2825    -0.2360  C.3     1  <O>11       0.0340
   2 N1        6.7347     1.7343    -0.7968  N.ar    1  <O>11      -0.2318
   3 N2        7.2340     2.9457    -0.4598  N.ar    1  <O>11      -0.1724
   4 C2        8.4134     3.3437    -0.9933  C.ar    1  <O>11       0.0783
   5 C3        8.8350     4.7170    -0.6550  C.3     1  <O>11       0.0685
   6 C4        9.6535     4.6934     0.5922  C.2     1  <O>11       0.2189
   7 O1        9.8731     3.6325     1.1581  O.2     1  <O>11      -0.2754
   8 N3       10.1581     5.8592     1.1034  N.am    1  <O>11      -0.3147
   9 C5       10.9587     5.8339     2.3248  C.3     1  <O>11       0.0157
  10 C6       11.3934     7.2482     2.6746  C.3     1  <O>11      -0.0093
  11 C7       12.2070     7.2212     3.9160  C.ar    1  <O>11      -0.0107
  12 C8       12.4618     6.0017     4.5701  C.ar    1  <O>11      -0.0558
  13 C9       13.2177     5.9777     5.7464  C.ar    1  <O>11      -0.0613
  14 C10      13.7285     7.1634     6.2790  C.ar    1  <O>11      -0.0590
  15 C11      13.4802     8.3761     5.6262  C.ar    1  <O>11      -0.0262
  16 C12      12.7301     8.4105     4.4494  C.ar    1  <O>11       0.1266
  17 F1       12.4925     9.5977     3.8039  F       1  <O>11      -0.2052
  18 C13       9.2100     2.5349    -1.8162  C.ar    1  <O>11       0.0108
  19 C14      10.4688     2.9255    -2.3277  C.ar    1  <O>11      -0.0521
  20 C15      11.1965     2.0826    -3.1684  C.ar    1  <O>11      -0.0611
  21 C16      10.6797     0.8410    -3.5204  C.ar    1  <O>11      -0.0610
  22 C17       9.4353     0.4418    -3.0314  C.ar    1  <O>11      -0.0487
  23 C18       8.6875     1.2787    -2.1714  C.ar    1  <O>11       0.0498
  24 C19       7.4213     0.9528    -1.6663  C.ar    1  <O>11       0.2748
  25 O2        6.8651    -0.2620    -2.1105  O.2     1  <O>11      -0.2656
  26 H1        5.2515     0.2914    -0.6239  H       1  <O>11       0.0474
  27 H2        4.6926     1.9775    -0.5096  H       1  <O>11       0.0474
  28 H3        5.5714     1.2371     0.8498  H       1  <O>11       0.0474
  29 H4        7.9533     5.3396    -0.4982  H       1  <O>11       0.0423
  30 H5        9.4286     5.1270    -1.4721  H       1  <O>11       0.0423
  31 H6        9.9750     6.7436     0.6306  H       1  <O>11       0.1487
  32 H7       11.8394     5.2113     2.1679  H       1  <O>11       0.0465
  33 H8       10.3631     5.4237     3.1404  H       1  <O>11       0.0465
  34 H9       10.5108     7.8697     2.8296  H       1  <O>11       0.0329
  35 H10      11.9860     7.6577     1.8584  H       1  <O>11       0.0329
  36 H11      12.0895     5.1217     4.1802  H       1  <O>11       0.0621
  37 H12      13.3987     5.0804     6.2229  H       1  <O>11       0.0618
  38 H13      14.2852     7.1454     7.1477  H       1  <O>11       0.0618
  39 H14      13.8553     9.2538     6.0187  H       1  <O>11       0.0646
  40 H15      10.8555     3.8484    -2.0753  H       1  <O>11       0.0624
  41 H16      12.1168     2.3803    -3.5283  H       1  <O>11       0.0618
  42 H17      11.2155     0.2156    -4.1423  H       1  <O>11       0.0618
  43 H18       9.0548    -0.4786    -3.3016  H       1  <O>11       0.0625
@<TRIPOS>BOND
     1     1     2    1
     2     2     3   ar
     3     3     4   ar
     4     4     5    1
     5     5     6    1
     6     6     7    2
     7     6     8   am
     8     8     9    1
     9     9    10    1
    10    10    11    1
    11    11    12   ar
    12    12    13   ar
    13    13    14   ar
    14    14    15   ar
    15    15    16   ar
    16    11    16   ar
    17    16    17    1
    18     4    18   ar
    19    18    19   ar
    20    19    20   ar
    21    20    21   ar
    22    21    22   ar
    23    22    23   ar
    24    18    23   ar
    25    23    24   ar
    26     2    24   ar
    27    24    25    2
    28     1    26    1
    29     1    27    1
    30     1    28    1
    31     5    29    1
    32     5    30    1
    33     8    31    1
    34     9    32    1
    35     9    33    1
    36    10    34    1
    37    10    35    1
    38    12    36    1
    39    13    37    1
    40    14    38    1
    41    15    39    1
    42    19    40    1
    43    20    41    1
    44    21    42    1
    45    22    43    1
@<TRIPOS>MOLECULE
mol17_1_8
 43 45 0 0 0
SMALL
USER_CHARGES
****
VDW energy = -54.41
@<TRIPOS>ATOM
   1 C1        5.4866     1.2825    -0.2360  C.3     1  <O>11       0.0340
   2 N1        6.7347     1.7343    -0.7968  N.ar    1  <O>11      -0.2318
   3 N2        7.2340     2.9457    -0.4598  N.ar    1  <O>11      -0.1724
   4 C2        8.4134     3.3437    -0.9933  C.ar    1  <O>11       0.0783
   5 C3        8.8350     4.7170    -0.6550  C.3     1  <O>11       0.0685
   6 C4       10.1458     4.6743     0.0562  C.2     1  <O>11       0.2189
   7 O1       10.6906     3.6008     0.2682  O.2     1  <O>11      -0.2754
   8 N3       10.7386     5.8365     0.4720  N.am    1  <O>11      -0.3147
   9 C5       12.0217     5.7924     1.1686  C.3     1  <O>11       0.0157
  10 C6       12.4570     7.2066     1.5180  C.3     1  <O>11      -0.0093
  11 C7       13.7610     7.1605     2.2258  C.ar    1  <O>11      -0.0107
  12 C8       14.8830     7.8177     1.6880  C.ar    1  <O>11      -0.0558
  13 C9       16.1146     7.7639     2.3483  C.ar    1  <O>11      -0.0613
  14 C10      16.2395     7.0606     3.5484  C.ar    1  <O>11      -0.0590
  15 C11      15.1229     6.4112     4.0868  C.ar    1  <O>11      -0.0262
  16 C12      13.8882     6.4620     3.4375  C.ar    1  <O>11       0.1266
  17 F1       12.7906     5.8325     3.9683  F       1  <O>11      -0.2052
  18 C13       9.2100     2.5349    -1.8162  C.ar    1  <O>11       0.0108
  19 C14      10.4688     2.9255    -2.3277  C.ar    1  <O>11      -0.0521
  20 C15      11.1965     2.0826    -3.1684  C.ar    1  <O>11      -0.0611
  21 C16      10.6797     0.8410    -3.5204  C.ar    1  <O>11      -0.0610
  22 C17       9.4353     0.4418    -3.0314  C.ar    1  <O>11      -0.0487
  23 C18       8.6875     1.2787    -2.1714  C.ar    1  <O>11       0.0498
  24 C19       7.4213     0.9528    -1.6663  C.ar    1  <O>11       0.2748
  25 O2        6.8651    -0.2620    -2.1105  O.2     1  <O>11      -0.2656
  26 H1        5.2515     0.2914    -0.6239  H       1  <O>11       0.0474
  27 H2        4.6926     1.9775    -0.5096  H       1  <O>11       0.0474
  28 H3        5.5714     1.2371     0.8498  H       1  <O>11       0.0474
  29 H4        8.0870     5.1781    -0.0089  H       1  <O>11       0.0423
  30 H5        8.9359     5.3022    -1.5691  H       1  <O>11       0.0423
  31 H6       10.2840     6.7315     0.2944  H       1  <O>11       0.1487
  32 H7       12.7688     5.3312     0.5229  H       1  <O>11       0.0465
  33 H8       11.9184     5.2069     2.0822  H       1  <O>11       0.0465
  34 H9       11.7073     7.6666     2.1627  H       1  <O>11       0.0329
  35 H10      12.5574     7.7911     0.6050  H       1  <O>11       0.0329
  36 H11      14.7967     8.3414     0.8030  H       1  <O>11       0.0621
  37 H12      16.9343     8.2457     1.9472  H       1  <O>11       0.0618
  38 H13      17.1488     7.0201     4.0347  H       1  <O>11       0.0618
  39 H14      15.2131     5.8896     4.9727  H       1  <O>11       0.0646
  40 H15      10.8555     3.8484    -2.0753  H       1  <O>11       0.0624
  41 H16      12.1168     2.3803    -3.5283  H       1  <O>11       0.0618
  42 H17      11.2155     0.2156    -4.1423  H       1  <O>11       0.0618
  43 H18       9.0548    -0.4786    -3.3016  H       1  <O>11       0.0625
@<TRIPOS>BOND
     1     1     2    1
     2     2     3   ar
     3     3     4   ar
     4     4     5    1
     5     5     6    1
     6     6     7    2
     7     6     8   am
     8     8     9    1
     9     9    10    1
    10    10    11    1
    11    11    12   ar
    12    12    13   ar
    13    13    14   ar
    14    14    15   ar
    15    15    16   ar
    16    11    16   ar
    17    16    17    1
    18     4    18   ar
    19    18    19   ar
    20    19    20   ar
    21    20    21   ar
    22    21    22   ar
    23    22    23   ar
    24    18    23   ar
    25    23    24   ar
    26     2    24   ar
    27    24    25    2
    28     1    26    1
    29     1    27    1
    30     1    28    1
    31     5    29    1
    32     5    30    1
    33     8    31    1
    34     9    32    1
    35     9    33    1
    36    10    34    1
    37    10    35    1
    38    12    36    1
    39    13    37    1
    40    14    38    1
    41    15    39    1
    42    19    40    1
    43    20    41    1
    44    21    42    1
    45    22    43    1
@<TRIPOS>MOLECULE
mol17_1_9
 43 45 0 0 0
SMALL
USER_CHARGES
****
VDW energy = -54.37
@<TRIPOS>ATOM
   1 C1        5.4866     1.2825    -0.2360  C.3     1  <O>11       0.0340
   2 N1        6.7347     1.7343    -0.7968  N.ar    1  <O>11      -0.2318
   3 N2        7.2340     2.9457    -0.4598  N.ar    1  <O>11      -0.1724
   4 C2        8.4134     3.3437    -0.9933  C.ar    1  <O>11       0.0783
   5 C3        8.8350     4.7170    -0.6550  C.3     1  <O>11       0.0685
   6 C4       10.1458     4.6743     0.0562  C.2     1  <O>11       0.2189
   7 O1       10.6906     3.6008     0.2682  O.2     1  <O>11      -0.2754
   8 N3       10.7386     5.8365     0.4720  N.am    1  <O>11      -0.3147
   9 C5       10.0868     7.1190     0.2190  C.3     1  <O>11       0.0157
  10 C6       10.9458     8.2423     0.7774  C.3     1  <O>11      -0.0093
  11 C7       10.2825     9.5450     0.5197  C.ar    1  <O>11      -0.0107
  12 C8       10.9283    10.5289    -0.2516  C.ar    1  <O>11      -0.0558
  13 C9       10.3088    11.7610    -0.4839  C.ar    1  <O>11      -0.0613
  14 C10       9.0429    12.0229     0.0446  C.ar    1  <O>11      -0.0590
  15 C11       8.3976    11.0430     0.8073  C.ar    1  <O>11      -0.0262
  16 C12       9.0056     9.8086     1.0419  C.ar    1  <O>11       0.1266
  17 F1        8.3707     8.8438     1.7827  F       1  <O>11      -0.2052
  18 C13       9.2100     2.5349    -1.8162  C.ar    1  <O>11       0.0108
  19 C14      10.4688     2.9255    -2.3277  C.ar    1  <O>11      -0.0521
  20 C15      11.1965     2.0826    -3.1684  C.ar    1  <O>11      -0.0611
  21 C16      10.6797     0.8410    -3.5204  C.ar    1  <O>11      -0.0610
  22 C17       9.4353     0.4418    -3.0314  C.ar    1  <O>11      -0.0487
  23 C18       8.6875     1.2787    -2.1714  C.ar    1  <O>11       0.0498
  24 C19       7.4213     0.9528    -1.6663  C.ar    1  <O>11       0.2748
  25 O2        6.8651    -0.2620    -2.1105  O.2     1  <O>11      -0.2656
  26 H1        5.2515     0.2914    -0.6239  H       1  <O>11       0.0474
  27 H2        4.6926     1.9775    -0.5096  H       1  <O>11       0.0474
  28 H3        5.5714     1.2371     0.8498  H       1  <O>11       0.0474
  29 H4        8.0870     5.1781    -0.0089  H       1  <O>11       0.0423
  30 H5        8.9359     5.3022    -1.5691  H       1  <O>11       0.0423
  31 H6       11.6340     5.8054     0.9584  H       1  <O>11       0.1487
  32 H7        9.1112     7.1317     0.7047  H       1  <O>11       0.0465
  33 H8        9.9610     7.2561    -0.8550  H       1  <O>11       0.0465
  34 H9       11.9219     8.2267     0.2913  H       1  <O>11       0.0329
  35 H10      11.0729     8.1029     1.8496  H       1  <O>11       0.0329
  36 H11      11.8626    10.3406    -0.6473  H       1  <O>11       0.0621
  37 H12      10.7889    12.4794    -1.0481  H       1  <O>11       0.0618
  38 H13       8.5867    12.9327    -0.1261  H       1  <O>11       0.0618
  39 H14       7.4627    11.2349     1.2002  H       1  <O>11       0.0646
  40 H15      10.8555     3.8484    -2.0753  H       1  <O>11       0.0624
  41 H16      12.1168     2.3803    -3.5283  H       1  <O>11       0.0618
  42 H17      11.2155     0.2156    -4.1423  H       1  <O>11       0.0618
  43 H18       9.0548    -0.4786    -3.3016  H       1  <O>11       0.0625
@<TRIPOS>BOND
     1     1     2    1
     2     2     3   ar
     3     3     4   ar
     4     4     5    1
     5     5     6    1
     6     6     7    2
     7     6     8   am
     8     8     9    1
     9     9    10    1
    10    10    11    1
    11    11    12   ar
    12    12    13   ar
    13    13    14   ar
    14    14    15   ar
    15    15    16   ar
    16    11    16   ar
    17    16    17    1
    18     4    18   ar
    19    18    19   ar
    20    19    20   ar
    21    20    21   ar
    22    21    22   ar
    23    22    23   ar
    24    18    23   ar
    25    23    24   ar
    26     2    24   ar
    27    24    25    2
    28     1    26    1
    29     1    27    1
    30     1    28    1
    31     5    29    1
    32     5    30    1
    33     8    31    1
    34     9    32    1
    35     9    33    1
    36    10    34    1
    37    10    35    1
    38    12    36    1
    39    13    37    1
    40    14    38    1
    41    15    39    1
    42    19    40    1
    43    20    41    1
    44    21    42    1
    45    22    43    1
@<TRIPOS>MOLECULE
mol17_1_10
 43 45 0 0 0
SMALL
USER_CHARGES
****
VDW energy = -54.25
@<TRIPOS>ATOM
   1 C1        5.4866     1.2825    -0.2360  C.3     1  <O>11       0.0340
   2 N1        6.7347     1.7343    -0.7968  N.ar    1  <O>11      -0.2318
   3 N2        7.2340     2.9457    -0.4598  N.ar    1  <O>11      -0.1724
   4 C2        8.4134     3.3437    -0.9933  C.ar    1  <O>11       0.0783
   5 C3        8.8350     4.7170    -0.6550  C.3     1  <O>11       0.0685
   6 C4       10.1458     4.6743     0.0562  C.2     1  <O>11       0.2189
   7 O1       10.6906     3.6008     0.2682  O.2     1  <O>11      -0.2754
   8 N3       10.7386     5.8365     0.4720  N.am    1  <O>11      -0.3147
   9 C5       12.0217     5.7924     1.1686  C.3     1  <O>11       0.0157
  10 C6       12.4570     7.2066     1.5180  C.3     1  <O>11      -0.0093
  11 C7       13.7610     7.1605     2.2258  C.ar    1  <O>11      -0.0107
  12 C8       13.8771     7.6714     3.5317  C.ar    1  <O>11      -0.0558
  13 C9       15.1084     7.6394     4.1939  C.ar    1  <O>11      -0.0613
  14 C10      16.2315     7.0968     3.5656  C.ar    1  <O>11      -0.0590
  15 C11      16.1158     6.5836     2.2688  C.ar    1  <O>11      -0.0262
  16 C12      14.8904     6.6073     1.6005  C.ar    1  <O>11       0.1266
  17 F1       14.7736     6.0972     0.3321  F       1  <O>11      -0.2052
  18 C13       9.2100     2.5349    -1.8162  C.ar    1  <O>11       0.0108
  19 C14      10.4688     2.9255    -2.3277  C.ar    1  <O>11      -0.0521
  20 C15      11.1965     2.0826    -3.1684  C.ar    1  <O>11      -0.0611
  21 C16      10.6797     0.8410    -3.5204  C.ar    1  <O>11      -0.0610
  22 C17       9.4353     0.4418    -3.0314  C.ar    1  <O>11      -0.0487
  23 C18       8.6875     1.2787    -2.1714  C.ar    1  <O>11       0.0498
  24 C19       7.4213     0.9528    -1.6663  C.ar    1  <O>11       0.2748
  25 O2        6.8651    -0.2620    -2.1105  O.2     1  <O>11      -0.2656
  26 H1        5.2515     0.2914    -0.6239  H       1  <O>11       0.0474
  27 H2        4.6926     1.9775    -0.5096  H       1  <O>11       0.0474
  28 H3        5.5714     1.2371     0.8498  H       1  <O>11       0.0474
  29 H4        8.0870     5.1781    -0.0089  H       1  <O>11       0.0423
  30 H5        8.9359     5.3022    -1.5691  H       1  <O>11       0.0423
  31 H6       10.2840     6.7315     0.2944  H       1  <O>11       0.1487
  32 H7       12.7688     5.3312     0.5229  H       1  <O>11       0.0465
  33 H8       11.9184     5.2069     2.0822  H       1  <O>11       0.0465
  34 H9       11.7073     7.6666     2.1627  H       1  <O>11       0.0329
  35 H10      12.5574     7.7911     0.6050  H       1  <O>11       0.0329
  36 H11      13.0504     8.0711     4.0027  H       1  <O>11       0.0621
  37 H12      15.1875     8.0182     5.1506  H       1  <O>11       0.0618
  38 H13      17.1402     7.0746     4.0541  H       1  <O>11       0.0618
  39 H14      16.9446     6.1836     1.8018  H       1  <O>11       0.0646
  40 H15      10.8555     3.8484    -2.0753  H       1  <O>11       0.0624
  41 H16      12.1168     2.3803    -3.5283  H       1  <O>11       0.0618
  42 H17      11.2155     0.2156    -4.1423  H       1  <O>11       0.0618
  43 H18       9.0548    -0.4786    -3.3016  H       1  <O>11       0.0625
@<TRIPOS>BOND
     1     1     2    1
     2     2     3   ar
     3     3     4   ar
     4     4     5    1
     5     5     6    1
     6     6     7    2
     7     6     8   am
     8     8     9    1
     9     9    10    1
    10    10    11    1
    11    11    12   ar
    12    12    13   ar
    13    13    14   ar
    14    14    15   ar
    15    15    16   ar
    16    11    16   ar
    17    16    17    1
    18     4    18   ar
    19    18    19   ar
    20    19    20   ar
    21    20    21   ar
    22    21    22   ar
    23    22    23   ar
    24    18    23   ar
    25    23    24   ar
    26     2    24   ar
    27    24    25    2
    28     1    26    1
    29     1    27    1
    30     1    28    1
    31     5    29    1
    32     5    30    1
    33     8    31    1
    34     9    32    1
    35     9    33    1
    36    10    34    1
    37    10    35    1
    38    12    36    1
    39    13    37    1
    40    14    38    1
    41    15    39    1
    42    19    40    1
    43    20    41    1
    44    21    42    1
    45    22    43    1
@<TRIPOS>MOLECULE
mol17_1_11
 43 45 0 0 0
SMALL
USER_CHARGES
****
VDW energy = -51.91
@<TRIPOS>ATOM
   1 C1        5.4866     1.2825    -0.2360  C.3     1  <O>11       0.0340
   2 N1        6.7347     1.7343    -0.7968  N.ar    1  <O>11      -0.2318
   3 N2        7.2340     2.9457    -0.4598  N.ar    1  <O>11      -0.1724
   4 C2        8.4134     3.3437    -0.9933  C.ar    1  <O>11       0.0783
   5 C3        8.8350     4.7170    -0.6550  C.3     1  <O>11       0.0685
   6 C4        7.8110     5.3490     0.2270  C.2     1  <O>11       0.2189
   7 O1        8.1603     5.9686     1.2210  O.2     1  <O>11      -0.2754
   8 N3        6.4805     5.2348    -0.0759  N.am    1  <O>11      -0.3147
   9 C5        5.4796     5.8539     0.7892  C.3     1  <O>11       0.0157
  10 C6        4.0912     5.5806     0.2333  C.3     1  <O>11      -0.0093
  11 C7        3.0749     6.2102     1.1132  C.ar    1  <O>11      -0.0107
  12 C8        2.6520     7.5311     0.8755  C.ar    1  <O>11      -0.0558
  13 C9        1.7038     8.1286     1.7119  C.ar    1  <O>11      -0.0613
  14 C10       1.1666     7.4178     2.7873  C.ar    1  <O>11      -0.0590
  15 C11       1.5826     6.1022     3.0213  C.ar    1  <O>11      -0.0262
  16 C12       2.5257     5.4953     2.1901  C.ar    1  <O>11       0.1266
  17 F1        2.9285     4.2028     2.4135  F       1  <O>11      -0.2052
  18 C13       9.2100     2.5349    -1.8162  C.ar    1  <O>11       0.0108
  19 C14      10.4688     2.9255    -2.3277  C.ar    1  <O>11      -0.0521
  20 C15      11.1965     2.0826    -3.1684  C.ar    1  <O>11      -0.0611
  21 C16      10.6797     0.8410    -3.5204  C.ar    1  <O>11      -0.0610
  22 C17       9.4353     0.4418    -3.0314  C.ar    1  <O>11      -0.0487
  23 C18       8.6875     1.2787    -2.1714  C.ar    1  <O>11       0.0498
  24 C19       7.4213     0.9528    -1.6663  C.ar    1  <O>11       0.2748
  25 O2        6.8651    -0.2620    -2.1105  O.2     1  <O>11      -0.2656
  26 H1        5.2515     0.2914    -0.6239  H       1  <O>11       0.0474
  27 H2        4.6926     1.9775    -0.5096  H       1  <O>11       0.0474
  28 H3        5.5714     1.2371     0.8498  H       1  <O>11       0.0474
  29 H4        8.9360     5.3020    -1.5700  H       1  <O>11       0.0423
  30 H5        9.7930     4.6860    -0.1360  H       1  <O>11       0.0423
  31 H6        6.1899     4.7183    -0.9054  H       1  <O>11       0.1487
  32 H7        5.6501     6.9296     0.8284  H       1  <O>11       0.0465
  33 H8        5.5590     5.4356     1.7927  H       1  <O>11       0.0465
  34 H9        3.9233     4.5038     0.1934  H       1  <O>11       0.0329
  35 H10       4.0139     5.9966    -0.7698  H       1  <O>11       0.0329
  36 H11       3.0430     8.0608     0.0808  H       1  <O>11       0.0621
  37 H12       1.3999     9.0986     1.5338  H       1  <O>11       0.0618
  38 H13       0.4679     7.8595     3.4051  H       1  <O>11       0.0618
  39 H14       1.1882     5.5755     3.8163  H       1  <O>11       0.0646
  40 H15      10.8555     3.8484    -2.0753  H       1  <O>11       0.0624
  41 H16      12.1168     2.3803    -3.5283  H       1  <O>11       0.0618
  42 H17      11.2155     0.2156    -4.1423  H       1  <O>11       0.0618
  43 H18       9.0548    -0.4786    -3.3016  H       1  <O>11       0.0625
@<TRIPOS>BOND
     1     1     2    1
     2     2     3   ar
     3     3     4   ar
     4     4     5    1
     5     5     6    1
     6     6     7    2
     7     6     8   am
     8     8     9    1
     9     9    10    1
    10    10    11    1
    11    11    12   ar
    12    12    13   ar
    13    13    14   ar
    14    14    15   ar
    15    15    16   ar
    16    11    16   ar
    17    16    17    1
    18     4    18   ar
    19    18    19   ar
    20    19    20   ar
    21    20    21   ar
    22    21    22   ar
    23    22    23   ar
    24    18    23   ar
    25    23    24   ar
    26     2    24   ar
    27    24    25    2
    28     1    26    1
    29     1    27    1
    30     1    28    1
    31     5    29    1
    32     5    30    1
    33     8    31    1
    34     9    32    1
    35     9    33    1
    36    10    34    1
    37    10    35    1
    38    12    36    1
    39    13    37    1
    40    14    38    1
    41    15    39    1
    42    19    40    1
    43    20    41    1
    44    21    42    1
    45    22    43    1
@<TRIPOS>MOLECULE
mol17_1_12
 43 45 0 0 0
SMALL
USER_CHARGES
****
VDW energy = -51.10
@<TRIPOS>ATOM
   1 C1        5.4866     1.2825    -0.2360  C.3     1  <O>11       0.0340
   2 N1        6.7347     1.7343    -0.7968  N.ar    1  <O>11      -0.2318
   3 N2        7.2340     2.9457    -0.4598  N.ar    1  <O>11      -0.1724
   4 C2        8.4134     3.3437    -0.9933  C.ar    1  <O>11       0.0783
   5 C3        8.8350     4.7170    -0.6550  C.3     1  <O>11       0.0685
   6 C4        7.8110     5.3490     0.2270  C.2     1  <O>11       0.2189
   7 O1        7.4361     6.4912     0.0058  O.2     1  <O>11      -0.2754
   8 N3        7.2915     4.6508     1.2842  N.am    1  <O>11      -0.3147
   9 C5        6.2895     5.2716     2.1468  C.3     1  <O>11       0.0157
  10 C6        5.8810     4.2916     3.2350  C.3     1  <O>11      -0.0093
  11 C7        4.8627     4.9235     4.1108  C.ar    1  <O>11      -0.0107
  12 C8        3.4936     4.7966     3.8119  C.ar    1  <O>11      -0.0558
  13 C9        2.5347     5.4024     4.6300  C.ar    1  <O>11      -0.0613
  14 C10       2.9284     6.1349     5.7520  C.ar    1  <O>11      -0.0590
  15 C11       4.2896     6.2572     6.0531  C.ar    1  <O>11      -0.0262
  16 C12       5.2545     5.6532     5.2451  C.ar    1  <O>11       0.1266
  17 F1        6.5890     5.7654     5.5436  F       1  <O>11      -0.2052
  18 C13       9.2100     2.5349    -1.8162  C.ar    1  <O>11       0.0108
  19 C14      10.4688     2.9255    -2.3277  C.ar    1  <O>11      -0.0521
  20 C15      11.1965     2.0826    -3.1684  C.ar    1  <O>11      -0.0611
  21 C16      10.6797     0.8410    -3.5204  C.ar    1  <O>11      -0.0610
  22 C17       9.4353     0.4418    -3.0314  C.ar    1  <O>11      -0.0487
  23 C18       8.6875     1.2787    -2.1714  C.ar    1  <O>11       0.0498
  24 C19       7.4213     0.9528    -1.6663  C.ar    1  <O>11       0.2748
  25 O2        6.8651    -0.2620    -2.1105  O.2     1  <O>11      -0.2656
  26 H1        5.2515     0.2914    -0.6239  H       1  <O>11       0.0474
  27 H2        4.6926     1.9775    -0.5096  H       1  <O>11       0.0474
  28 H3        5.5714     1.2371     0.8498  H       1  <O>11       0.0474
  29 H4        8.9360     5.3020    -1.5700  H       1  <O>11       0.0423
  30 H5        9.7930     4.6860    -0.1360  H       1  <O>11       0.0423
  31 H6        7.6043     3.6980     1.4678  H       1  <O>11       0.1487
  32 H7        5.4160     5.5397     1.5526  H       1  <O>11       0.0465
  33 H8        6.7091     6.1683     2.6029  H       1  <O>11       0.0465
  34 H9        6.7567     4.0234     3.8271  H       1  <O>11       0.0329
  35 H10       5.4645     3.3955     2.7782  H       1  <O>11       0.0329
  36 H11       3.1959     4.2543     2.9859  H       1  <O>11       0.0621
  37 H12       1.5323     5.3078     4.4038  H       1  <O>11       0.0618
  38 H13       2.2206     6.5829     6.3547  H       1  <O>11       0.0618
  39 H14       4.5830     6.7993     6.8808  H       1  <O>11       0.0646
  40 H15      10.8555     3.8484    -2.0753  H       1  <O>11       0.0624
  41 H16      12.1168     2.3803    -3.5283  H       1  <O>11       0.0618
  42 H17      11.2155     0.2156    -4.1423  H       1  <O>11       0.0618
  43 H18       9.0548    -0.4786    -3.3016  H       1  <O>11       0.0625
@<TRIPOS>BOND
     1     1     2    1
     2     2     3   ar
     3     3     4   ar
     4     4     5    1
     5     5     6    1
     6     6     7    2
     7     6     8   am
     8     8     9    1
     9     9    10    1
    10    10    11    1
    11    11    12   ar
    12    12    13   ar
    13    13    14   ar
    14    14    15   ar
    15    15    16   ar
    16    11    16   ar
    17    16    17    1
    18     4    18   ar
    19    18    19   ar
    20    19    20   ar
    21    20    21   ar
    22    21    22   ar
    23    22    23   ar
    24    18    23   ar
    25    23    24   ar
    26     2    24   ar
    27    24    25    2
    28     1    26    1
    29     1    27    1
    30     1    28    1
    31     5    29    1
    32     5    30    1
    33     8    31    1
    34     9    32    1
    35     9    33    1
    36    10    34    1
    37    10    35    1
    38    12    36    1
    39    13    37    1
    40    14    38    1
    41    15    39    1
    42    19    40    1
    43    20    41    1
    44    21    42    1
    45    22    43    1
@<TRIPOS>MOLECULE
mol17_1_13
 43 45 0 0 0
SMALL
USER_CHARGES
****
VDW energy = -50.44
@<TRIPOS>ATOM
   1 C1        5.4866     1.2825    -0.2360  C.3     1  <O>11       0.0340
   2 N1        6.7347     1.7343    -0.7968  N.ar    1  <O>11      -0.2318
   3 N2        7.2340     2.9457    -0.4598  N.ar    1  <O>11      -0.1724
   4 C2        8.4134     3.3437    -0.9933  C.ar    1  <O>11       0.0783
   5 C3        8.8350     4.7170    -0.6550  C.3     1  <O>11       0.0685
   6 C4        8.9745     5.5174    -1.9064  C.2     1  <O>11       0.2189
   7 O1        8.7455     5.0006    -2.9901  O.2     1  <O>11      -0.2754
   8 N3        9.3593     6.8299    -1.8416  N.am    1  <O>11      -0.3147
   9 C5        9.4957     7.6115    -3.0680  C.3     1  <O>11       0.0157
  10 C6        9.9303     9.0265    -2.7208  C.3     1  <O>11      -0.0093
  11 C7       10.0686     9.8198    -3.9678  C.ar    1  <O>11      -0.0107
  12 C8        9.8060     9.2281    -5.2172  C.ar    1  <O>11      -0.0558
  13 C9        9.9483     9.9718    -6.3929  C.ar    1  <O>11      -0.0613
  14 C10      10.3486    11.3086    -6.3358  C.ar    1  <O>11      -0.0590
  15 C11      10.6048    11.8995    -5.0934  C.ar    1  <O>11      -0.0262
  16 C12      10.4620    11.1669    -3.9137  C.ar    1  <O>11       0.1266
  17 F1       10.7051    11.7472    -2.6943  F       1  <O>11      -0.2052
  18 C13       9.2100     2.5349    -1.8162  C.ar    1  <O>11       0.0108
  19 C14      10.4688     2.9255    -2.3277  C.ar    1  <O>11      -0.0521
  20 C15      11.1965     2.0826    -3.1684  C.ar    1  <O>11      -0.0611
  21 C16      10.6797     0.8410    -3.5204  C.ar    1  <O>11      -0.0610
  22 C17       9.4353     0.4418    -3.0314  C.ar    1  <O>11      -0.0487
  23 C18       8.6875     1.2787    -2.1714  C.ar    1  <O>11       0.0498
  24 C19       7.4213     0.9528    -1.6663  C.ar    1  <O>11       0.2748
  25 O2        6.8651    -0.2620    -2.1105  O.2     1  <O>11      -0.2656
  26 H1        5.2515     0.2914    -0.6239  H       1  <O>11       0.0474
  27 H2        4.6926     1.9775    -0.5096  H       1  <O>11       0.0474
  28 H3        5.5714     1.2371     0.8498  H       1  <O>11       0.0474
  29 H4        9.7939     4.6854    -0.1362  H       1  <O>11       0.0423
  30 H5        8.0877     5.1783    -0.0094  H       1  <O>11       0.0423
  31 H6        9.5495     7.2604    -0.9373  H       1  <O>11       0.1487
  32 H7        8.5375     7.6425    -3.5863  H       1  <O>11       0.0465
  33 H8       10.2434     7.1484    -3.7119  H       1  <O>11       0.0465
  34 H9       10.8884     8.9929    -2.2009  H       1  <O>11       0.0329
  35 H10       9.1841     9.4871    -2.0757  H       1  <O>11       0.0329
  36 H11       9.5071     8.2415    -5.2660  H       1  <O>11       0.0621
  37 H12       9.7569     9.5312    -7.3062  H       1  <O>11       0.0618
  38 H13      10.4548    11.8567    -7.2037  H       1  <O>11       0.0618
  39 H14      10.9023    12.8867    -5.0488  H       1  <O>11       0.0646
  40 H15      10.8555     3.8484    -2.0753  H       1  <O>11       0.0624
  41 H16      12.1168     2.3803    -3.5283  H       1  <O>11       0.0618
  42 H17      11.2155     0.2156    -4.1423  H       1  <O>11       0.0618
  43 H18       9.0548    -0.4786    -3.3016  H       1  <O>11       0.0625
@<TRIPOS>BOND
     1     1     2    1
     2     2     3   ar
     3     3     4   ar
     4     4     5    1
     5     5     6    1
     6     6     7    2
     7     6     8   am
     8     8     9    1
     9     9    10    1
    10    10    11    1
    11    11    12   ar
    12    12    13   ar
    13    13    14   ar
    14    14    15   ar
    15    15    16   ar
    16    11    16   ar
    17    16    17    1
    18     4    18   ar
    19    18    19   ar
    20    19    20   ar
    21    20    21   ar
    22    21    22   ar
    23    22    23   ar
    24    18    23   ar
    25    23    24   ar
    26     2    24   ar
    27    24    25    2
    28     1    26    1
    29     1    27    1
    30     1    28    1
    31     5    29    1
    32     5    30    1
    33     8    31    1
    34     9    32    1
    35     9    33    1
    36    10    34    1
    37    10    35    1
    38    12    36    1
    39    13    37    1
    40    14    38    1
    41    15    39    1
    42    19    40    1
    43    20    41    1
    44    21    42    1
    45    22    43    1
@<TRIPOS>MOLECULE
mol17_1_14
 43 45 0 0 0
SMALL
USER_CHARGES
****
VDW energy = -48.57
@<TRIPOS>ATOM
   1 C1        5.4866     1.2825    -0.2360  C.3     1  <O>11       0.0340
   2 N1        6.7347     1.7343    -0.7968  N.ar    1  <O>11      -0.2318
   3 N2        7.2340     2.9457    -0.4598  N.ar    1  <O>11      -0.1724
   4 C2        8.4134     3.3437    -0.9933  C.ar    1  <O>11       0.0783
   5 C3        8.8350     4.7170    -0.6550  C.3     1  <O>11       0.0685
   6 C4        7.8110     5.3490     0.2270  C.2     1  <O>11       0.2189
   7 O1        6.8140     4.7210     0.5520  O.2     1  <O>11      -0.2754
   8 N3        7.9870     6.6320     0.6720  N.am    1  <O>11      -0.3147
   9 C5        6.9830     7.2490     1.5350  C.3     1  <O>11       0.0157
  10 C6        7.4160     8.6640     1.8840  C.3     1  <O>11      -0.0093
  11 C7        6.3950     9.2900     2.7610  C.ar    1  <O>11      -0.0107
  12 C8        6.4915     9.1688     4.1596  C.ar    1  <O>11      -0.0558
  13 C9        5.5228     9.7479     4.9854  C.ar    1  <O>11      -0.0613
  14 C10       4.4543    10.4540     4.4286  C.ar    1  <O>11      -0.0590
  15 C11       4.3604    10.5797     3.0380  C.ar    1  <O>11      -0.0262
  16 C12       5.3241    10.0087     2.2050  C.ar    1  <O>11       0.1266
  17 F1        5.2378    10.1379     0.8417  F       1  <O>11      -0.2052
  18 C13       9.2100     2.5349    -1.8162  C.ar    1  <O>11       0.0108
  19 C14      10.4688     2.9255    -2.3277  C.ar    1  <O>11      -0.0521
  20 C15      11.1965     2.0826    -3.1684  C.ar    1  <O>11      -0.0611
  21 C16      10.6797     0.8410    -3.5204  C.ar    1  <O>11      -0.0610
  22 C17       9.4353     0.4418    -3.0314  C.ar    1  <O>11      -0.0487
  23 C18       8.6875     1.2787    -2.1714  C.ar    1  <O>11       0.0498
  24 C19       7.4213     0.9528    -1.6663  C.ar    1  <O>11       0.2748
  25 O2        6.8651    -0.2620    -2.1105  O.2     1  <O>11      -0.2656
  26 H1        5.2515     0.2914    -0.6239  H       1  <O>11       0.0474
  27 H2        4.6926     1.9775    -0.5096  H       1  <O>11       0.0474
  28 H3        5.5714     1.2371     0.8498  H       1  <O>11       0.0474
  29 H4        8.9360     5.3020    -1.5700  H       1  <O>11       0.0423
  30 H5        9.7930     4.6860    -0.1360  H       1  <O>11       0.0423
  31 H6        8.8190     7.1550     0.4010  H       1  <O>11       0.1487
  32 H7        6.8820     6.6640     2.4490  H       1  <O>11       0.0465
  33 H8        6.0260     7.2790     1.0140  H       1  <O>11       0.0465
  34 H9        7.5180     9.2470     0.9680  H       1  <O>11       0.0329
  35 H10       8.3730     8.6330     2.4020  H       1  <O>11       0.0329
  36 H11       7.2801     8.6507     4.5774  H       1  <O>11       0.0621
  37 H12       5.5978     9.6530     6.0103  H       1  <O>11       0.0618
  38 H13       3.7390    10.8801     5.0384  H       1  <O>11       0.0618
  39 H14       3.5709    11.0998     2.6242  H       1  <O>11       0.0646
  40 H15      10.8555     3.8484    -2.0753  H       1  <O>11       0.0624
  41 H16      12.1168     2.3803    -3.5283  H       1  <O>11       0.0618
  42 H17      11.2155     0.2156    -4.1423  H       1  <O>11       0.0618
  43 H18       9.0548    -0.4786    -3.3016  H       1  <O>11       0.0625
@<TRIPOS>BOND
     1     1     2    1
     2     2     3   ar
     3     3     4   ar
     4     4     5    1
     5     5     6    1
     6     6     7    2
     7     6     8   am
     8     8     9    1
     9     9    10    1
    10    10    11    1
    11    11    12   ar
    12    12    13   ar
    13    13    14   ar
    14    14    15   ar
    15    15    16   ar
    16    11    16   ar
    17    16    17    1
    18     4    18   ar
    19    18    19   ar
    20    19    20   ar
    21    20    21   ar
    22    21    22   ar
    23    22    23   ar
    24    18    23   ar
    25    23    24   ar
    26     2    24   ar
    27    24    25    2
    28     1    26    1
    29     1    27    1
    30     1    28    1
    31     5    29    1
    32     5    30    1
    33     8    31    1
    34     9    32    1
    35     9    33    1
    36    10    34    1
    37    10    35    1
    38    12    36    1
    39    13    37    1
    40    14    38    1
    41    15    39    1
    42    19    40    1
    43    20    41    1
    44    21    42    1
    45    22    43    1
@<TRIPOS>MOLECULE
mol17_1_15
 43 45 0 0 0
SMALL
USER_CHARGES
****
VDW energy = -48.28
@<TRIPOS>ATOM
   1 C1        5.4866     1.2825    -0.2360  C.3     1  <O>11       0.0340
   2 N1        6.7347     1.7343    -0.7968  N.ar    1  <O>11      -0.2318
   3 N2        7.2340     2.9457    -0.4598  N.ar    1  <O>11      -0.1724
   4 C2        8.4134     3.3437    -0.9933  C.ar    1  <O>11       0.0783
   5 C3        8.8350     4.7170    -0.6550  C.3     1  <O>11       0.0685
   6 C4       10.1458     4.6743     0.0562  C.2     1  <O>11       0.2189
   7 O1       10.6906     3.6008     0.2682  O.2     1  <O>11      -0.2754
   8 N3       10.7386     5.8365     0.4720  N.am    1  <O>11      -0.3147
   9 C5       12.0217     5.7924     1.1686  C.3     1  <O>11       0.0157
  10 C6       12.4570     7.2066     1.5180  C.3     1  <O>11      -0.0093
  11 C7       13.7610     7.1605     2.2258  C.ar    1  <O>11      -0.0107
  12 C8       14.3909     5.9265     2.4715  C.ar    1  <O>11      -0.0558
  13 C9       15.6133     5.8821     3.1493  C.ar    1  <O>11      -0.0613
  14 C10      16.2201     7.0623     3.5843  C.ar    1  <O>11      -0.0590
  15 C11      15.5970     8.2905     3.3356  C.ar    1  <O>11      -0.0262
  16 C12      14.3787     8.3460     2.6565  C.ar    1  <O>11       0.1266
  17 F1       13.7705     9.5500     2.4049  F       1  <O>11      -0.2052
  18 C13       9.2100     2.5349    -1.8162  C.ar    1  <O>11       0.0108
  19 C14      10.4688     2.9255    -2.3277  C.ar    1  <O>11      -0.0521
  20 C15      11.1965     2.0826    -3.1684  C.ar    1  <O>11      -0.0611
  21 C16      10.6797     0.8410    -3.5204  C.ar    1  <O>11      -0.0610
  22 C17       9.4353     0.4418    -3.0314  C.ar    1  <O>11      -0.0487
  23 C18       8.6875     1.2787    -2.1714  C.ar    1  <O>11       0.0498
  24 C19       7.4213     0.9528    -1.6663  C.ar    1  <O>11       0.2748
  25 O2        6.8651    -0.2620    -2.1105  O.2     1  <O>11      -0.2656
  26 H1        5.2515     0.2914    -0.6239  H       1  <O>11       0.0474
  27 H2        4.6926     1.9775    -0.5096  H       1  <O>11       0.0474
  28 H3        5.5714     1.2371     0.8498  H       1  <O>11       0.0474
  29 H4        8.0870     5.1781    -0.0089  H       1  <O>11       0.0423
  30 H5        8.9359     5.3022    -1.5691  H       1  <O>11       0.0423
  31 H6       10.2840     6.7315     0.2944  H       1  <O>11       0.1487
  32 H7       12.7688     5.3312     0.5229  H       1  <O>11       0.0465
  33 H8       11.9184     5.2069     2.0822  H       1  <O>11       0.0465
  34 H9       11.7073     7.6666     2.1627  H       1  <O>11       0.0329
  35 H10      12.5574     7.7911     0.6050  H       1  <O>11       0.0329
  36 H11      13.9492     5.0509     2.1502  H       1  <O>11       0.0621
  37 H12      16.0688     4.9736     3.3289  H       1  <O>11       0.0618
  38 H13      17.1215     7.0290     4.0856  H       1  <O>11       0.0618
  39 H14      16.0427     9.1639     3.6575  H       1  <O>11       0.0646
  40 H15      10.8555     3.8484    -2.0753  H       1  <O>11       0.0624
  41 H16      12.1168     2.3803    -3.5283  H       1  <O>11       0.0618
  42 H17      11.2155     0.2156    -4.1423  H       1  <O>11       0.0618
  43 H18       9.0548    -0.4786    -3.3016  H       1  <O>11       0.0625
@<TRIPOS>BOND
     1     1     2    1
     2     2     3   ar
     3     3     4   ar
     4     4     5    1
     5     5     6    1
     6     6     7    2
     7     6     8   am
     8     8     9    1
     9     9    10    1
    10    10    11    1
    11    11    12   ar
    12    12    13   ar
    13    13    14   ar
    14    14    15   ar
    15    15    16   ar
    16    11    16   ar
    17    16    17    1
    18     4    18   ar
    19    18    19   ar
    20    19    20   ar
    21    20    21   ar
    22    21    22   ar
    23    22    23   ar
    24    18    23   ar
    25    23    24   ar
    26     2    24   ar
    27    24    25    2
    28     1    26    1
    29     1    27    1
    30     1    28    1
    31     5    29    1
    32     5    30    1
    33     8    31    1
    34     9    32    1
    35     9    33    1
    36    10    34    1
    37    10    35    1
    38    12    36    1
    39    13    37    1
    40    14    38    1
    41    15    39    1
    42    19    40    1
    43    20    41    1
    44    21    42    1
    45    22    43    1
@<TRIPOS>MOLECULE
mol17_1_16
 43 45 0 0 0
SMALL
USER_CHARGES
****
VDW energy = -46.50
@<TRIPOS>ATOM
   1 C1        5.4866     1.2825    -0.2360  C.3     1  <O>11       0.0340
   2 N1        6.7347     1.7343    -0.7968  N.ar    1  <O>11      -0.2318
   3 N2        7.2340     2.9457    -0.4598  N.ar    1  <O>11      -0.1724
   4 C2        8.4134     3.3437    -0.9933  C.ar    1  <O>11       0.0783
   5 C3        8.8350     4.7170    -0.6550  C.3     1  <O>11       0.0685
   6 C4        7.8110     5.3490     0.2270  C.2     1  <O>11       0.2189
   7 O1        6.8140     4.7210     0.5520  O.2     1  <O>11      -0.2754
   8 N3        7.9870     6.6320     0.6720  N.am    1  <O>11      -0.3147
   9 C5        6.9830     7.2490     1.5350  C.3     1  <O>11       0.0157
  10 C6        7.4160     8.6640     1.8840  C.3     1  <O>11      -0.0093
  11 C7        7.5548     9.4587     0.6380  C.ar    1  <O>11      -0.0107
  12 C8        6.4559    10.1742     0.1275  C.ar    1  <O>11      -0.0558
  13 C9        6.5831    10.9128    -1.0531  C.ar    1  <O>11      -0.0613
  14 C10       7.8026    10.9491    -1.7326  C.ar    1  <O>11      -0.0590
  15 C11       8.8976    10.2422    -1.2228  C.ar    1  <O>11      -0.0262
  16 C12       8.7822     9.5050    -0.0431  C.ar    1  <O>11       0.1266
  17 F1        9.8570     8.8180     0.4623  F       1  <O>11      -0.2052
  18 C13       9.2100     2.5349    -1.8162  C.ar    1  <O>11       0.0108
  19 C14      10.4688     2.9255    -2.3277  C.ar    1  <O>11      -0.0521
  20 C15      11.1965     2.0826    -3.1684  C.ar    1  <O>11      -0.0611
  21 C16      10.6797     0.8410    -3.5204  C.ar    1  <O>11      -0.0610
  22 C17       9.4353     0.4418    -3.0314  C.ar    1  <O>11      -0.0487
  23 C18       8.6875     1.2787    -2.1714  C.ar    1  <O>11       0.0498
  24 C19       7.4213     0.9528    -1.6663  C.ar    1  <O>11       0.2748
  25 O2        6.8651    -0.2620    -2.1105  O.2     1  <O>11      -0.2656
  26 H1        5.2515     0.2914    -0.6239  H       1  <O>11       0.0474
  27 H2        4.6926     1.9775    -0.5096  H       1  <O>11       0.0474
  28 H3        5.5714     1.2371     0.8498  H       1  <O>11       0.0474
  29 H4        8.9360     5.3020    -1.5700  H       1  <O>11       0.0423
  30 H5        9.7930     4.6860    -0.1360  H       1  <O>11       0.0423
  31 H6        8.8190     7.1550     0.4010  H       1  <O>11       0.1487
  32 H7        6.8820     6.6640     2.4490  H       1  <O>11       0.0465
  33 H8        6.0260     7.2790     1.0140  H       1  <O>11       0.0465
  34 H9        8.3736     8.6308     2.4049  H       1  <O>11       0.0329
  35 H10       6.6687     9.1232     2.5288  H       1  <O>11       0.0329
  36 H11       5.5527    10.1538     0.6263  H       1  <O>11       0.0621
  37 H12       5.7725    11.4331    -1.4238  H       1  <O>11       0.0618
  38 H13       7.8957    11.4932    -2.6045  H       1  <O>11       0.0618
  39 H14       9.7994    10.2663    -1.7240  H       1  <O>11       0.0646
  40 H15      10.8555     3.8484    -2.0753  H       1  <O>11       0.0624
  41 H16      12.1168     2.3803    -3.5283  H       1  <O>11       0.0618
  42 H17      11.2155     0.2156    -4.1423  H       1  <O>11       0.0618
  43 H18       9.0548    -0.4786    -3.3016  H       1  <O>11       0.0625
@<TRIPOS>BOND
     1     1     2    1
     2     2     3   ar
     3     3     4   ar
     4     4     5    1
     5     5     6    1
     6     6     7    2
     7     6     8   am
     8     8     9    1
     9     9    10    1
    10    10    11    1
    11    11    12   ar
    12    12    13   ar
    13    13    14   ar
    14    14    15   ar
    15    15    16   ar
    16    11    16   ar
    17    16    17    1
    18     4    18   ar
    19    18    19   ar
    20    19    20   ar
    21    20    21   ar
    22    21    22   ar
    23    22    23   ar
    24    18    23   ar
    25    23    24   ar
    26     2    24   ar
    27    24    25    2
    28     1    26    1
    29     1    27    1
    30     1    28    1
    31     5    29    1
    32     5    30    1
    33     8    31    1
    34     9    32    1
    35     9    33    1
    36    10    34    1
    37    10    35    1
    38    12    36    1
    39    13    37    1
    40    14    38    1
    41    15    39    1
    42    19    40    1
    43    20    41    1
    44    21    42    1
    45    22    43    1
@<TRIPOS>MOLECULE
mol17_1_17
 43 45 0 0 0
SMALL
USER_CHARGES
****
VDW energy = -43.14
@<TRIPOS>ATOM
   1 C1        5.4866     1.2825    -0.2360  C.3     1  <O>11       0.0340
   2 N1        6.7347     1.7343    -0.7968  N.ar    1  <O>11      -0.2318
   3 N2        7.2340     2.9457    -0.4598  N.ar    1  <O>11      -0.1724
   4 C2        8.4134     3.3437    -0.9933  C.ar    1  <O>11       0.0783
   5 C3        8.8350     4.7170    -0.6550  C.3     1  <O>11       0.0685
   6 C4       10.1458     4.6743     0.0562  C.2     1  <O>11       0.2189
   7 O1       10.6906     3.6008     0.2682  O.2     1  <O>11      -0.2754
   8 N3       10.7386     5.8365     0.4720  N.am    1  <O>11      -0.3147
   9 C5       12.0217     5.7924     1.1686  C.3     1  <O>11       0.0157
  10 C6       12.9501     4.8200     0.4585  C.3     1  <O>11      -0.0093
  11 C7       14.2536     4.7760     1.1672  C.ar    1  <O>11      -0.0107
  12 C8       14.7254     3.5661     1.7089  C.ar    1  <O>11      -0.0558
  13 C9       15.9476     3.5271     2.3875  C.ar    1  <O>11      -0.0613
  14 C10      16.7110     4.6878     2.5295  C.ar    1  <O>11      -0.0590
  15 C11      16.2451     5.8905     1.9865  C.ar    1  <O>11      -0.0262
  16 C12      15.0284     5.9394     1.3041  C.ar    1  <O>11       0.1266
  17 F1       14.5742     7.1162     0.7641  F       1  <O>11      -0.2052
  18 C13       9.2100     2.5349    -1.8162  C.ar    1  <O>11       0.0108
  19 C14      10.4688     2.9255    -2.3277  C.ar    1  <O>11      -0.0521
  20 C15      11.1965     2.0826    -3.1684  C.ar    1  <O>11      -0.0611
  21 C16      10.6797     0.8410    -3.5204  C.ar    1  <O>11      -0.0610
  22 C17       9.4353     0.4418    -3.0314  C.ar    1  <O>11      -0.0487
  23 C18       8.6875     1.2787    -2.1714  C.ar    1  <O>11       0.0498
  24 C19       7.4213     0.9528    -1.6663  C.ar    1  <O>11       0.2748
  25 O2        6.8651    -0.2620    -2.1105  O.2     1  <O>11      -0.2656
  26 H1        5.2515     0.2914    -0.6239  H       1  <O>11       0.0474
  27 H2        4.6926     1.9775    -0.5096  H       1  <O>11       0.0474
  28 H3        5.5714     1.2371     0.8498  H       1  <O>11       0.0474
  29 H4        8.0870     5.1781    -0.0089  H       1  <O>11       0.0423
  30 H5        8.9359     5.3022    -1.5691  H       1  <O>11       0.0423
  31 H6       10.2840     6.7315     0.2944  H       1  <O>11       0.1487
  32 H7       11.8655     5.4617     2.1953  H       1  <O>11       0.0465
  33 H8       12.4680     6.7869     1.1700  H       1  <O>11       0.0465
  34 H9       13.1037     5.1519    -0.5689  H       1  <O>11       0.0329
  35 H10      12.5023     3.8278     0.4555  H       1  <O>11       0.0329
  36 H11      14.1674     2.7042     1.6049  H       1  <O>11       0.0621
  37 H12      16.2867     2.6370     2.7848  H       1  <O>11       0.0618
  38 H13      17.6122     4.6589     3.0315  H       1  <O>11       0.0618
  39 H14      16.8068     6.7500     2.0916  H       1  <O>11       0.0646
  40 H15      10.8555     3.8484    -2.0753  H       1  <O>11       0.0624
  41 H16      12.1168     2.3803    -3.5283  H       1  <O>11       0.0618
  42 H17      11.2155     0.2156    -4.1423  H       1  <O>11       0.0618
  43 H18       9.0548    -0.4786    -3.3016  H       1  <O>11       0.0625
@<TRIPOS>BOND
     1     1     2    1
     2     2     3   ar
     3     3     4   ar
     4     4     5    1
     5     5     6    1
     6     6     7    2
     7     6     8   am
     8     8     9    1
     9     9    10    1
    10    10    11    1
    11    11    12   ar
    12    12    13   ar
    13    13    14   ar
    14    14    15   ar
    15    15    16   ar
    16    11    16   ar
    17    16    17    1
    18     4    18   ar
    19    18    19   ar
    20    19    20   ar
    21    20    21   ar
    22    21    22   ar
    23    22    23   ar
    24    18    23   ar
    25    23    24   ar
    26     2    24   ar
    27    24    25    2
    28     1    26    1
    29     1    27    1
    30     1    28    1
    31     5    29    1
    32     5    30    1
    33     8    31    1
    34     9    32    1
    35     9    33    1
    36    10    34    1
    37    10    35    1
    38    12    36    1
    39    13    37    1
    40    14    38    1
    41    15    39    1
    42    19    40    1
    43    20    41    1
    44    21    42    1
    45    22    43    1
@<TRIPOS>MOLECULE
mol17_1_18
 43 45 0 0 0
SMALL
USER_CHARGES
****
VDW energy = -42.76
@<TRIPOS>ATOM
   1 C1        5.4866     1.2825    -0.2360  C.3     1  <O>11       0.0340
   2 N1        6.7347     1.7343    -0.7968  N.ar    1  <O>11      -0.2318
   3 N2        7.2340     2.9457    -0.4598  N.ar    1  <O>11      -0.1724
   4 C2        8.4134     3.3437    -0.9933  C.ar    1  <O>11       0.0783
   5 C3        8.8350     4.7170    -0.6550  C.3     1  <O>11       0.0685
   6 C4        7.8110     5.3490     0.2270  C.2     1  <O>11       0.2189
   7 O1        7.4361     6.4912     0.0058  O.2     1  <O>11      -0.2754
   8 N3        7.2915     4.6508     1.2842  N.am    1  <O>11      -0.3147
   9 C5        6.2895     5.2716     2.1468  C.3     1  <O>11       0.0157
  10 C6        5.8810     4.2916     3.2350  C.3     1  <O>11      -0.0093
  11 C7        4.8627     4.9235     4.1108  C.ar    1  <O>11      -0.0107
  12 C8        4.4289     6.2382     3.8592  C.ar    1  <O>11      -0.0558
  13 C9        3.4788     6.8381     4.6917  C.ar    1  <O>11      -0.0613
  14 C10       2.9505     6.1357     5.7770  C.ar    1  <O>11      -0.0590
  15 C11       3.3773     4.8262     6.0249  C.ar    1  <O>11      -0.0262
  16 C12       4.3224     4.2169     5.1977  C.ar    1  <O>11       0.1266
  17 F1        4.7359     2.9303     5.4347  F       1  <O>11      -0.2052
  18 C13       9.2100     2.5349    -1.8162  C.ar    1  <O>11       0.0108
  19 C14      10.4688     2.9255    -2.3277  C.ar    1  <O>11      -0.0521
  20 C15      11.1965     2.0826    -3.1684  C.ar    1  <O>11      -0.0611
  21 C16      10.6797     0.8410    -3.5204  C.ar    1  <O>11      -0.0610
  22 C17       9.4353     0.4418    -3.0314  C.ar    1  <O>11      -0.0487
  23 C18       8.6875     1.2787    -2.1714  C.ar    1  <O>11       0.0498
  24 C19       7.4213     0.9528    -1.6663  C.ar    1  <O>11       0.2748
  25 O2        6.8651    -0.2620    -2.1105  O.2     1  <O>11      -0.2656
  26 H1        5.2515     0.2914    -0.6239  H       1  <O>11       0.0474
  27 H2        4.6926     1.9775    -0.5096  H       1  <O>11       0.0474
  28 H3        5.5714     1.2371     0.8498  H       1  <O>11       0.0474
  29 H4        8.9360     5.3020    -1.5700  H       1  <O>11       0.0423
  30 H5        9.7930     4.6860    -0.1360  H       1  <O>11       0.0423
  31 H6        7.6043     3.6980     1.4678  H       1  <O>11       0.1487
  32 H7        5.4160     5.5397     1.5526  H       1  <O>11       0.0465
  33 H8        6.7091     6.1683     2.6029  H       1  <O>11       0.0465
  34 H9        6.7567     4.0234     3.8271  H       1  <O>11       0.0329
  35 H10       5.4645     3.3955     2.7782  H       1  <O>11       0.0329
  36 H11       4.8133     6.7617     3.0572  H       1  <O>11       0.0621
  37 H12       3.1669     7.8037     4.5034  H       1  <O>11       0.0618
  38 H13       2.2503     6.5793     6.3919  H       1  <O>11       0.0618
  39 H14       2.9895     4.3057     6.8273  H       1  <O>11       0.0646
  40 H15      10.8555     3.8484    -2.0753  H       1  <O>11       0.0624
  41 H16      12.1168     2.3803    -3.5283  H       1  <O>11       0.0618
  42 H17      11.2155     0.2156    -4.1423  H       1  <O>11       0.0618
  43 H18       9.0548    -0.4786    -3.3016  H       1  <O>11       0.0625
@<TRIPOS>BOND
     1     1     2    1
     2     2     3   ar
     3     3     4   ar
     4     4     5    1
     5     5     6    1
     6     6     7    2
     7     6     8   am
     8     8     9    1
     9     9    10    1
    10    10    11    1
    11    11    12   ar
    12    12    13   ar
    13    13    14   ar
    14    14    15   ar
    15    15    16   ar
    16    11    16   ar
    17    16    17    1
    18     4    18   ar
    19    18    19   ar
    20    19    20   ar
    21    20    21   ar
    22    21    22   ar
    23    22    23   ar
    24    18    23   ar
    25    23    24   ar
    26     2    24   ar
    27    24    25    2
    28     1    26    1
    29     1    27    1
    30     1    28    1
    31     5    29    1
    32     5    30    1
    33     8    31    1
    34     9    32    1
    35     9    33    1
    36    10    34    1
    37    10    35    1
    38    12    36    1
    39    13    37    1
    40    14    38    1
    41    15    39    1
    42    19    40    1
    43    20    41    1
    44    21    42    1
    45    22    43    1
@<TRIPOS>MOLECULE
mol17_1_19
 43 45 0 0 0
SMALL
USER_CHARGES
****
VDW energy = -40.56
@<TRIPOS>ATOM
   1 C1        5.4866     1.2825    -0.2360  C.3     1  <O>11       0.0340
   2 N1        6.7347     1.7343    -0.7968  N.ar    1  <O>11      -0.2318
   3 N2        7.2340     2.9457    -0.4598  N.ar    1  <O>11      -0.1724
   4 C2        8.4134     3.3437    -0.9933  C.ar    1  <O>11       0.0783
   5 C3        8.8350     4.7170    -0.6550  C.3     1  <O>11       0.0685
   6 C4        8.9745     5.5174    -1.9064  C.2     1  <O>11       0.2189
   7 O1        8.7455     5.0006    -2.9901  O.2     1  <O>11      -0.2754
   8 N3        9.3593     6.8299    -1.8416  N.am    1  <O>11      -0.3147
   9 C5        9.4957     7.6115    -3.0680  C.3     1  <O>11       0.0157
  10 C6        9.9303     9.0265    -2.7208  C.3     1  <O>11      -0.0093
  11 C7       11.2345     8.9822    -2.0134  C.ar    1  <O>11      -0.0107
  12 C8       11.8651     7.7489    -1.7659  C.ar    1  <O>11      -0.0558
  13 C9       13.0878     7.7062    -1.0884  C.ar    1  <O>11      -0.0613
  14 C10      13.6941     8.8874    -0.6555  C.ar    1  <O>11      -0.0590
  15 C11      13.0703    10.1149    -0.9059  C.ar    1  <O>11      -0.0262
  16 C12      11.8517    10.1687    -1.5847  C.ar    1  <O>11       0.1266
  17 F1       11.2429    11.3720    -1.8381  F       1  <O>11      -0.2052
  18 C13       9.2100     2.5349    -1.8162  C.ar    1  <O>11       0.0108
  19 C14      10.4688     2.9255    -2.3277  C.ar    1  <O>11      -0.0521
  20 C15      11.1965     2.0826    -3.1684  C.ar    1  <O>11      -0.0611
  21 C16      10.6797     0.8410    -3.5204  C.ar    1  <O>11      -0.0610
  22 C17       9.4353     0.4418    -3.0314  C.ar    1  <O>11      -0.0487
  23 C18       8.6875     1.2787    -2.1714  C.ar    1  <O>11       0.0498
  24 C19       7.4213     0.9528    -1.6663  C.ar    1  <O>11       0.2748
  25 O2        6.8651    -0.2620    -2.1105  O.2     1  <O>11      -0.2656
  26 H1        5.2515     0.2914    -0.6239  H       1  <O>11       0.0474
  27 H2        4.6926     1.9775    -0.5096  H       1  <O>11       0.0474
  28 H3        5.5714     1.2371     0.8498  H       1  <O>11       0.0474
  29 H4        9.7939     4.6854    -0.1362  H       1  <O>11       0.0423
  30 H5        8.0877     5.1783    -0.0094  H       1  <O>11       0.0423
  31 H6        9.5495     7.2604    -0.9373  H       1  <O>11       0.1487
  32 H7        8.5375     7.6425    -3.5863  H       1  <O>11       0.0465
  33 H8       10.2434     7.1484    -3.7119  H       1  <O>11       0.0465
  34 H9        9.1805     9.4870    -2.0766  H       1  <O>11       0.0329
  35 H10      10.0300     9.6096    -3.6347  H       1  <O>11       0.0329
  36 H11      11.4237     6.8726    -2.0856  H       1  <O>11       0.0621
  37 H12      13.5438     6.7982    -0.9075  H       1  <O>11       0.0618
  38 H13      14.5957     8.8554    -0.1544  H       1  <O>11       0.0618
  39 H14      13.5157    10.9890    -0.5856  H       1  <O>11       0.0646
  40 H15      10.8555     3.8484    -2.0753  H       1  <O>11       0.0624
  41 H16      12.1168     2.3803    -3.5283  H       1  <O>11       0.0618
  42 H17      11.2155     0.2156    -4.1423  H       1  <O>11       0.0618
  43 H18       9.0548    -0.4786    -3.3016  H       1  <O>11       0.0625
@<TRIPOS>BOND
     1     1     2    1
     2     2     3   ar
     3     3     4   ar
     4     4     5    1
     5     5     6    1
     6     6     7    2
     7     6     8   am
     8     8     9    1
     9     9    10    1
    10    10    11    1
    11    11    12   ar
    12    12    13   ar
    13    13    14   ar
    14    14    15   ar
    15    15    16   ar
    16    11    16   ar
    17    16    17    1
    18     4    18   ar
    19    18    19   ar
    20    19    20   ar
    21    20    21   ar
    22    21    22   ar
    23    22    23   ar
    24    18    23   ar
    25    23    24   ar
    26     2    24   ar
    27    24    25    2
    28     1    26    1
    29     1    27    1
    30     1    28    1
    31     5    29    1
    32     5    30    1
    33     8    31    1
    34     9    32    1
    35     9    33    1
    36    10    34    1
    37    10    35    1
    38    12    36    1
    39    13    37    1
    40    14    38    1
    41    15    39    1
    42    19    40    1
    43    20    41    1
    44    21    42    1
    45    22    43    1
@<TRIPOS>MOLECULE
mol17_1_20
 43 45 0 0 0
SMALL
USER_CHARGES
****
VDW energy = -40.30
@<TRIPOS>ATOM
   1 C1        5.4866     1.2825    -0.2360  C.3     1  <O>11       0.0340
   2 N1        6.7347     1.7343    -0.7968  N.ar    1  <O>11      -0.2318
   3 N2        7.2340     2.9457    -0.4598  N.ar    1  <O>11      -0.1724
   4 C2        8.4134     3.3437    -0.9933  C.ar    1  <O>11       0.0783
   5 C3        8.8350     4.7170    -0.6550  C.3     1  <O>11       0.0685
   6 C4        7.8110     5.3490     0.2270  C.2     1  <O>11       0.2189
   7 O1        6.8140     4.7210     0.5520  O.2     1  <O>11      -0.2754
   8 N3        7.9870     6.6320     0.6720  N.am    1  <O>11      -0.3147
   9 C5        6.9830     7.2490     1.5350  C.3     1  <O>11       0.0157
  10 C6        7.4160     8.6640     1.8840  C.3     1  <O>11      -0.0093
  11 C7        6.3950     9.2900     2.7610  C.ar    1  <O>11      -0.0107
  12 C8        5.2460     8.5700     3.1370  C.ar    1  <O>11      -0.0558
  13 C9        4.2780     9.1640     3.9530  C.ar    1  <O>11      -0.0613
  14 C10       4.4460    10.4750     4.4040  C.ar    1  <O>11      -0.0590
  15 C11       5.5910    11.1900     4.0350  C.ar    1  <O>11      -0.0262
  16 C12       6.5650    10.6050     3.2240  C.ar    1  <O>11       0.1266
  17 F1        7.6920    11.3020     2.8680  F       1  <O>11      -0.2052
  18 C13       9.2100     2.5349    -1.8162  C.ar    1  <O>11       0.0108
  19 C14      10.4688     2.9255    -2.3277  C.ar    1  <O>11      -0.0521
  20 C15      11.1965     2.0826    -3.1684  C.ar    1  <O>11      -0.0611
  21 C16      10.6797     0.8410    -3.5204  C.ar    1  <O>11      -0.0610
  22 C17       9.4353     0.4418    -3.0314  C.ar    1  <O>11      -0.0487
  23 C18       8.6875     1.2787    -2.1714  C.ar    1  <O>11       0.0498
  24 C19       7.4213     0.9528    -1.6663  C.ar    1  <O>11       0.2748
  25 O2        6.8651    -0.2620    -2.1105  O.2     1  <O>11      -0.2656
  26 H1        5.2515     0.2914    -0.6239  H       1  <O>11       0.0474
  27 H2        4.6926     1.9775    -0.5096  H       1  <O>11       0.0474
  28 H3        5.5714     1.2371     0.8498  H       1  <O>11       0.0474
  29 H4        8.9360     5.3020    -1.5700  H       1  <O>11       0.0423
  30 H5        9.7930     4.6860    -0.1360  H       1  <O>11       0.0423
  31 H6        8.8190     7.1550     0.4010  H       1  <O>11       0.1487
  32 H7        6.8820     6.6640     2.4490  H       1  <O>11       0.0465
  33 H8        6.0260     7.2790     1.0140  H       1  <O>11       0.0465
  34 H9        7.5180     9.2470     0.9680  H       1  <O>11       0.0329
  35 H10       8.3730     8.6330     2.4020  H       1  <O>11       0.0329
  36 H11       5.1172     7.5999     2.8094  H       1  <O>11       0.0621
  37 H12       3.4362     8.6315     4.2229  H       1  <O>11       0.0618
  38 H13       3.7308    10.9134     5.0051  H       1  <O>11       0.0618
  39 H14       5.7166    12.1595     4.3658  H       1  <O>11       0.0646
  40 H15      10.8555     3.8484    -2.0753  H       1  <O>11       0.0624
  41 H16      12.1168     2.3803    -3.5283  H       1  <O>11       0.0618
  42 H17      11.2155     0.2156    -4.1423  H       1  <O>11       0.0618
  43 H18       9.0548    -0.4786    -3.3016  H       1  <O>11       0.0625
@<TRIPOS>BOND
     1     1     2    1
     2     2     3   ar
     3     3     4   ar
     4     4     5    1
     5     5     6    1
     6     6     7    2
     7     6     8   am
     8     8     9    1
     9     9    10    1
    10    10    11    1
    11    11    12   ar
    12    12    13   ar
    13    13    14   ar
    14    14    15   ar
    15    15    16   ar
    16    11    16   ar
    17    16    17    1
    18     4    18   ar
    19    18    19   ar
    20    19    20   ar
    21    20    21   ar
    22    21    22   ar
    23    22    23   ar
    24    18    23   ar
    25    23    24   ar
    26     2    24   ar
    27    24    25    2
    28     1    26    1
    29     1    27    1
    30     1    28    1
    31     5    29    1
    32     5    30    1
    33     8    31    1
    34     9    32    1
    35     9    33    1
    36    10    34    1
    37    10    35    1
    38    12    36    1
    39    13    37    1
    40    14    38    1
    41    15    39    1
    42    19    40    1
    43    20    41    1
    44    21    42    1
    45    22    43    1
@<TRIPOS>MOLECULE
mol17_1_21
 43 45 0 0 0
SMALL
USER_CHARGES
****
VDW energy = -39.76
@<TRIPOS>ATOM
   1 C1        5.4866     1.2825    -0.2360  C.3     1  <O>11       0.0340
   2 N1        6.7347     1.7343    -0.7968  N.ar    1  <O>11      -0.2318
   3 N2        7.2340     2.9457    -0.4598  N.ar    1  <O>11      -0.1724
   4 C2        8.4134     3.3437    -0.9933  C.ar    1  <O>11       0.0783
   5 C3        8.8350     4.7170    -0.6550  C.3     1  <O>11       0.0685
   6 C4        8.9745     5.5174    -1.9064  C.2     1  <O>11       0.2189
   7 O1        8.7455     5.0006    -2.9901  O.2     1  <O>11      -0.2754
   8 N3        9.3593     6.8299    -1.8416  N.am    1  <O>11      -0.3147
   9 C5        9.6334     7.4467    -0.5462  C.3     1  <O>11       0.0157
  10 C6       10.0388     8.8975    -0.7519  C.3     1  <O>11      -0.0093
  11 C7        8.9352     9.6273    -1.4250  C.ar    1  <O>11      -0.0107
  12 C8        7.7463     8.9564    -1.7661  C.ar    1  <O>11      -0.0558
  13 C9        6.7115     9.6408    -2.4115  C.ar    1  <O>11      -0.0613
  14 C10       6.8487    10.9962    -2.7191  C.ar    1  <O>11      -0.0590
  15 C11       8.0286    11.6655    -2.3754  C.ar    1  <O>11      -0.0262
  16 C12       9.0660    10.9925    -1.7277  C.ar    1  <O>11       0.1266
  17 F1       10.2203    11.6493    -1.3829  F       1  <O>11      -0.2052
  18 C13       9.2100     2.5349    -1.8162  C.ar    1  <O>11       0.0108
  19 C14      10.4688     2.9255    -2.3277  C.ar    1  <O>11      -0.0521
  20 C15      11.1965     2.0826    -3.1684  C.ar    1  <O>11      -0.0611
  21 C16      10.6797     0.8410    -3.5204  C.ar    1  <O>11      -0.0610
  22 C17       9.4353     0.4418    -3.0314  C.ar    1  <O>11      -0.0487
  23 C18       8.6875     1.2787    -2.1714  C.ar    1  <O>11       0.0498
  24 C19       7.4213     0.9528    -1.6663  C.ar    1  <O>11       0.2748
  25 O2        6.8651    -0.2620    -2.1105  O.2     1  <O>11      -0.2656
  26 H1        5.2515     0.2914    -0.6239  H       1  <O>11       0.0474
  27 H2        4.6926     1.9775    -0.5096  H       1  <O>11       0.0474
  28 H3        5.5714     1.2371     0.8498  H       1  <O>11       0.0474
  29 H4        9.7939     4.6854    -0.1362  H       1  <O>11       0.0423
  30 H5        8.0877     5.1783    -0.0094  H       1  <O>11       0.0423
  31 H6        9.4547     7.3751    -2.6977  H       1  <O>11       0.1487
  32 H7       10.4434     6.9094    -0.0532  H       1  <O>11       0.0465
  33 H8        8.7374     7.4032     0.0730  H       1  <O>11       0.0465
  34 H9       10.9352     8.9378    -1.3718  H       1  <O>11       0.0329
  35 H10      10.2450     9.3567     0.2133  H       1  <O>11       0.0329
  36 H11       7.6375     7.9556    -1.5391  H       1  <O>11       0.0621
  37 H12       5.8431     9.1424    -2.6615  H       1  <O>11       0.0618
  38 H13       6.0853    11.5005    -3.1965  H       1  <O>11       0.0618
  39 H14       8.1330    12.6667    -2.6031  H       1  <O>11       0.0646
  40 H15      10.8555     3.8484    -2.0753  H       1  <O>11       0.0624
  41 H16      12.1168     2.3803    -3.5283  H       1  <O>11       0.0618
  42 H17      11.2155     0.2156    -4.1423  H       1  <O>11       0.0618
  43 H18       9.0548    -0.4786    -3.3016  H       1  <O>11       0.0625
@<TRIPOS>BOND
     1     1     2    1
     2     2     3   ar
     3     3     4   ar
     4     4     5    1
     5     5     6    1
     6     6     7    2
     7     6     8   am
     8     8     9    1
     9     9    10    1
    10    10    11    1
    11    11    12   ar
    12    12    13   ar
    13    13    14   ar
    14    14    15   ar
    15    15    16   ar
    16    11    16   ar
    17    16    17    1
    18     4    18   ar
    19    18    19   ar
    20    19    20   ar
    21    20    21   ar
    22    21    22   ar
    23    22    23   ar
    24    18    23   ar
    25    23    24   ar
    26     2    24   ar
    27    24    25    2
    28     1    26    1
    29     1    27    1
    30     1    28    1
    31     5    29    1
    32     5    30    1
    33     8    31    1
    34     9    32    1
    35     9    33    1
    36    10    34    1
    37    10    35    1
    38    12    36    1
    39    13    37    1
    40    14    38    1
    41    15    39    1
    42    19    40    1
    43    20    41    1
    44    21    42    1
    45    22    43    1
@<TRIPOS>MOLECULE
mol17_1_22
 43 45 0 0 0
SMALL
USER_CHARGES
****
VDW energy = -38.96
@<TRIPOS>ATOM
   1 C1        5.4866     1.2825    -0.2360  C.3     1  <O>11       0.0340
   2 N1        6.7347     1.7343    -0.7968  N.ar    1  <O>11      -0.2318
   3 N2        7.2340     2.9457    -0.4598  N.ar    1  <O>11      -0.1724
   4 C2        8.4134     3.3437    -0.9933  C.ar    1  <O>11       0.0783
   5 C3        8.8350     4.7170    -0.6550  C.3     1  <O>11       0.0685
   6 C4        7.8110     5.3490     0.2270  C.2     1  <O>11       0.2189
   7 O1        7.4361     6.4912     0.0058  O.2     1  <O>11      -0.2754
   8 N3        7.2915     4.6508     1.2842  N.am    1  <O>11      -0.3147
   9 C5        6.2895     5.2716     2.1468  C.3     1  <O>11       0.0157
  10 C6        5.2612     5.9930     1.2902  C.3     1  <O>11      -0.0093
  11 C7        4.2434     6.6235     2.1678  C.ar    1  <O>11      -0.0107
  12 C8        4.4272     7.9378     2.6357  C.ar    1  <O>11      -0.0558
  13 C9        3.4745     8.5274     3.4726  C.ar    1  <O>11      -0.0613
  14 C10       2.3316     7.8177     3.8474  C.ar    1  <O>11      -0.0590
  15 C11       2.1453     6.5125     3.3782  C.ar    1  <O>11      -0.0262
  16 C12       3.0884     5.9162     2.5394  C.ar    1  <O>11       0.1266
  17 F1        2.9032     4.6395     2.0720  F       1  <O>11      -0.2052
  18 C13       9.2100     2.5349    -1.8162  C.ar    1  <O>11       0.0108
  19 C14      10.4688     2.9255    -2.3277  C.ar    1  <O>11      -0.0521
  20 C15      11.1965     2.0826    -3.1684  C.ar    1  <O>11      -0.0611
  21 C16      10.6797     0.8410    -3.5204  C.ar    1  <O>11      -0.0610
  22 C17       9.4353     0.4418    -3.0314  C.ar    1  <O>11      -0.0487
  23 C18       8.6875     1.2787    -2.1714  C.ar    1  <O>11       0.0498
  24 C19       7.4213     0.9528    -1.6663  C.ar    1  <O>11       0.2748
  25 O2        6.8651    -0.2620    -2.1105  O.2     1  <O>11      -0.2656
  26 H1        5.2515     0.2914    -0.6239  H       1  <O>11       0.0474
  27 H2        4.6926     1.9775    -0.5096  H       1  <O>11       0.0474
  28 H3        5.5714     1.2371     0.8498  H       1  <O>11       0.0474
  29 H4        8.9360     5.3020    -1.5700  H       1  <O>11       0.0423
  30 H5        9.7930     4.6860    -0.1360  H       1  <O>11       0.0423
  31 H6        7.6043     3.6980     1.4678  H       1  <O>11       0.1487
  32 H7        6.7755     5.9865     2.8104  H       1  <O>11       0.0465
  33 H8        5.7945     4.5023     2.7396  H       1  <O>11       0.0465
  34 H9        4.7773     5.2761     0.6259  H       1  <O>11       0.0329
  35 H10       5.7569     6.7593     0.6968  H       1  <O>11       0.0329
  36 H11       5.2682     8.4686     2.3601  H       1  <O>11       0.0621
  37 H12       3.6166     9.4906     3.8146  H       1  <O>11       0.0618
  38 H13       1.6294     8.2527     4.4661  H       1  <O>11       0.0618
  39 H14       1.3023     5.9855     3.6552  H       1  <O>11       0.0646
  40 H15      10.8555     3.8484    -2.0753  H       1  <O>11       0.0624
  41 H16      12.1168     2.3803    -3.5283  H       1  <O>11       0.0618
  42 H17      11.2155     0.2156    -4.1423  H       1  <O>11       0.0618
  43 H18       9.0548    -0.4786    -3.3016  H       1  <O>11       0.0625
@<TRIPOS>BOND
     1     1     2    1
     2     2     3   ar
     3     3     4   ar
     4     4     5    1
     5     5     6    1
     6     6     7    2
     7     6     8   am
     8     8     9    1
     9     9    10    1
    10    10    11    1
    11    11    12   ar
    12    12    13   ar
    13    13    14   ar
    14    14    15   ar
    15    15    16   ar
    16    11    16   ar
    17    16    17    1
    18     4    18   ar
    19    18    19   ar
    20    19    20   ar
    21    20    21   ar
    22    21    22   ar
    23    22    23   ar
    24    18    23   ar
    25    23    24   ar
    26     2    24   ar
    27    24    25    2
    28     1    26    1
    29     1    27    1
    30     1    28    1
    31     5    29    1
    32     5    30    1
    33     8    31    1
    34     9    32    1
    35     9    33    1
    36    10    34    1
    37    10    35    1
    38    12    36    1
    39    13    37    1
    40    14    38    1
    41    15    39    1
    42    19    40    1
    43    20    41    1
    44    21    42    1
    45    22    43    1
@<TRIPOS>MOLECULE
mol17_1_23
 43 45 0 0 0
SMALL
USER_CHARGES
****
VDW energy = -38.16
@<TRIPOS>ATOM
   1 C1        5.4866     1.2825    -0.2360  C.3     1  <O>11       0.0340
   2 N1        6.7347     1.7343    -0.7968  N.ar    1  <O>11      -0.2318
   3 N2        7.2340     2.9457    -0.4598  N.ar    1  <O>11      -0.1724
   4 C2        8.4134     3.3437    -0.9933  C.ar    1  <O>11       0.0783
   5 C3        8.8350     4.7170    -0.6550  C.3     1  <O>11       0.0685
   6 C4       10.1458     4.6743     0.0562  C.2     1  <O>11       0.2189
   7 O1       10.6906     3.6008     0.2682  O.2     1  <O>11      -0.2754
   8 N3       10.7386     5.8365     0.4720  N.am    1  <O>11      -0.3147
   9 C5       12.0217     5.7924     1.1686  C.3     1  <O>11       0.0157
  10 C6       12.4570     7.2066     1.5180  C.3     1  <O>11      -0.0093
  11 C7       12.5962     8.0017     0.2722  C.ar    1  <O>11      -0.0107
  12 C8       12.3335     7.4120    -0.9781  C.ar    1  <O>11      -0.0558
  13 C9       12.4766     8.1575    -2.1526  C.ar    1  <O>11      -0.0613
  14 C10      12.8778     9.4938    -2.0935  C.ar    1  <O>11      -0.0590
  15 C11      13.1341    10.0827    -0.8501  C.ar    1  <O>11      -0.0262
  16 C12      12.9905     9.3485     0.3285  C.ar    1  <O>11       0.1266
  17 F1       13.2336     9.9268     1.5488  F       1  <O>11      -0.2052
  18 C13       9.2100     2.5349    -1.8162  C.ar    1  <O>11       0.0108
  19 C14      10.4688     2.9255    -2.3277  C.ar    1  <O>11      -0.0521
  20 C15      11.1965     2.0826    -3.1684  C.ar    1  <O>11      -0.0611
  21 C16      10.6797     0.8410    -3.5204  C.ar    1  <O>11      -0.0610
  22 C17       9.4353     0.4418    -3.0314  C.ar    1  <O>11      -0.0487
  23 C18       8.6875     1.2787    -2.1714  C.ar    1  <O>11       0.0498
  24 C19       7.4213     0.9528    -1.6663  C.ar    1  <O>11       0.2748
  25 O2        6.8651    -0.2620    -2.1105  O.2     1  <O>11      -0.2656
  26 H1        5.2515     0.2914    -0.6239  H       1  <O>11       0.0474
  27 H2        4.6926     1.9775    -0.5096  H       1  <O>11       0.0474
  28 H3        5.5714     1.2371     0.8498  H       1  <O>11       0.0474
  29 H4        8.0870     5.1781    -0.0089  H       1  <O>11       0.0423
  30 H5        8.9359     5.3022    -1.5691  H       1  <O>11       0.0423
  31 H6       10.2840     6.7315     0.2944  H       1  <O>11       0.1487
  32 H7       12.7688     5.3312     0.5229  H       1  <O>11       0.0465
  33 H8       11.9184     5.2069     2.0822  H       1  <O>11       0.0465
  34 H9       13.4149     7.1717     2.0382  H       1  <O>11       0.0329
  35 H10      11.7108     7.6666     2.1635  H       1  <O>11       0.0329
  36 H11      12.0340     6.4257    -1.0285  H       1  <O>11       0.0621
  37 H12      12.2851     7.7183    -3.0667  H       1  <O>11       0.0618
  38 H13      12.9846    10.0432    -2.9605  H       1  <O>11       0.0618
  39 H14      13.4321    11.0697    -0.8039  H       1  <O>11       0.0646
  40 H15      10.8555     3.8484    -2.0753  H       1  <O>11       0.0624
  41 H16      12.1168     2.3803    -3.5283  H       1  <O>11       0.0618
  42 H17      11.2155     0.2156    -4.1423  H       1  <O>11       0.0618
  43 H18       9.0548    -0.4786    -3.3016  H       1  <O>11       0.0625
@<TRIPOS>BOND
     1     1     2    1
     2     2     3   ar
     3     3     4   ar
     4     4     5    1
     5     5     6    1
     6     6     7    2
     7     6     8   am
     8     8     9    1
     9     9    10    1
    10    10    11    1
    11    11    12   ar
    12    12    13   ar
    13    13    14   ar
    14    14    15   ar
    15    15    16   ar
    16    11    16   ar
    17    16    17    1
    18     4    18   ar
    19    18    19   ar
    20    19    20   ar
    21    20    21   ar
    22    21    22   ar
    23    22    23   ar
    24    18    23   ar
    25    23    24   ar
    26     2    24   ar
    27    24    25    2
    28     1    26    1
    29     1    27    1
    30     1    28    1
    31     5    29    1
    32     5    30    1
    33     8    31    1
    34     9    32    1
    35     9    33    1
    36    10    34    1
    37    10    35    1
    38    12    36    1
    39    13    37    1
    40    14    38    1
    41    15    39    1
    42    19    40    1
    43    20    41    1
    44    21    42    1
    45    22    43    1
@<TRIPOS>MOLECULE
mol17_1_24
 43 45 0 0 0
SMALL
USER_CHARGES
****
VDW energy = -37.36
@<TRIPOS>ATOM
   1 C1        5.4866     1.2825    -0.2360  C.3     1  <O>11       0.0340
   2 N1        6.7347     1.7343    -0.7968  N.ar    1  <O>11      -0.2318
   3 N2        7.2340     2.9457    -0.4598  N.ar    1  <O>11      -0.1724
   4 C2        8.4134     3.3437    -0.9933  C.ar    1  <O>11       0.0783
   5 C3        8.8350     4.7170    -0.6550  C.3     1  <O>11       0.0685
   6 C4       10.1458     4.6743     0.0562  C.2     1  <O>11       0.2189
   7 O1       10.6906     3.6008     0.2682  O.2     1  <O>11      -0.2754
   8 N3       10.7386     5.8365     0.4720  N.am    1  <O>11      -0.3147
   9 C5       10.0868     7.1190     0.2190  C.3     1  <O>11       0.0157
  10 C6       10.9458     8.2423     0.7774  C.3     1  <O>11      -0.0093
  11 C7       11.1161     8.0526     2.2398  C.ar    1  <O>11      -0.0107
  12 C8       10.5186     6.9550     2.8865  C.ar    1  <O>11      -0.0558
  13 C9       10.6686     6.7830     4.2662  C.ar    1  <O>11      -0.0613
  14 C10      11.4155     7.6973     5.0122  C.ar    1  <O>11      -0.0590
  15 C11      12.0145     8.7863     4.3691  C.ar    1  <O>11      -0.0262
  16 C12      11.8741     8.9650     2.9918  C.ar    1  <O>11       0.1266
  17 F1       12.4676    10.0277     2.3585  F       1  <O>11      -0.2052
  18 C13       9.2100     2.5349    -1.8162  C.ar    1  <O>11       0.0108
  19 C14      10.4688     2.9255    -2.3277  C.ar    1  <O>11      -0.0521
  20 C15      11.1965     2.0826    -3.1684  C.ar    1  <O>11      -0.0611
  21 C16      10.6797     0.8410    -3.5204  C.ar    1  <O>11      -0.0610
  22 C17       9.4353     0.4418    -3.0314  C.ar    1  <O>11      -0.0487
  23 C18       8.6875     1.2787    -2.1714  C.ar    1  <O>11       0.0498
  24 C19       7.4213     0.9528    -1.6663  C.ar    1  <O>11       0.2748
  25 O2        6.8651    -0.2620    -2.1105  O.2     1  <O>11      -0.2656
  26 H1        5.2515     0.2914    -0.6239  H       1  <O>11       0.0474
  27 H2        4.6926     1.9775    -0.5096  H       1  <O>11       0.0474
  28 H3        5.5714     1.2371     0.8498  H       1  <O>11       0.0474
  29 H4        8.0870     5.1781    -0.0089  H       1  <O>11       0.0423
  30 H5        8.9359     5.3022    -1.5691  H       1  <O>11       0.0423
  31 H6       11.6340     5.8054     0.9584  H       1  <O>11       0.1487
  32 H7        9.1112     7.1317     0.7047  H       1  <O>11       0.0465
  33 H8        9.9610     7.2561    -0.8550  H       1  <O>11       0.0465
  34 H9       10.4579     9.1990     0.5873  H       1  <O>11       0.0329
  35 H10      11.9199     8.2297     0.2916  H       1  <O>11       0.0329
  36 H11       9.9678     6.2742     2.3405  H       1  <O>11       0.0621
  37 H12      10.2255     5.9774     4.7349  H       1  <O>11       0.0618
  38 H13      11.5248     7.5708     6.0306  H       1  <O>11       0.0618
  39 H14      12.5657     9.4642     4.9185  H       1  <O>11       0.0646
  40 H15      10.8555     3.8484    -2.0753  H       1  <O>11       0.0624
  41 H16      12.1168     2.3803    -3.5283  H       1  <O>11       0.0618
  42 H17      11.2155     0.2156    -4.1423  H       1  <O>11       0.0618
  43 H18       9.0548    -0.4786    -3.3016  H       1  <O>11       0.0625
@<TRIPOS>BOND
     1     1     2    1
     2     2     3   ar
     3     3     4   ar
     4     4     5    1
     5     5     6    1
     6     6     7    2
     7     6     8   am
     8     8     9    1
     9     9    10    1
    10    10    11    1
    11    11    12   ar
    12    12    13   ar
    13    13    14   ar
    14    14    15   ar
    15    15    16   ar
    16    11    16   ar
    17    16    17    1
    18     4    18   ar
    19    18    19   ar
    20    19    20   ar
    21    20    21   ar
    22    21    22   ar
    23    22    23   ar
    24    18    23   ar
    25    23    24   ar
    26     2    24   ar
    27    24    25    2
    28     1    26    1
    29     1    27    1
    30     1    28    1
    31     5    29    1
    32     5    30    1
    33     8    31    1
    34     9    32    1
    35     9    33    1
    36    10    34    1
    37    10    35    1
    38    12    36    1
    39    13    37    1
    40    14    38    1
    41    15    39    1
    42    19    40    1
    43    20    41    1
    44    21    42    1
    45    22    43    1
@<TRIPOS>MOLECULE
mol17_1_25
 43 45 0 0 0
SMALL
USER_CHARGES
****
VDW energy = -36.47
@<TRIPOS>ATOM
   1 C1        5.4866     1.2825    -0.2360  C.3     1  <O>11       0.0340
   2 N1        6.7347     1.7343    -0.7968  N.ar    1  <O>11      -0.2318
   3 N2        7.2340     2.9457    -0.4598  N.ar    1  <O>11      -0.1724
   4 C2        8.4134     3.3437    -0.9933  C.ar    1  <O>11       0.0783
   5 C3        8.8350     4.7170    -0.6550  C.3     1  <O>11       0.0685
   6 C4        7.8110     5.3490     0.2270  C.2     1  <O>11       0.2189
   7 O1        6.8140     4.7210     0.5520  O.2     1  <O>11      -0.2754
   8 N3        7.9870     6.6320     0.6720  N.am    1  <O>11      -0.3147
   9 C5        6.9830     7.2490     1.5350  C.3     1  <O>11       0.0157
  10 C6        6.5537     6.2555     2.6028  C.3     1  <O>11      -0.0093
  11 C7        5.5334     6.8836     3.4792  C.ar    1  <O>11      -0.0107
  12 C8        4.1661     6.7760     3.1650  C.ar    1  <O>11      -0.0558
  13 C9        3.2055     7.3783     3.9837  C.ar    1  <O>11      -0.0613
  14 C10       3.5958     8.0880     5.1214  C.ar    1  <O>11      -0.0590
  15 C11       4.9551     8.1909     5.4377  C.ar    1  <O>11      -0.0262
  16 C12       5.9216     7.5902     4.6291  C.ar    1  <O>11       0.1266
  17 F1        7.2542     7.6835     4.9423  F       1  <O>11      -0.2052
  18 C13       9.2100     2.5349    -1.8162  C.ar    1  <O>11       0.0108
  19 C14      10.4688     2.9255    -2.3277  C.ar    1  <O>11      -0.0521
  20 C15      11.1965     2.0826    -3.1684  C.ar    1  <O>11      -0.0611
  21 C16      10.6797     0.8410    -3.5204  C.ar    1  <O>11      -0.0610
  22 C17       9.4353     0.4418    -3.0314  C.ar    1  <O>11      -0.0487
  23 C18       8.6875     1.2787    -2.1714  C.ar    1  <O>11       0.0498
  24 C19       7.4213     0.9528    -1.6663  C.ar    1  <O>11       0.2748
  25 O2        6.8651    -0.2620    -2.1105  O.2     1  <O>11      -0.2656
  26 H1        5.2515     0.2914    -0.6239  H       1  <O>11       0.0474
  27 H2        4.6926     1.9775    -0.5096  H       1  <O>11       0.0474
  28 H3        5.5714     1.2371     0.8498  H       1  <O>11       0.0474
  29 H4        8.9360     5.3020    -1.5700  H       1  <O>11       0.0423
  30 H5        9.7930     4.6860    -0.1360  H       1  <O>11       0.0423
  31 H6        8.8190     7.1550     0.4010  H       1  <O>11       0.1487
  32 H7        6.1182     7.5361     0.9370  H       1  <O>11       0.0465
  33 H8        7.4073     8.1336     2.0100  H       1  <O>11       0.0465
  34 H9        7.4207     5.9684     3.1988  H       1  <O>11       0.0329
  35 H10       6.1324     5.3715     2.1272  H       1  <O>11       0.0329
  36 H11       3.8710     6.2506     2.3272  H       1  <O>11       0.0621
  37 H12       2.2045     7.2980     3.7462  H       1  <O>11       0.0618
  38 H13       2.8867     8.5334     5.7246  H       1  <O>11       0.0618
  39 H14       5.2460     8.7162     6.2771  H       1  <O>11       0.0646
  40 H15      10.8555     3.8484    -2.0753  H       1  <O>11       0.0624
  41 H16      12.1168     2.3803    -3.5283  H       1  <O>11       0.0618
  42 H17      11.2155     0.2156    -4.1423  H       1  <O>11       0.0618
  43 H18       9.0548    -0.4786    -3.3016  H       1  <O>11       0.0625
@<TRIPOS>BOND
     1     1     2    1
     2     2     3   ar
     3     3     4   ar
     4     4     5    1
     5     5     6    1
     6     6     7    2
     7     6     8   am
     8     8     9    1
     9     9    10    1
    10    10    11    1
    11    11    12   ar
    12    12    13   ar
    13    13    14   ar
    14    14    15   ar
    15    15    16   ar
    16    11    16   ar
    17    16    17    1
    18     4    18   ar
    19    18    19   ar
    20    19    20   ar
    21    20    21   ar
    22    21    22   ar
    23    22    23   ar
    24    18    23   ar
    25    23    24   ar
    26     2    24   ar
    27    24    25    2
    28     1    26    1
    29     1    27    1
    30     1    28    1
    31     5    29    1
    32     5    30    1
    33     8    31    1
    34     9    32    1
    35     9    33    1
    36    10    34    1
    37    10    35    1
    38    12    36    1
    39    13    37    1
    40    14    38    1
    41    15    39    1
    42    19    40    1
    43    20    41    1
    44    21    42    1
    45    22    43    1
@<TRIPOS>MOLECULE
mol17_1_26
 43 45 0 0 0
SMALL
USER_CHARGES
****
VDW energy = -35.35
@<TRIPOS>ATOM
   1 C1        5.4866     1.2825    -0.2360  C.3     1  <O>11       0.0340
   2 N1        6.7347     1.7343    -0.7968  N.ar    1  <O>11      -0.2318
   3 N2        7.2340     2.9457    -0.4598  N.ar    1  <O>11      -0.1724
   4 C2        8.4134     3.3437    -0.9933  C.ar    1  <O>11       0.0783
   5 C3        8.8350     4.7170    -0.6550  C.3     1  <O>11       0.0685
   6 C4        7.8110     5.3490     0.2270  C.2     1  <O>11       0.2189
   7 O1        6.8140     4.7210     0.5520  O.2     1  <O>11      -0.2754
   8 N3        7.9870     6.6320     0.6720  N.am    1  <O>11      -0.3147
   9 C5        6.9830     7.2490     1.5350  C.3     1  <O>11       0.0157
  10 C6        5.5949     6.9449     0.9945  C.3     1  <O>11      -0.0093
  11 C7        4.5755     7.5723     1.8722  C.ar    1  <O>11      -0.0107
  12 C8        4.1297     8.8823     1.6168  C.ar    1  <O>11      -0.0558
  13 C9        3.1785     9.4781     2.4510  C.ar    1  <O>11      -0.0613
  14 C10       2.6610     8.7763     3.5418  C.ar    1  <O>11      -0.0590
  15 C11       3.0997     7.4715     3.7935  C.ar    1  <O>11      -0.0262
  16 C12       4.0460     6.8662     2.9647  C.ar    1  <O>11       0.1266
  17 F1        4.4711     5.5841     3.2055  F       1  <O>11      -0.2052
  18 C13       9.2100     2.5349    -1.8162  C.ar    1  <O>11       0.0108
  19 C14      10.4688     2.9255    -2.3277  C.ar    1  <O>11      -0.0521
  20 C15      11.1965     2.0826    -3.1684  C.ar    1  <O>11      -0.0611
  21 C16      10.6797     0.8410    -3.5204  C.ar    1  <O>11      -0.0610
  22 C17       9.4353     0.4418    -3.0314  C.ar    1  <O>11      -0.0487
  23 C18       8.6875     1.2787    -2.1714  C.ar    1  <O>11       0.0498
  24 C19       7.4213     0.9528    -1.6663  C.ar    1  <O>11       0.2748
  25 O2        6.8651    -0.2620    -2.1105  O.2     1  <O>11      -0.2656
  26 H1        5.2515     0.2914    -0.6239  H       1  <O>11       0.0474
  27 H2        4.6926     1.9775    -0.5096  H       1  <O>11       0.0474
  28 H3        5.5714     1.2371     0.8498  H       1  <O>11       0.0474
  29 H4        8.9360     5.3020    -1.5700  H       1  <O>11       0.0423
  30 H5        9.7930     4.6860    -0.1360  H       1  <O>11       0.0423
  31 H6        8.8190     7.1550     0.4010  H       1  <O>11       0.1487
  32 H7        7.1366     8.3278     1.5557  H       1  <O>11       0.0465
  33 H8        7.0767     6.8482     2.5443  H       1  <O>11       0.0465
  34 H9        5.4440     5.8650     0.9731  H       1  <O>11       0.0329
  35 H10       5.5033     7.3433    -0.0145  H       1  <O>11       0.0329
  36 H11       4.5061     9.4053     0.8107  H       1  <O>11       0.0621
  37 H12       2.8578    10.4402     2.2598  H       1  <O>11       0.0618
  38 H13       1.9600     9.2168     4.1579  H       1  <O>11       0.0618
  39 H14       2.7198     6.9514     4.6000  H       1  <O>11       0.0646
  40 H15      10.8555     3.8484    -2.0753  H       1  <O>11       0.0624
  41 H16      12.1168     2.3803    -3.5283  H       1  <O>11       0.0618
  42 H17      11.2155     0.2156    -4.1423  H       1  <O>11       0.0618
  43 H18       9.0548    -0.4786    -3.3016  H       1  <O>11       0.0625
@<TRIPOS>BOND
     1     1     2    1
     2     2     3   ar
     3     3     4   ar
     4     4     5    1
     5     5     6    1
     6     6     7    2
     7     6     8   am
     8     8     9    1
     9     9    10    1
    10    10    11    1
    11    11    12   ar
    12    12    13   ar
    13    13    14   ar
    14    14    15   ar
    15    15    16   ar
    16    11    16   ar
    17    16    17    1
    18     4    18   ar
    19    18    19   ar
    20    19    20   ar
    21    20    21   ar
    22    21    22   ar
    23    22    23   ar
    24    18    23   ar
    25    23    24   ar
    26     2    24   ar
    27    24    25    2
    28     1    26    1
    29     1    27    1
    30     1    28    1
    31     5    29    1
    32     5    30    1
    33     8    31    1
    34     9    32    1
    35     9    33    1
    36    10    34    1
    37    10    35    1
    38    12    36    1
    39    13    37    1
    40    14    38    1
    41    15    39    1
    42    19    40    1
    43    20    41    1
    44    21    42    1
    45    22    43    1
@<TRIPOS>MOLECULE
mol17_1_27
 43 45 0 0 0
SMALL
USER_CHARGES
****
VDW energy = -30.37
@<TRIPOS>ATOM
   1 C1        5.4866     1.2825    -0.2360  C.3     1  <O>11       0.0340
   2 N1        6.7347     1.7343    -0.7968  N.ar    1  <O>11      -0.2318
   3 N2        7.2340     2.9457    -0.4598  N.ar    1  <O>11      -0.1724
   4 C2        8.4134     3.3437    -0.9933  C.ar    1  <O>11       0.0783
   5 C3        8.8350     4.7170    -0.6550  C.3     1  <O>11       0.0685
   6 C4        7.8110     5.3490     0.2270  C.2     1  <O>11       0.2189
   7 O1        8.1603     5.9686     1.2210  O.2     1  <O>11      -0.2754
   8 N3        6.4805     5.2348    -0.0759  N.am    1  <O>11      -0.3147
   9 C5        5.4796     5.8539     0.7892  C.3     1  <O>11       0.0157
  10 C6        5.8295     5.5818     2.2435  C.3     1  <O>11      -0.0093
  11 C7        4.8118     6.2114     3.1217  C.ar    1  <O>11      -0.0107
  12 C8        3.7355     6.9241     2.5616  C.ar    1  <O>11      -0.0558
  13 C9        2.7835     7.5279     3.3892  C.ar    1  <O>11      -0.0613
  14 C10       2.8916     7.4250     4.7778  C.ar    1  <O>11      -0.0590
  15 C11       3.9586     6.7118     5.3356  C.ar    1  <O>11      -0.0262
  16 C12       4.9121     6.1022     4.5184  C.ar    1  <O>11       0.1266
  17 F1        5.9544     5.3959     5.0637  F       1  <O>11      -0.2052
  18 C13       9.2100     2.5349    -1.8162  C.ar    1  <O>11       0.0108
  19 C14      10.4688     2.9255    -2.3277  C.ar    1  <O>11      -0.0521
  20 C15      11.1965     2.0826    -3.1684  C.ar    1  <O>11      -0.0611
  21 C16      10.6797     0.8410    -3.5204  C.ar    1  <O>11      -0.0610
  22 C17       9.4353     0.4418    -3.0314  C.ar    1  <O>11      -0.0487
  23 C18       8.6875     1.2787    -2.1714  C.ar    1  <O>11       0.0498
  24 C19       7.4213     0.9528    -1.6663  C.ar    1  <O>11       0.2748
  25 O2        6.8651    -0.2620    -2.1105  O.2     1  <O>11      -0.2656
  26 H1        5.2515     0.2914    -0.6239  H       1  <O>11       0.0474
  27 H2        4.6926     1.9775    -0.5096  H       1  <O>11       0.0474
  28 H3        5.5714     1.2371     0.8498  H       1  <O>11       0.0474
  29 H4        8.9360     5.3020    -1.5700  H       1  <O>11       0.0423
  30 H5        9.7930     4.6860    -0.1360  H       1  <O>11       0.0423
  31 H6        6.1899     4.7183    -0.9054  H       1  <O>11       0.1487
  32 H7        4.4988     5.4340     0.5667  H       1  <O>11       0.0465
  33 H8        5.4638     6.9296     0.6135  H       1  <O>11       0.0465
  34 H9        6.8119     6.0014     2.4634  H       1  <O>11       0.0329
  35 H10       5.8475     4.5073     2.4173  H       1  <O>11       0.0329
  36 H11       3.6484     7.0015     1.5362  H       1  <O>11       0.0621
  37 H12       1.9981     8.0516     2.9722  H       1  <O>11       0.0618
  38 H13       2.1895     7.8718     5.3881  H       1  <O>11       0.0618
  39 H14       4.0414     6.6357     6.3615  H       1  <O>11       0.0646
  40 H15      10.8555     3.8484    -2.0753  H       1  <O>11       0.0624
  41 H16      12.1168     2.3803    -3.5283  H       1  <O>11       0.0618
  42 H17      11.2155     0.2156    -4.1423  H       1  <O>11       0.0618
  43 H18       9.0548    -0.4786    -3.3016  H       1  <O>11       0.0625
@<TRIPOS>BOND
     1     1     2    1
     2     2     3   ar
     3     3     4   ar
     4     4     5    1
     5     5     6    1
     6     6     7    2
     7     6     8   am
     8     8     9    1
     9     9    10    1
    10    10    11    1
    11    11    12   ar
    12    12    13   ar
    13    13    14   ar
    14    14    15   ar
    15    15    16   ar
    16    11    16   ar
    17    16    17    1
    18     4    18   ar
    19    18    19   ar
    20    19    20   ar
    21    20    21   ar
    22    21    22   ar
    23    22    23   ar
    24    18    23   ar
    25    23    24   ar
    26     2    24   ar
    27    24    25    2
    28     1    26    1
    29     1    27    1
    30     1    28    1
    31     5    29    1
    32     5    30    1
    33     8    31    1
    34     9    32    1
    35     9    33    1
    36    10    34    1
    37    10    35    1
    38    12    36    1
    39    13    37    1
    40    14    38    1
    41    15    39    1
    42    19    40    1
    43    20    41    1
    44    21    42    1
    45    22    43    1
@<TRIPOS>MOLECULE
mol17_1_28
 43 45 0 0 0
SMALL
USER_CHARGES
****
VDW energy = -27.62
@<TRIPOS>ATOM
   1 C1        5.4866     1.2825    -0.2360  C.3     1  <O>11       0.0340
   2 N1        6.7347     1.7343    -0.7968  N.ar    1  <O>11      -0.2318
   3 N2        7.2340     2.9457    -0.4598  N.ar    1  <O>11      -0.1724
   4 C2        8.4134     3.3437    -0.9933  C.ar    1  <O>11       0.0783
   5 C3        8.8350     4.7170    -0.6550  C.3     1  <O>11       0.0685
   6 C4        7.8110     5.3490     0.2270  C.2     1  <O>11       0.2189
   7 O1        6.8140     4.7210     0.5520  O.2     1  <O>11      -0.2754
   8 N3        7.9870     6.6320     0.6720  N.am    1  <O>11      -0.3147
   9 C5        6.9830     7.2490     1.5350  C.3     1  <O>11       0.0157
  10 C6        6.5537     6.2555     2.6028  C.3     1  <O>11      -0.0093
  11 C7        5.5334     6.8836     3.4792  C.ar    1  <O>11      -0.0107
  12 C8        5.1158     8.2067     3.2452  C.ar    1  <O>11      -0.0558
  13 C9        4.1638     8.8028     4.0784  C.ar    1  <O>11      -0.0613
  14 C10       3.6176     8.0882     5.1467  C.ar    1  <O>11      -0.0590
  15 C11       4.0284     6.7703     5.3769  C.ar    1  <O>11      -0.0262
  16 C12       4.9752     6.1649     4.5489  C.ar    1  <O>11       0.1266
  17 F1        5.3730     4.8702     4.7685  F       1  <O>11      -0.2052
  18 C13       9.2100     2.5349    -1.8162  C.ar    1  <O>11       0.0108
  19 C14      10.4688     2.9255    -2.3277  C.ar    1  <O>11      -0.0521
  20 C15      11.1965     2.0826    -3.1684  C.ar    1  <O>11      -0.0611
  21 C16      10.6797     0.8410    -3.5204  C.ar    1  <O>11      -0.0610
  22 C17       9.4353     0.4418    -3.0314  C.ar    1  <O>11      -0.0487
  23 C18       8.6875     1.2787    -2.1714  C.ar    1  <O>11       0.0498
  24 C19       7.4213     0.9528    -1.6663  C.ar    1  <O>11       0.2748
  25 O2        6.8651    -0.2620    -2.1105  O.2     1  <O>11      -0.2656
  26 H1        5.2515     0.2914    -0.6239  H       1  <O>11       0.0474
  27 H2        4.6926     1.9775    -0.5096  H       1  <O>11       0.0474
  28 H3        5.5714     1.2371     0.8498  H       1  <O>11       0.0474
  29 H4        8.9360     5.3020    -1.5700  H       1  <O>11       0.0423
  30 H5        9.7930     4.6860    -0.1360  H       1  <O>11       0.0423
  31 H6        8.8190     7.1550     0.4010  H       1  <O>11       0.1487
  32 H7        6.1182     7.5361     0.9370  H       1  <O>11       0.0465
  33 H8        7.4073     8.1336     2.0100  H       1  <O>11       0.0465
  34 H9        7.4207     5.9684     3.1988  H       1  <O>11       0.0329
  35 H10       6.1324     5.3715     2.1272  H       1  <O>11       0.0329
  36 H11       5.5135     8.7393     2.4558  H       1  <O>11       0.0621
  37 H12       3.8637     9.7745     3.9031  H       1  <O>11       0.0618
  38 H13       2.9160     8.5288     5.7621  H       1  <O>11       0.0618
  39 H14       3.6273     6.2407     6.1667  H       1  <O>11       0.0646
  40 H15      10.8555     3.8484    -2.0753  H       1  <O>11       0.0624
  41 H16      12.1168     2.3803    -3.5283  H       1  <O>11       0.0618
  42 H17      11.2155     0.2156    -4.1423  H       1  <O>11       0.0618
  43 H18       9.0548    -0.4786    -3.3016  H       1  <O>11       0.0625
@<TRIPOS>BOND
     1     1     2    1
     2     2     3   ar
     3     3     4   ar
     4     4     5    1
     5     5     6    1
     6     6     7    2
     7     6     8   am
     8     8     9    1
     9     9    10    1
    10    10    11    1
    11    11    12   ar
    12    12    13   ar
    13    13    14   ar
    14    14    15   ar
    15    15    16   ar
    16    11    16   ar
    17    16    17    1
    18     4    18   ar
    19    18    19   ar
    20    19    20   ar
    21    20    21   ar
    22    21    22   ar
    23    22    23   ar
    24    18    23   ar
    25    23    24   ar
    26     2    24   ar
    27    24    25    2
    28     1    26    1
    29     1    27    1
    30     1    28    1
    31     5    29    1
    32     5    30    1
    33     8    31    1
    34     9    32    1
    35     9    33    1
    36    10    34    1
    37    10    35    1
    38    12    36    1
    39    13    37    1
    40    14    38    1
    41    15    39    1
    42    19    40    1
    43    20    41    1
    44    21    42    1
    45    22    43    1
@<TRIPOS>MOLECULE
mol17_1_29
 43 45 0 0 0
SMALL
USER_CHARGES
****
VDW energy = -27.54
@<TRIPOS>ATOM
   1 C1        5.4866     1.2825    -0.2360  C.3     1  <O>11       0.0340
   2 N1        6.7347     1.7343    -0.7968  N.ar    1  <O>11      -0.2318
   3 N2        7.2340     2.9457    -0.4598  N.ar    1  <O>11      -0.1724
   4 C2        8.4134     3.3437    -0.9933  C.ar    1  <O>11       0.0783
   5 C3        8.8350     4.7170    -0.6550  C.3     1  <O>11       0.0685
   6 C4        7.8110     5.3490     0.2270  C.2     1  <O>11       0.2189
   7 O1        6.8140     4.7210     0.5520  O.2     1  <O>11      -0.2754
   8 N3        7.9870     6.6320     0.6720  N.am    1  <O>11      -0.3147
   9 C5        6.9830     7.2490     1.5350  C.3     1  <O>11       0.0157
  10 C6        5.5949     6.9449     0.9945  C.3     1  <O>11      -0.0093
  11 C7        4.5755     7.5723     1.8722  C.ar    1  <O>11      -0.0107
  12 C8        4.9713     8.3109     3.0026  C.ar    1  <O>11      -0.0558
  13 C9        4.0106     8.8916     3.8366  C.ar    1  <O>11      -0.0613
  14 C10       2.6511     8.7460     3.5520  C.ar    1  <O>11      -0.0590
  15 C11       2.2566     8.0163     2.4249  C.ar    1  <O>11      -0.0262
  16 C12       3.2077     7.4359     1.5839  C.ar    1  <O>11       0.1266
  17 F1        2.8227     6.7269     0.4741  F       1  <O>11      -0.2052
  18 C13       9.2100     2.5349    -1.8162  C.ar    1  <O>11       0.0108
  19 C14      10.4688     2.9255    -2.3277  C.ar    1  <O>11      -0.0521
  20 C15      11.1965     2.0826    -3.1684  C.ar    1  <O>11      -0.0611
  21 C16      10.6797     0.8410    -3.5204  C.ar    1  <O>11      -0.0610
  22 C17       9.4353     0.4418    -3.0314  C.ar    1  <O>11      -0.0487
  23 C18       8.6875     1.2787    -2.1714  C.ar    1  <O>11       0.0498
  24 C19       7.4213     0.9528    -1.6663  C.ar    1  <O>11       0.2748
  25 O2        6.8651    -0.2620    -2.1105  O.2     1  <O>11      -0.2656
  26 H1        5.2515     0.2914    -0.6239  H       1  <O>11       0.0474
  27 H2        4.6926     1.9775    -0.5096  H       1  <O>11       0.0474
  28 H3        5.5714     1.2371     0.8498  H       1  <O>11       0.0474
  29 H4        8.9360     5.3020    -1.5700  H       1  <O>11       0.0423
  30 H5        9.7930     4.6860    -0.1360  H       1  <O>11       0.0423
  31 H6        8.8190     7.1550     0.4010  H       1  <O>11       0.1487
  32 H7        7.1366     8.3278     1.5557  H       1  <O>11       0.0465
  33 H8        7.0767     6.8482     2.5443  H       1  <O>11       0.0465
  34 H9        5.4440     5.8650     0.9731  H       1  <O>11       0.0329
  35 H10       5.5033     7.3433    -0.0145  H       1  <O>11       0.0329
  36 H11       5.9743     8.4245     3.2170  H       1  <O>11       0.0621
  37 H12       4.3073     9.4296     4.6658  H       1  <O>11       0.0618
  38 H13       1.9424     9.1736     4.1684  H       1  <O>11       0.0618
  39 H14       1.2525     7.9061     2.2133  H       1  <O>11       0.0646
  40 H15      10.8555     3.8484    -2.0753  H       1  <O>11       0.0624
  41 H16      12.1168     2.3803    -3.5283  H       1  <O>11       0.0618
  42 H17      11.2155     0.2156    -4.1423  H       1  <O>11       0.0618
  43 H18       9.0548    -0.4786    -3.3016  H       1  <O>11       0.0625
@<TRIPOS>BOND
     1     1     2    1
     2     2     3   ar
     3     3     4   ar
     4     4     5    1
     5     5     6    1
     6     6     7    2
     7     6     8   am
     8     8     9    1
     9     9    10    1
    10    10    11    1
    11    11    12   ar
    12    12    13   ar
    13    13    14   ar
    14    14    15   ar
    15    15    16   ar
    16    11    16   ar
    17    16    17    1
    18     4    18   ar
    19    18    19   ar
    20    19    20   ar
    21    20    21   ar
    22    21    22   ar
    23    22    23   ar
    24    18    23   ar
    25    23    24   ar
    26     2    24   ar
    27    24    25    2
    28     1    26    1
    29     1    27    1
    30     1    28    1
    31     5    29    1
    32     5    30    1
    33     8    31    1
    34     9    32    1
    35     9    33    1
    36    10    34    1
    37    10    35    1
    38    12    36    1
    39    13    37    1
    40    14    38    1
    41    15    39    1
    42    19    40    1
    43    20    41    1
    44    21    42    1
    45    22    43    1
@<TRIPOS>MOLECULE
mol17_1_30
 43 45 0 0 0
SMALL
USER_CHARGES
****
VDW energy = -18.99
@<TRIPOS>ATOM
   1 C1        5.4866     1.2825    -0.2360  C.3     1  <O>11       0.0340
   2 N1        6.7347     1.7343    -0.7968  N.ar    1  <O>11      -0.2318
   3 N2        7.2340     2.9457    -0.4598  N.ar    1  <O>11      -0.1724
   4 C2        8.4134     3.3437    -0.9933  C.ar    1  <O>11       0.0783
   5 C3        8.8350     4.7170    -0.6550  C.3     1  <O>11       0.0685
   6 C4        7.8110     5.3490     0.2270  C.2     1  <O>11       0.2189
   7 O1        6.8140     4.7210     0.5520  O.2     1  <O>11      -0.2754
   8 N3        7.9870     6.6320     0.6720  N.am    1  <O>11      -0.3147
   9 C5        6.9830     7.2490     1.5350  C.3     1  <O>11       0.0157
  10 C6        5.5949     6.9449     0.9945  C.3     1  <O>11      -0.0093
  11 C7        5.4704     7.4911    -0.3802  C.ar    1  <O>11      -0.0107
  12 C8        6.5517     8.1671    -0.9749  C.ar    1  <O>11      -0.0558
  13 C9        6.4303     8.6926    -2.2652  C.ar    1  <O>11      -0.0613
  14 C10       5.2362     8.5473    -2.9747  C.ar    1  <O>11      -0.0590
  15 C11       4.1621     7.8704    -2.3861  C.ar    1  <O>11      -0.0262
  16 C12       4.2742     7.3388    -1.1003  C.ar    1  <O>11       0.1266
  17 F1        3.2247     6.6678    -0.5250  F       1  <O>11      -0.2052
  18 C13       9.2100     2.5349    -1.8162  C.ar    1  <O>11       0.0108
  19 C14      10.4688     2.9255    -2.3277  C.ar    1  <O>11      -0.0521
  20 C15      11.1965     2.0826    -3.1684  C.ar    1  <O>11      -0.0611
  21 C16      10.6797     0.8410    -3.5204  C.ar    1  <O>11      -0.0610
  22 C17       9.4353     0.4418    -3.0314  C.ar    1  <O>11      -0.0487
  23 C18       8.6875     1.2787    -2.1714  C.ar    1  <O>11       0.0498
  24 C19       7.4213     0.9528    -1.6663  C.ar    1  <O>11       0.2748
  25 O2        6.8651    -0.2620    -2.1105  O.2     1  <O>11      -0.2656
  26 H1        5.2515     0.2914    -0.6239  H       1  <O>11       0.0474
  27 H2        4.6926     1.9775    -0.5096  H       1  <O>11       0.0474
  28 H3        5.5714     1.2371     0.8498  H       1  <O>11       0.0474
  29 H4        8.9360     5.3020    -1.5700  H       1  <O>11       0.0423
  30 H5        9.7930     4.6860    -0.1360  H       1  <O>11       0.0423
  31 H6        8.8190     7.1550     0.4010  H       1  <O>11       0.1487
  32 H7        7.1366     8.3278     1.5557  H       1  <O>11       0.0465
  33 H8        7.0767     6.8482     2.5443  H       1  <O>11       0.0465
  34 H9        4.8466     7.4059     1.6401  H       1  <O>11       0.0329
  35 H10       5.4416     5.8673     0.9746  H       1  <O>11       0.0329
  36 H11       7.4377     8.2755    -0.4570  H       1  <O>11       0.0621
  37 H12       7.2261     9.1898    -2.6946  H       1  <O>11       0.0618
  38 H13       5.1466     8.9364    -3.9264  H       1  <O>11       0.0618
  39 H14       3.2782     7.7631    -2.9080  H       1  <O>11       0.0646
  40 H15      10.8555     3.8484    -2.0753  H       1  <O>11       0.0624
  41 H16      12.1168     2.3803    -3.5283  H       1  <O>11       0.0618
  42 H17      11.2155     0.2156    -4.1423  H       1  <O>11       0.0618
  43 H18       9.0548    -0.4786    -3.3016  H       1  <O>11       0.0625
@<TRIPOS>BOND
     1     1     2    1
     2     2     3   ar
     3     3     4   ar
     4     4     5    1
     5     5     6    1
     6     6     7    2
     7     6     8   am
     8     8     9    1
     9     9    10    1
    10    10    11    1
    11    11    12   ar
    12    12    13   ar
    13    13    14   ar
    14    14    15   ar
    15    15    16   ar
    16    11    16   ar
    17    16    17    1
    18     4    18   ar
    19    18    19   ar
    20    19    20   ar
    21    20    21   ar
    22    21    22   ar
    23    22    23   ar
    24    18    23   ar
    25    23    24   ar
    26     2    24   ar
    27    24    25    2
    28     1    26    1
    29     1    27    1
    30     1    28    1
    31     5    29    1
    32     5    30    1
    33     8    31    1
    34     9    32    1
    35     9    33    1
    36    10    34    1
    37    10    35    1
    38    12    36    1
    39    13    37    1
    40    14    38    1
    41    15    39    1
    42    19    40    1
    43    20    41    1
    44    21    42    1
    45    22    43    1
