@<TRIPOS>MOLECULE
mol12_1_1
 34 35 0 0 0
SMALL
USER_CHARGES
****
VDW energy = 133.38
@<TRIPOS>ATOM
   1 C1        2.8832    -9.8059    -4.4252  C.3     1  <O>11      -0.0395
   2 C2        1.4617   -10.1611    -4.6036  C.ar    1  <O>11      -0.0473
   3 C3        0.8050   -10.8783    -3.6012  C.ar    1  <O>11      -0.0551
   4 C4       -0.5391   -11.2290    -3.7692  C.ar    1  <O>11      -0.0190
   5 C5       -1.2224   -10.8607    -4.9311  C.ar    1  <O>11       0.1322
   6 O1       -2.5340   -11.2020    -5.1020  O.3     1  <O>11      -0.4223
   7 C6       -2.6118   -12.4178    -5.6953  C.2     1  <O>11       0.3445
   8 O2       -1.5902   -13.0218    -5.9869  O.2     1  <O>11      -0.2445
   9 C7       -3.9135   -13.0031    -5.9857  C.ar    1  <O>11       0.0616
  10 C8       -4.6285   -12.6089    -7.1302  C.ar    1  <O>11      -0.0476
  11 C9       -5.8844   -13.1620    -7.4043  C.ar    1  <O>11      -0.0588
  12 C10      -6.4354   -14.1135    -6.5420  C.ar    1  <O>11      -0.0316
  13 C11      -5.7216   -14.5104    -5.4065  C.ar    1  <O>11       0.1224
  14 N1       -6.2945   -15.4937    -4.5209  N.4     1  <O>11       0.0060
  15 O3       -6.6411   -16.6810    -5.2775  O.2     1  <O>11      -0.1300
  16 O4       -7.4875   -14.9494    -3.9021  O.2     1  <O>11      -0.3961
  17 C12      -4.4679   -13.9657    -5.1265  C.ar    1  <O>11      -0.0176
  18 C13      -0.5527   -10.1366    -5.9237  C.ar    1  <O>11      -0.0161
  19 C14       0.7874    -9.7806    -5.7650  C.ar    1  <O>11      -0.0441
  20 C15       1.4916    -9.0103    -6.8087  C.3     1  <O>11      -0.0393
  21 H1        3.2314    -9.2521    -5.2971  H       1  <O>11       0.0278
  22 H2        3.4736   -10.7152    -4.3128  H       1  <O>11       0.0278
  23 H3        2.9942    -9.1880    -3.5342  H       1  <O>11       0.0278
  24 H4        2.5214    -8.8345    -6.4979  H       1  <O>11       0.0278
  25 H5        0.9885    -8.0548    -6.9567  H       1  <O>11       0.0278
  26 H6        1.4848    -9.5729    -7.7423  H       1  <O>11       0.0278
  27 H7        1.3082   -11.1481    -2.7415  H       1  <O>11       0.0621
  28 H8       -1.0275   -11.7615    -3.0324  H       1  <O>11       0.0654
  29 H9       -4.2251   -11.9081    -7.7715  H       1  <O>11       0.0626
  30 H10      -6.4047   -12.8666    -8.2452  H       1  <O>11       0.0618
  31 H11      -7.3626   -14.5206    -6.7415  H       1  <O>11       0.0640
  32 H12      -7.4311   -14.1764    -3.3755  H       1  <O>11       0.3292
  33 H13      -3.9483   -14.2700    -4.2884  H       1  <O>11       0.0648
  34 H14      -1.0552    -9.8628    -6.7825  H       1  <O>11       0.0657
@<TRIPOS>BOND
     1     1     2    1
     2     2     3   ar
     3     3     4   ar
     4     4     5   ar
     5     5     6    1
     6     6     7    1
     7     7     8    2
     8     7     9    1
     9     9    10   ar
    10    10    11   ar
    11    11    12   ar
    12    12    13   ar
    13    13    14    1
    14    14    15    2
    15    14    16    1
    16    13    17   ar
    17     9    17   ar
    18     5    18   ar
    19    18    19   ar
    20     2    19   ar
    21    19    20    1
    22     1    21    1
    23     1    22    1
    24     1    23    1
    25    20    24    1
    26    20    25    1
    27    20    26    1
    28     3    27    1
    29     4    28    1
    30    10    29    1
    31    11    30    1
    32    12    31    1
    33    16    32    1
    34    17    33    1
    35    18    34    1
@<TRIPOS>MOLECULE
mol12_1_2
 34 35 0 0 0
SMALL
USER_CHARGES
****
VDW energy = 134.82
@<TRIPOS>ATOM
   1 C1        2.8832    -9.8059    -4.4252  C.3     1  <O>11      -0.0395
   2 C2        1.4617   -10.1611    -4.6036  C.ar    1  <O>11      -0.0473
   3 C3        0.8050   -10.8783    -3.6012  C.ar    1  <O>11      -0.0551
   4 C4       -0.5391   -11.2290    -3.7692  C.ar    1  <O>11      -0.0190
   5 C5       -1.2224   -10.8607    -4.9311  C.ar    1  <O>11       0.1322
   6 O1       -2.5340   -11.2020    -5.1020  O.3     1  <O>11      -0.4223
   7 C6       -3.3255   -10.2222    -4.6023  C.2     1  <O>11       0.3445
   8 O2       -2.8234    -9.2290    -4.0976  O.2     1  <O>11      -0.2445
   9 C7       -4.7746   -10.3545    -4.6667  C.ar    1  <O>11       0.0616
  10 C8       -5.4584   -11.1314    -3.7152  C.ar    1  <O>11      -0.0476
  11 C9       -6.8494   -11.2688    -3.7826  C.ar    1  <O>11      -0.0588
  12 C10      -7.5691   -10.6310    -4.7964  C.ar    1  <O>11      -0.0316
  13 C11      -6.8898    -9.8530    -5.7396  C.ar    1  <O>11       0.1224
  14 N1       -7.6378    -9.1959    -6.7827  N.4     1  <O>11       0.0060
  15 O3       -8.9669    -8.8792    -6.2975  O.2     1  <O>11      -0.1300
  16 O4       -7.7392   -10.0751    -7.9313  O.2     1  <O>11      -0.3961
  17 C12      -5.5033    -9.7089    -5.6788  C.ar    1  <O>11      -0.0176
  18 C13      -0.5527   -10.1366    -5.9237  C.ar    1  <O>11      -0.0161
  19 C14       0.7874    -9.7806    -5.7650  C.ar    1  <O>11      -0.0441
  20 C15       1.4916    -9.0103    -6.8087  C.3     1  <O>11      -0.0393
  21 H1        3.2314    -9.2521    -5.2971  H       1  <O>11       0.0278
  22 H2        3.4736   -10.7152    -4.3128  H       1  <O>11       0.0278
  23 H3        2.9942    -9.1880    -3.5342  H       1  <O>11       0.0278
  24 H4        2.5214    -8.8345    -6.4979  H       1  <O>11       0.0278
  25 H5        0.9885    -8.0548    -6.9567  H       1  <O>11       0.0278
  26 H6        1.4848    -9.5729    -7.7423  H       1  <O>11       0.0278
  27 H7        1.3082   -11.1481    -2.7415  H       1  <O>11       0.0621
  28 H8       -1.0275   -11.7615    -3.0324  H       1  <O>11       0.0654
  29 H9       -4.9318   -11.6028    -2.9632  H       1  <O>11       0.0626
  30 H10      -7.3447   -11.8423    -3.0821  H       1  <O>11       0.0618
  31 H11      -8.5947   -10.7332    -4.8489  H       1  <O>11       0.0640
  32 H12      -6.9629   -10.3732    -8.3631  H       1  <O>11       0.3292
  33 H13      -5.0135    -9.1281    -6.3772  H       1  <O>11       0.0648
  34 H14      -1.0552    -9.8628    -6.7825  H       1  <O>11       0.0657
@<TRIPOS>BOND
     1     1     2    1
     2     2     3   ar
     3     3     4   ar
     4     4     5   ar
     5     5     6    1
     6     6     7    1
     7     7     8    2
     8     7     9    1
     9     9    10   ar
    10    10    11   ar
    11    11    12   ar
    12    12    13   ar
    13    13    14    1
    14    14    15    2
    15    14    16    1
    16    13    17   ar
    17     9    17   ar
    18     5    18   ar
    19    18    19   ar
    20     2    19   ar
    21    19    20    1
    22     1    21    1
    23     1    22    1
    24     1    23    1
    25    20    24    1
    26    20    25    1
    27    20    26    1
    28     3    27    1
    29     4    28    1
    30    10    29    1
    31    11    30    1
    32    12    31    1
    33    16    32    1
    34    17    33    1
    35    18    34    1
@<TRIPOS>MOLECULE
mol12_1_3
 34 35 0 0 0
SMALL
USER_CHARGES
****
VDW energy = 134.85
@<TRIPOS>ATOM
   1 C1        2.8832    -9.8059    -4.4252  C.3     1  <O>11      -0.0395
   2 C2        1.4617   -10.1611    -4.6036  C.ar    1  <O>11      -0.0473
   3 C3        0.8050   -10.8783    -3.6012  C.ar    1  <O>11      -0.0551
   4 C4       -0.5391   -11.2290    -3.7692  C.ar    1  <O>11      -0.0190
   5 C5       -1.2224   -10.8607    -4.9311  C.ar    1  <O>11       0.1322
   6 O1       -2.5340   -11.2020    -5.1020  O.3     1  <O>11      -0.4223
   7 C6       -2.6118   -12.4178    -5.6953  C.2     1  <O>11       0.3445
   8 O2       -1.5902   -13.0218    -5.9869  O.2     1  <O>11      -0.2445
   9 C7       -3.9135   -13.0031    -5.9857  C.ar    1  <O>11       0.0616
  10 C8       -4.6285   -12.6089    -7.1302  C.ar    1  <O>11      -0.0476
  11 C9       -5.8844   -13.1620    -7.4043  C.ar    1  <O>11      -0.0588
  12 C10      -6.4354   -14.1135    -6.5420  C.ar    1  <O>11      -0.0316
  13 C11      -5.7216   -14.5104    -5.4065  C.ar    1  <O>11       0.1224
  14 N1       -6.2945   -15.4937    -4.5209  N.4     1  <O>11       0.0060
  15 O3       -7.1460   -16.3889    -5.2797  O.2     1  <O>11      -0.1300
  16 O4       -7.0810   -14.8260    -3.5021  O.2     1  <O>11      -0.3961
  17 C12      -4.4679   -13.9657    -5.1265  C.ar    1  <O>11      -0.0176
  18 C13      -0.5527   -10.1366    -5.9237  C.ar    1  <O>11      -0.0161
  19 C14       0.7874    -9.7806    -5.7650  C.ar    1  <O>11      -0.0441
  20 C15       1.4916    -9.0103    -6.8087  C.3     1  <O>11      -0.0393
  21 H1        3.2314    -9.2521    -5.2971  H       1  <O>11       0.0278
  22 H2        3.4736   -10.7152    -4.3128  H       1  <O>11       0.0278
  23 H3        2.9942    -9.1880    -3.5342  H       1  <O>11       0.0278
  24 H4        2.5214    -8.8345    -6.4979  H       1  <O>11       0.0278
  25 H5        0.9885    -8.0548    -6.9567  H       1  <O>11       0.0278
  26 H6        1.4848    -9.5729    -7.7423  H       1  <O>11       0.0278
  27 H7        1.3082   -11.1481    -2.7415  H       1  <O>11       0.0621
  28 H8       -1.0275   -11.7615    -3.0324  H       1  <O>11       0.0654
  29 H9       -4.2251   -11.9081    -7.7715  H       1  <O>11       0.0626
  30 H10      -6.4047   -12.8666    -8.2452  H       1  <O>11       0.0618
  31 H11      -7.3626   -14.5206    -6.7415  H       1  <O>11       0.0640
  32 H12      -6.6740   -14.2110    -2.9242  H       1  <O>11       0.3292
  33 H13      -3.9483   -14.2700    -4.2884  H       1  <O>11       0.0648
  34 H14      -1.0552    -9.8628    -6.7825  H       1  <O>11       0.0657
@<TRIPOS>BOND
     1     1     2    1
     2     2     3   ar
     3     3     4   ar
     4     4     5   ar
     5     5     6    1
     6     6     7    1
     7     7     8    2
     8     7     9    1
     9     9    10   ar
    10    10    11   ar
    11    11    12   ar
    12    12    13   ar
    13    13    14    1
    14    14    15    2
    15    14    16    1
    16    13    17   ar
    17     9    17   ar
    18     5    18   ar
    19    18    19   ar
    20     2    19   ar
    21    19    20    1
    22     1    21    1
    23     1    22    1
    24     1    23    1
    25    20    24    1
    26    20    25    1
    27    20    26    1
    28     3    27    1
    29     4    28    1
    30    10    29    1
    31    11    30    1
    32    12    31    1
    33    16    32    1
    34    17    33    1
    35    18    34    1
@<TRIPOS>MOLECULE
mol12_1_4
 34 35 0 0 0
SMALL
USER_CHARGES
****
VDW energy = 134.92
@<TRIPOS>ATOM
   1 C1        2.8832    -9.8059    -4.4252  C.3     1  <O>11      -0.0395
   2 C2        1.4617   -10.1611    -4.6036  C.ar    1  <O>11      -0.0473
   3 C3        0.8050   -10.8783    -3.6012  C.ar    1  <O>11      -0.0551
   4 C4       -0.5391   -11.2290    -3.7692  C.ar    1  <O>11      -0.0190
   5 C5       -1.2224   -10.8607    -4.9311  C.ar    1  <O>11       0.1322
   6 O1       -2.5340   -11.2020    -5.1020  O.3     1  <O>11      -0.4223
   7 C6       -2.6118   -12.4178    -5.6953  C.2     1  <O>11       0.3445
   8 O2       -1.5902   -13.0218    -5.9869  O.2     1  <O>11      -0.2445
   9 C7       -3.9135   -13.0031    -5.9857  C.ar    1  <O>11       0.0616
  10 C8       -4.9634   -12.1969    -6.4593  C.ar    1  <O>11      -0.0476
  11 C9       -6.2180   -12.7559    -6.7278  C.ar    1  <O>11      -0.0588
  12 C10      -6.4345   -14.1220    -6.5292  C.ar    1  <O>11      -0.0316
  13 C11      -5.3884   -14.9254    -6.0638  C.ar    1  <O>11       0.1224
  14 N1       -5.6172   -16.3348    -5.8621  N.4     1  <O>11       0.0060
  15 O3       -6.1302   -16.9205    -7.0852  O.2     1  <O>11      -0.1300
  16 O4       -6.5822   -16.5195    -4.7957  O.2     1  <O>11      -0.3961
  17 C12      -4.1338   -14.3769    -5.7955  C.ar    1  <O>11      -0.0176
  18 C13      -0.5527   -10.1366    -5.9237  C.ar    1  <O>11      -0.0161
  19 C14       0.7874    -9.7806    -5.7650  C.ar    1  <O>11      -0.0441
  20 C15       1.4916    -9.0103    -6.8087  C.3     1  <O>11      -0.0393
  21 H1        3.2314    -9.2521    -5.2971  H       1  <O>11       0.0278
  22 H2        3.4736   -10.7152    -4.3128  H       1  <O>11       0.0278
  23 H3        2.9942    -9.1880    -3.5342  H       1  <O>11       0.0278
  24 H4        2.5214    -8.8345    -6.4979  H       1  <O>11       0.0278
  25 H5        0.9885    -8.0548    -6.9567  H       1  <O>11       0.0278
  26 H6        1.4848    -9.5729    -7.7423  H       1  <O>11       0.0278
  27 H7        1.3082   -11.1481    -2.7415  H       1  <O>11       0.0621
  28 H8       -1.0275   -11.7615    -3.0324  H       1  <O>11       0.0654
  29 H9       -4.8082   -11.1878    -6.6097  H       1  <O>11       0.0626
  30 H10      -6.9848   -12.1579    -7.0732  H       1  <O>11       0.0618
  31 H11      -7.3598   -14.5352    -6.7244  H       1  <O>11       0.0640
  32 H12      -6.3984   -16.1949    -3.9362  H       1  <O>11       0.3292
  33 H13      -3.3681   -14.9806    -5.4574  H       1  <O>11       0.0648
  34 H14      -1.0552    -9.8628    -6.7825  H       1  <O>11       0.0657
@<TRIPOS>BOND
     1     1     2    1
     2     2     3   ar
     3     3     4   ar
     4     4     5   ar
     5     5     6    1
     6     6     7    1
     7     7     8    2
     8     7     9    1
     9     9    10   ar
    10    10    11   ar
    11    11    12   ar
    12    12    13   ar
    13    13    14    1
    14    14    15    2
    15    14    16    1
    16    13    17   ar
    17     9    17   ar
    18     5    18   ar
    19    18    19   ar
    20     2    19   ar
    21    19    20    1
    22     1    21    1
    23     1    22    1
    24     1    23    1
    25    20    24    1
    26    20    25    1
    27    20    26    1
    28     3    27    1
    29     4    28    1
    30    10    29    1
    31    11    30    1
    32    12    31    1
    33    16    32    1
    34    17    33    1
    35    18    34    1
@<TRIPOS>MOLECULE
mol12_1_5
 34 35 0 0 0
SMALL
USER_CHARGES
****
VDW energy = 135.13
@<TRIPOS>ATOM
   1 C1        2.8832    -9.8059    -4.4252  C.3     1  <O>11      -0.0395
   2 C2        1.4617   -10.1611    -4.6036  C.ar    1  <O>11      -0.0473
   3 C3        0.8050   -10.8783    -3.6012  C.ar    1  <O>11      -0.0551
   4 C4       -0.5391   -11.2290    -3.7692  C.ar    1  <O>11      -0.0190
   5 C5       -1.2224   -10.8607    -4.9311  C.ar    1  <O>11       0.1322
   6 O1       -2.5340   -11.2020    -5.1020  O.3     1  <O>11      -0.4223
   7 C6       -3.3255   -10.2222    -4.6023  C.2     1  <O>11       0.3445
   8 O2       -2.8234    -9.2288    -4.0979  O.2     1  <O>11      -0.2445
   9 C7       -4.7746   -10.3547    -4.6663  C.ar    1  <O>11       0.0616
  10 C8       -5.4822    -9.8692    -5.7799  C.ar    1  <O>11      -0.0476
  11 C9       -6.8756    -9.9855    -5.8375  C.ar    1  <O>11      -0.0588
  12 C10      -7.5733   -10.5888    -4.7878  C.ar    1  <O>11      -0.0316
  13 C11      -6.8690   -11.0774    -3.6826  C.ar    1  <O>11       0.1224
  14 N1       -7.5941   -11.7003    -2.6030  N.4     1  <O>11       0.0060
  15 O3       -6.8815   -11.4896    -1.3581  O.2     1  <O>11      -0.1300
  16 O4       -7.7119   -13.1229    -2.8579  O.2     1  <O>11      -0.3961
  17 C12      -5.4796   -10.9675    -3.6177  C.ar    1  <O>11      -0.0176
  18 C13      -0.5527   -10.1366    -5.9237  C.ar    1  <O>11      -0.0161
  19 C14       0.7874    -9.7806    -5.7650  C.ar    1  <O>11      -0.0441
  20 C15       1.4916    -9.0103    -6.8087  C.3     1  <O>11      -0.0393
  21 H1        3.2314    -9.2521    -5.2971  H       1  <O>11       0.0278
  22 H2        3.4736   -10.7152    -4.3128  H       1  <O>11       0.0278
  23 H3        2.9942    -9.1880    -3.5342  H       1  <O>11       0.0278
  24 H4        2.5214    -8.8345    -6.4979  H       1  <O>11       0.0278
  25 H5        0.9885    -8.0548    -6.9567  H       1  <O>11       0.0278
  26 H6        1.4848    -9.5729    -7.7423  H       1  <O>11       0.0278
  27 H7        1.3082   -11.1481    -2.7415  H       1  <O>11       0.0621
  28 H8       -1.0275   -11.7615    -3.0324  H       1  <O>11       0.0654
  29 H9       -4.9715    -9.4247    -6.5588  H       1  <O>11       0.0626
  30 H10      -7.3889    -9.6251    -6.6570  H       1  <O>11       0.0618
  31 H11      -8.6011   -10.6732    -4.8278  H       1  <O>11       0.0640
  32 H12      -8.1497   -13.4260    -3.6288  H       1  <O>11       0.3292
  33 H13      -4.9702   -11.3363    -2.7995  H       1  <O>11       0.0648
  34 H14      -1.0552    -9.8628    -6.7825  H       1  <O>11       0.0657
@<TRIPOS>BOND
     1     1     2    1
     2     2     3   ar
     3     3     4   ar
     4     4     5   ar
     5     5     6    1
     6     6     7    1
     7     7     8    2
     8     7     9    1
     9     9    10   ar
    10    10    11   ar
    11    11    12   ar
    12    12    13   ar
    13    13    14    1
    14    14    15    2
    15    14    16    1
    16    13    17   ar
    17     9    17   ar
    18     5    18   ar
    19    18    19   ar
    20     2    19   ar
    21    19    20    1
    22     1    21    1
    23     1    22    1
    24     1    23    1
    25    20    24    1
    26    20    25    1
    27    20    26    1
    28     3    27    1
    29     4    28    1
    30    10    29    1
    31    11    30    1
    32    12    31    1
    33    16    32    1
    34    17    33    1
    35    18    34    1
@<TRIPOS>MOLECULE
mol12_1_6
 34 35 0 0 0
SMALL
USER_CHARGES
****
VDW energy = 135.90
@<TRIPOS>ATOM
   1 C1        2.8832    -9.8059    -4.4252  C.3     1  <O>11      -0.0395
   2 C2        1.4617   -10.1611    -4.6036  C.ar    1  <O>11      -0.0473
   3 C3        0.8050   -10.8783    -3.6012  C.ar    1  <O>11      -0.0551
   4 C4       -0.5391   -11.2290    -3.7692  C.ar    1  <O>11      -0.0190
   5 C5       -1.2224   -10.8607    -4.9311  C.ar    1  <O>11       0.1322
   6 O1       -2.5340   -11.2020    -5.1020  O.3     1  <O>11      -0.4223
   7 C6       -2.6118   -12.4178    -5.6953  C.2     1  <O>11       0.3445
   8 O2       -1.5902   -13.0218    -5.9869  O.2     1  <O>11      -0.2445
   9 C7       -3.9135   -13.0031    -5.9857  C.ar    1  <O>11       0.0616
  10 C8       -4.9687   -12.8769    -5.0652  C.ar    1  <O>11      -0.0476
  11 C9       -6.2166   -13.4486    -5.3377  C.ar    1  <O>11      -0.0588
  12 C10      -6.4229   -14.1473    -6.5301  C.ar    1  <O>11      -0.0316
  13 C11      -5.3752   -14.2678    -7.4488  C.ar    1  <O>11       0.1224
  14 N1       -5.5942   -14.9887    -8.6784  N.4     1  <O>11       0.0060
  15 O3       -6.7408   -14.4300    -9.3678  O.2     1  <O>11      -0.1300
  16 O4       -5.8424   -16.3861    -8.3811  O.2     1  <O>11      -0.3961
  17 C12      -4.1283   -13.6993    -7.1862  C.ar    1  <O>11      -0.0176
  18 C13      -0.5527   -10.1366    -5.9237  C.ar    1  <O>11      -0.0161
  19 C14       0.7874    -9.7806    -5.7650  C.ar    1  <O>11      -0.0441
  20 C15       1.4916    -9.0103    -6.8087  C.3     1  <O>11      -0.0393
  21 H1        3.2314    -9.2521    -5.2971  H       1  <O>11       0.0278
  22 H2        3.4736   -10.7152    -4.3128  H       1  <O>11       0.0278
  23 H3        2.9942    -9.1880    -3.5342  H       1  <O>11       0.0278
  24 H4        2.5214    -8.8345    -6.4979  H       1  <O>11       0.0278
  25 H5        0.9885    -8.0548    -6.9567  H       1  <O>11       0.0278
  26 H6        1.4848    -9.5729    -7.7423  H       1  <O>11       0.0278
  27 H7        1.3082   -11.1481    -2.7415  H       1  <O>11       0.0621
  28 H8       -1.0275   -11.7615    -3.0324  H       1  <O>11       0.0654
  29 H9       -4.8222   -12.3601    -4.1840  H       1  <O>11       0.0626
  30 H10      -6.9861   -13.3540    -4.6566  H       1  <O>11       0.0618
  31 H11      -7.3419   -14.5716    -6.7314  H       1  <O>11       0.0640
  32 H12      -5.1928   -16.8926    -7.9346  H       1  <O>11       0.3292
  33 H13      -3.3642   -13.7903    -7.8740  H       1  <O>11       0.0648
  34 H14      -1.0552    -9.8628    -6.7825  H       1  <O>11       0.0657
@<TRIPOS>BOND
     1     1     2    1
     2     2     3   ar
     3     3     4   ar
     4     4     5   ar
     5     5     6    1
     6     6     7    1
     7     7     8    2
     8     7     9    1
     9     9    10   ar
    10    10    11   ar
    11    11    12   ar
    12    12    13   ar
    13    13    14    1
    14    14    15    2
    15    14    16    1
    16    13    17   ar
    17     9    17   ar
    18     5    18   ar
    19    18    19   ar
    20     2    19   ar
    21    19    20    1
    22     1    21    1
    23     1    22    1
    24     1    23    1
    25    20    24    1
    26    20    25    1
    27    20    26    1
    28     3    27    1
    29     4    28    1
    30    10    29    1
    31    11    30    1
    32    12    31    1
    33    16    32    1
    34    17    33    1
    35    18    34    1
@<TRIPOS>MOLECULE
mol12_1_7
 34 35 0 0 0
SMALL
USER_CHARGES
****
VDW energy = 136.57
@<TRIPOS>ATOM
   1 C1        2.8832    -9.8059    -4.4252  C.3     1  <O>11      -0.0395
   2 C2        1.4617   -10.1611    -4.6036  C.ar    1  <O>11      -0.0473
   3 C3        0.8050   -10.8783    -3.6012  C.ar    1  <O>11      -0.0551
   4 C4       -0.5391   -11.2290    -3.7692  C.ar    1  <O>11      -0.0190
   5 C5       -1.2224   -10.8607    -4.9311  C.ar    1  <O>11       0.1322
   6 O1       -2.5340   -11.2020    -5.1020  O.3     1  <O>11      -0.4223
   7 C6       -3.3255   -10.2222    -4.6023  C.2     1  <O>11       0.3445
   8 O2       -2.8234    -9.2288    -4.0979  O.2     1  <O>11      -0.2445
   9 C7       -4.7746   -10.3547    -4.6663  C.ar    1  <O>11       0.0616
  10 C8       -5.4580   -11.1315    -3.7145  C.ar    1  <O>11      -0.0476
  11 C9       -6.8491   -11.2690    -3.7815  C.ar    1  <O>11      -0.0588
  12 C10      -7.5691   -10.6315    -4.7953  C.ar    1  <O>11      -0.0316
  13 C11      -6.8901    -9.8536    -5.7388  C.ar    1  <O>11       0.1224
  14 N1       -7.6385    -9.1969    -6.7819  N.4     1  <O>11       0.0060
  15 O3       -6.8105    -9.0738    -7.9657  O.2     1  <O>11      -0.1300
  16 O4       -8.0381    -7.8776    -6.3320  O.2     1  <O>11      -0.3961
  17 C12      -5.5036    -9.7094    -5.6784  C.ar    1  <O>11      -0.0176
  18 C13      -0.5527   -10.1366    -5.9237  C.ar    1  <O>11      -0.0161
  19 C14       0.7874    -9.7806    -5.7650  C.ar    1  <O>11      -0.0441
  20 C15       1.4916    -9.0103    -6.8087  C.3     1  <O>11      -0.0393
  21 H1        3.2314    -9.2521    -5.2971  H       1  <O>11       0.0278
  22 H2        3.4736   -10.7152    -4.3128  H       1  <O>11       0.0278
  23 H3        2.9942    -9.1880    -3.5342  H       1  <O>11       0.0278
  24 H4        2.5214    -8.8345    -6.4979  H       1  <O>11       0.0278
  25 H5        0.9885    -8.0548    -6.9567  H       1  <O>11       0.0278
  26 H6        1.4848    -9.5729    -7.7423  H       1  <O>11       0.0278
  27 H7        1.3082   -11.1481    -2.7415  H       1  <O>11       0.0621
  28 H8       -1.0275   -11.7615    -3.0324  H       1  <O>11       0.0654
  29 H9       -4.9312   -11.6027    -2.9625  H       1  <O>11       0.0626
  30 H10      -7.3441   -11.8425    -3.0808  H       1  <O>11       0.0618
  31 H11      -8.5947   -10.7339    -4.8475  H       1  <O>11       0.0640
  32 H12      -8.5796    -7.7856    -5.5729  H       1  <O>11       0.3292
  33 H13      -5.0140    -9.1287    -6.3770  H       1  <O>11       0.0648
  34 H14      -1.0552    -9.8628    -6.7825  H       1  <O>11       0.0657
@<TRIPOS>BOND
     1     1     2    1
     2     2     3   ar
     3     3     4   ar
     4     4     5   ar
     5     5     6    1
     6     6     7    1
     7     7     8    2
     8     7     9    1
     9     9    10   ar
    10    10    11   ar
    11    11    12   ar
    12    12    13   ar
    13    13    14    1
    14    14    15    2
    15    14    16    1
    16    13    17   ar
    17     9    17   ar
    18     5    18   ar
    19    18    19   ar
    20     2    19   ar
    21    19    20    1
    22     1    21    1
    23     1    22    1
    24     1    23    1
    25    20    24    1
    26    20    25    1
    27    20    26    1
    28     3    27    1
    29     4    28    1
    30    10    29    1
    31    11    30    1
    32    12    31    1
    33    16    32    1
    34    17    33    1
    35    18    34    1
@<TRIPOS>MOLECULE
mol12_1_8
 34 35 0 0 0
SMALL
USER_CHARGES
****
VDW energy = 136.64
@<TRIPOS>ATOM
   1 C1        2.8832    -9.8059    -4.4252  C.3     1  <O>11      -0.0395
   2 C2        1.4617   -10.1611    -4.6036  C.ar    1  <O>11      -0.0473
   3 C3        0.8050   -10.8783    -3.6012  C.ar    1  <O>11      -0.0551
   4 C4       -0.5391   -11.2290    -3.7692  C.ar    1  <O>11      -0.0190
   5 C5       -1.2224   -10.8607    -4.9311  C.ar    1  <O>11       0.1322
   6 O1       -2.5340   -11.2020    -5.1020  O.3     1  <O>11      -0.4223
   7 C6       -2.6118   -12.4178    -5.6953  C.2     1  <O>11       0.3445
   8 O2       -1.5902   -13.0218    -5.9869  O.2     1  <O>11      -0.2445
   9 C7       -3.9135   -13.0031    -5.9857  C.ar    1  <O>11       0.0616
  10 C8       -4.6285   -12.6089    -7.1302  C.ar    1  <O>11      -0.0476
  11 C9       -5.8844   -13.1620    -7.4043  C.ar    1  <O>11      -0.0588
  12 C10      -6.4354   -14.1135    -6.5420  C.ar    1  <O>11      -0.0316
  13 C11      -5.7216   -14.5104    -5.4065  C.ar    1  <O>11       0.1224
  14 N1       -6.2945   -15.4937    -4.5209  N.4     1  <O>11       0.0060
  15 O3       -5.8266   -15.2569    -3.1693  O.2     1  <O>11      -0.1300
  16 O4       -5.8916   -16.8200    -4.9468  O.2     1  <O>11      -0.3961
  17 C12      -4.4679   -13.9657    -5.1265  C.ar    1  <O>11      -0.0176
  18 C13      -0.5527   -10.1366    -5.9237  C.ar    1  <O>11      -0.0161
  19 C14       0.7874    -9.7806    -5.7650  C.ar    1  <O>11      -0.0441
  20 C15       1.4916    -9.0103    -6.8087  C.3     1  <O>11      -0.0393
  21 H1        3.2314    -9.2521    -5.2971  H       1  <O>11       0.0278
  22 H2        3.4736   -10.7152    -4.3128  H       1  <O>11       0.0278
  23 H3        2.9942    -9.1880    -3.5342  H       1  <O>11       0.0278
  24 H4        2.5214    -8.8345    -6.4979  H       1  <O>11       0.0278
  25 H5        0.9885    -8.0548    -6.9567  H       1  <O>11       0.0278
  26 H6        1.4848    -9.5729    -7.7423  H       1  <O>11       0.0278
  27 H7        1.3082   -11.1481    -2.7415  H       1  <O>11       0.0621
  28 H8       -1.0275   -11.7615    -3.0324  H       1  <O>11       0.0654
  29 H9       -4.2251   -11.9081    -7.7715  H       1  <O>11       0.0626
  30 H10      -6.4047   -12.8666    -8.2452  H       1  <O>11       0.0618
  31 H11      -7.3626   -14.5206    -6.7415  H       1  <O>11       0.0640
  32 H12      -6.1190   -17.1265    -5.8024  H       1  <O>11       0.3292
  33 H13      -3.9483   -14.2700    -4.2884  H       1  <O>11       0.0648
  34 H14      -1.0552    -9.8628    -6.7825  H       1  <O>11       0.0657
@<TRIPOS>BOND
     1     1     2    1
     2     2     3   ar
     3     3     4   ar
     4     4     5   ar
     5     5     6    1
     6     6     7    1
     7     7     8    2
     8     7     9    1
     9     9    10   ar
    10    10    11   ar
    11    11    12   ar
    12    12    13   ar
    13    13    14    1
    14    14    15    2
    15    14    16    1
    16    13    17   ar
    17     9    17   ar
    18     5    18   ar
    19    18    19   ar
    20     2    19   ar
    21    19    20    1
    22     1    21    1
    23     1    22    1
    24     1    23    1
    25    20    24    1
    26    20    25    1
    27    20    26    1
    28     3    27    1
    29     4    28    1
    30    10    29    1
    31    11    30    1
    32    12    31    1
    33    16    32    1
    34    17    33    1
    35    18    34    1
@<TRIPOS>MOLECULE
mol12_1_9
 34 35 0 0 0
SMALL
USER_CHARGES
****
VDW energy = 137.47
@<TRIPOS>ATOM
   1 C1        2.8832    -9.8059    -4.4252  C.3     1  <O>11      -0.0395
   2 C2        1.4617   -10.1611    -4.6036  C.ar    1  <O>11      -0.0473
   3 C3        0.8050   -10.8783    -3.6012  C.ar    1  <O>11      -0.0551
   4 C4       -0.5391   -11.2290    -3.7692  C.ar    1  <O>11      -0.0190
   5 C5       -1.2224   -10.8607    -4.9311  C.ar    1  <O>11       0.1322
   6 O1       -2.5340   -11.2020    -5.1020  O.3     1  <O>11      -0.4223
   7 C6       -2.6118   -12.4178    -5.6953  C.2     1  <O>11       0.3445
   8 O2       -1.5902   -13.0218    -5.9869  O.2     1  <O>11      -0.2445
   9 C7       -3.9135   -13.0031    -5.9857  C.ar    1  <O>11       0.0616
  10 C8       -4.9687   -12.8769    -5.0652  C.ar    1  <O>11      -0.0476
  11 C9       -6.2166   -13.4486    -5.3377  C.ar    1  <O>11      -0.0588
  12 C10      -6.4229   -14.1473    -6.5301  C.ar    1  <O>11      -0.0316
  13 C11      -5.3752   -14.2678    -7.4488  C.ar    1  <O>11       0.1224
  14 N1       -5.5942   -14.9887    -8.6784  N.4     1  <O>11       0.0060
  15 O3       -4.3497   -15.5933    -9.1117  O.2     1  <O>11      -0.1300
  16 O4       -6.0673   -14.0723    -9.6976  O.2     1  <O>11      -0.3961
  17 C12      -4.1283   -13.6993    -7.1862  C.ar    1  <O>11      -0.0176
  18 C13      -0.5527   -10.1366    -5.9237  C.ar    1  <O>11      -0.0161
  19 C14       0.7874    -9.7806    -5.7650  C.ar    1  <O>11      -0.0441
  20 C15       1.4916    -9.0103    -6.8087  C.3     1  <O>11      -0.0393
  21 H1        3.2314    -9.2521    -5.2971  H       1  <O>11       0.0278
  22 H2        3.4736   -10.7152    -4.3128  H       1  <O>11       0.0278
  23 H3        2.9942    -9.1880    -3.5342  H       1  <O>11       0.0278
  24 H4        2.5214    -8.8345    -6.4979  H       1  <O>11       0.0278
  25 H5        0.9885    -8.0548    -6.9567  H       1  <O>11       0.0278
  26 H6        1.4848    -9.5729    -7.7423  H       1  <O>11       0.0278
  27 H7        1.3082   -11.1481    -2.7415  H       1  <O>11       0.0621
  28 H8       -1.0275   -11.7615    -3.0324  H       1  <O>11       0.0654
  29 H9       -4.8222   -12.3601    -4.1840  H       1  <O>11       0.0626
  30 H10      -6.9861   -13.3540    -4.6566  H       1  <O>11       0.0618
  31 H11      -7.3419   -14.5716    -6.7314  H       1  <O>11       0.0640
  32 H12      -6.8653   -13.5987    -9.5679  H       1  <O>11       0.3292
  33 H13      -3.3642   -13.7903    -7.8740  H       1  <O>11       0.0648
  34 H14      -1.0552    -9.8628    -6.7825  H       1  <O>11       0.0657
@<TRIPOS>BOND
     1     1     2    1
     2     2     3   ar
     3     3     4   ar
     4     4     5   ar
     5     5     6    1
     6     6     7    1
     7     7     8    2
     8     7     9    1
     9     9    10   ar
    10    10    11   ar
    11    11    12   ar
    12    12    13   ar
    13    13    14    1
    14    14    15    2
    15    14    16    1
    16    13    17   ar
    17     9    17   ar
    18     5    18   ar
    19    18    19   ar
    20     2    19   ar
    21    19    20    1
    22     1    21    1
    23     1    22    1
    24     1    23    1
    25    20    24    1
    26    20    25    1
    27    20    26    1
    28     3    27    1
    29     4    28    1
    30    10    29    1
    31    11    30    1
    32    12    31    1
    33    16    32    1
    34    17    33    1
    35    18    34    1
@<TRIPOS>MOLECULE
mol12_1_10
 34 35 0 0 0
SMALL
USER_CHARGES
****
VDW energy = 137.62
@<TRIPOS>ATOM
   1 C1        2.8832    -9.8059    -4.4252  C.3     1  <O>11      -0.0395
   2 C2        1.4617   -10.1611    -4.6036  C.ar    1  <O>11      -0.0473
   3 C3        0.8050   -10.8783    -3.6012  C.ar    1  <O>11      -0.0551
   4 C4       -0.5391   -11.2290    -3.7692  C.ar    1  <O>11      -0.0190
   5 C5       -1.2224   -10.8607    -4.9311  C.ar    1  <O>11       0.1322
   6 O1       -2.5340   -11.2020    -5.1020  O.3     1  <O>11      -0.4223
   7 C6       -3.3255   -10.2222    -4.6023  C.2     1  <O>11       0.3445
   8 O2       -2.8234    -9.2288    -4.0979  O.2     1  <O>11      -0.2445
   9 C7       -4.7746   -10.3547    -4.6663  C.ar    1  <O>11       0.0616
  10 C8       -5.3870   -10.8963    -5.8101  C.ar    1  <O>11      -0.0476
  11 C9       -6.7798   -11.0136    -5.8776  C.ar    1  <O>11      -0.0588
  12 C10      -7.5720   -10.5950    -4.8053  C.ar    1  <O>11      -0.0316
  13 C11      -6.9627   -10.0618    -3.6648  C.ar    1  <O>11       0.1224
  14 N1       -7.7851    -9.6327    -2.5607  N.4     1  <O>11       0.0060
  15 O3       -7.1285    -8.5435    -1.8645  O.2     1  <O>11      -0.1300
  16 O4       -7.9832   -10.7410    -1.6470  O.2     1  <O>11      -0.3961
  17 C12      -5.5745    -9.9430    -3.5881  C.ar    1  <O>11      -0.0176
  18 C13      -0.5527   -10.1366    -5.9237  C.ar    1  <O>11      -0.0161
  19 C14       0.7874    -9.7806    -5.7650  C.ar    1  <O>11      -0.0441
  20 C15       1.4916    -9.0103    -6.8087  C.3     1  <O>11      -0.0393
  21 H1        3.2314    -9.2521    -5.2971  H       1  <O>11       0.0278
  22 H2        3.4736   -10.7152    -4.3128  H       1  <O>11       0.0278
  23 H3        2.9942    -9.1880    -3.5342  H       1  <O>11       0.0278
  24 H4        2.5214    -8.8345    -6.4979  H       1  <O>11       0.0278
  25 H5        0.9885    -8.0548    -6.9567  H       1  <O>11       0.0278
  26 H6        1.4848    -9.5729    -7.7423  H       1  <O>11       0.0278
  27 H7        1.3082   -11.1481    -2.7415  H       1  <O>11       0.0621
  28 H8       -1.0275   -11.7615    -3.0324  H       1  <O>11       0.0654
  29 H9       -4.8064   -11.2090    -6.6039  H       1  <O>11       0.0626
  30 H10      -7.2229   -11.4102    -6.7210  H       1  <O>11       0.0618
  31 H11      -8.5995   -10.6786    -4.8545  H       1  <O>11       0.0640
  32 H12      -8.3977   -11.5263    -1.9459  H       1  <O>11       0.3292
  33 H13      -5.1359    -9.5528    -2.7393  H       1  <O>11       0.0648
  34 H14      -1.0552    -9.8628    -6.7825  H       1  <O>11       0.0657
@<TRIPOS>BOND
     1     1     2    1
     2     2     3   ar
     3     3     4   ar
     4     4     5   ar
     5     5     6    1
     6     6     7    1
     7     7     8    2
     8     7     9    1
     9     9    10   ar
    10    10    11   ar
    11    11    12   ar
    12    12    13   ar
    13    13    14    1
    14    14    15    2
    15    14    16    1
    16    13    17   ar
    17     9    17   ar
    18     5    18   ar
    19    18    19   ar
    20     2    19   ar
    21    19    20    1
    22     1    21    1
    23     1    22    1
    24     1    23    1
    25    20    24    1
    26    20    25    1
    27    20    26    1
    28     3    27    1
    29     4    28    1
    30    10    29    1
    31    11    30    1
    32    12    31    1
    33    16    32    1
    34    17    33    1
    35    18    34    1
@<TRIPOS>MOLECULE
mol12_1_11
 34 35 0 0 0
SMALL
USER_CHARGES
****
VDW energy = 138.50
@<TRIPOS>ATOM
   1 C1        2.8832    -9.8059    -4.4252  C.3     1  <O>11      -0.0395
   2 C2        1.4617   -10.1611    -4.6036  C.ar    1  <O>11      -0.0473
   3 C3        0.8050   -10.8783    -3.6012  C.ar    1  <O>11      -0.0551
   4 C4       -0.5391   -11.2290    -3.7692  C.ar    1  <O>11      -0.0190
   5 C5       -1.2224   -10.8607    -4.9311  C.ar    1  <O>11       0.1322
   6 O1       -2.5340   -11.2020    -5.1020  O.3     1  <O>11      -0.4223
   7 C6       -2.6118   -12.4178    -5.6953  C.2     1  <O>11       0.3445
   8 O2       -1.5902   -13.0218    -5.9869  O.2     1  <O>11      -0.2445
   9 C7       -3.9135   -13.0031    -5.9857  C.ar    1  <O>11       0.0616
  10 C8       -4.0024   -14.2640    -6.6011  C.ar    1  <O>11      -0.0476
  11 C9       -5.2523   -14.8225    -6.8910  C.ar    1  <O>11      -0.0588
  12 C10      -6.4222   -14.1303    -6.5675  C.ar    1  <O>11      -0.0316
  13 C11      -6.3342   -12.8785    -5.9497  C.ar    1  <O>11       0.1224
  14 N1       -7.5449   -12.1694    -5.6168  N.4     1  <O>11       0.0060
  15 O3       -8.3936   -13.0184    -4.8038  O.2     1  <O>11      -0.1300
  16 O4       -8.2447   -11.8104    -6.8350  O.2     1  <O>11      -0.3961
  17 C12      -5.0922   -12.3150    -5.6551  C.ar    1  <O>11      -0.0176
  18 C13      -0.5527   -10.1366    -5.9237  C.ar    1  <O>11      -0.0161
  19 C14       0.7874    -9.7806    -5.7650  C.ar    1  <O>11      -0.0441
  20 C15       1.4916    -9.0103    -6.8087  C.3     1  <O>11      -0.0393
  21 H1        3.2314    -9.2521    -5.2971  H       1  <O>11       0.0278
  22 H2        3.4736   -10.7152    -4.3128  H       1  <O>11       0.0278
  23 H3        2.9942    -9.1880    -3.5342  H       1  <O>11       0.0278
  24 H4        2.5214    -8.8345    -6.4979  H       1  <O>11       0.0278
  25 H5        0.9885    -8.0548    -6.9567  H       1  <O>11       0.0278
  26 H6        1.4848    -9.5729    -7.7423  H       1  <O>11       0.0278
  27 H7        1.3082   -11.1481    -2.7415  H       1  <O>11       0.0621
  28 H8       -1.0275   -11.7615    -3.0324  H       1  <O>11       0.0654
  29 H9       -3.1414   -14.7804    -6.8401  H       1  <O>11       0.0626
  30 H10      -5.3101   -15.7476    -7.3448  H       1  <O>11       0.0618
  31 H11      -7.3447   -14.5398    -6.7829  H       1  <O>11       0.0640
  32 H12      -7.8284   -11.2615    -7.4700  H       1  <O>11       0.3292
  33 H13      -5.0398   -11.3930    -5.1944  H       1  <O>11       0.0648
  34 H14      -1.0552    -9.8628    -6.7825  H       1  <O>11       0.0657
@<TRIPOS>BOND
     1     1     2    1
     2     2     3   ar
     3     3     4   ar
     4     4     5   ar
     5     5     6    1
     6     6     7    1
     7     7     8    2
     8     7     9    1
     9     9    10   ar
    10    10    11   ar
    11    11    12   ar
    12    12    13   ar
    13    13    14    1
    14    14    15    2
    15    14    16    1
    16    13    17   ar
    17     9    17   ar
    18     5    18   ar
    19    18    19   ar
    20     2    19   ar
    21    19    20    1
    22     1    21    1
    23     1    22    1
    24     1    23    1
    25    20    24    1
    26    20    25    1
    27    20    26    1
    28     3    27    1
    29     4    28    1
    30    10    29    1
    31    11    30    1
    32    12    31    1
    33    16    32    1
    34    17    33    1
    35    18    34    1
@<TRIPOS>MOLECULE
mol12_1_12
 34 35 0 0 0
SMALL
USER_CHARGES
****
VDW energy = 138.83
@<TRIPOS>ATOM
   1 C1        2.8832    -9.8059    -4.4252  C.3     1  <O>11      -0.0395
   2 C2        1.4617   -10.1611    -4.6036  C.ar    1  <O>11      -0.0473
   3 C3        0.8050   -10.8783    -3.6012  C.ar    1  <O>11      -0.0551
   4 C4       -0.5391   -11.2290    -3.7692  C.ar    1  <O>11      -0.0190
   5 C5       -1.2224   -10.8607    -4.9311  C.ar    1  <O>11       0.1322
   6 O1       -2.5340   -11.2020    -5.1020  O.3     1  <O>11      -0.4223
   7 C6       -2.6118   -12.4178    -5.6953  C.2     1  <O>11       0.3445
   8 O2       -1.5902   -13.0218    -5.9869  O.2     1  <O>11      -0.2445
   9 C7       -3.9135   -13.0031    -5.9857  C.ar    1  <O>11       0.0616
  10 C8       -4.9634   -12.1969    -6.4593  C.ar    1  <O>11      -0.0476
  11 C9       -6.2180   -12.7559    -6.7278  C.ar    1  <O>11      -0.0588
  12 C10      -6.4345   -14.1220    -6.5292  C.ar    1  <O>11      -0.0316
  13 C11      -5.3884   -14.9254    -6.0638  C.ar    1  <O>11       0.1224
  14 N1       -5.6172   -16.3348    -5.8621  N.4     1  <O>11       0.0060
  15 O3       -4.7646   -16.8138    -4.7917  O.2     1  <O>11      -0.1300
  16 O4       -5.3100   -17.0535    -7.0834  O.2     1  <O>11      -0.3961
  17 C12      -4.1338   -14.3769    -5.7955  C.ar    1  <O>11      -0.0176
  18 C13      -0.5527   -10.1366    -5.9237  C.ar    1  <O>11      -0.0161
  19 C14       0.7874    -9.7806    -5.7650  C.ar    1  <O>11      -0.0441
  20 C15       1.4916    -9.0103    -6.8087  C.3     1  <O>11      -0.0393
  21 H1        3.2314    -9.2521    -5.2971  H       1  <O>11       0.0278
  22 H2        3.4736   -10.7152    -4.3128  H       1  <O>11       0.0278
  23 H3        2.9942    -9.1880    -3.5342  H       1  <O>11       0.0278
  24 H4        2.5214    -8.8345    -6.4979  H       1  <O>11       0.0278
  25 H5        0.9885    -8.0548    -6.9567  H       1  <O>11       0.0278
  26 H6        1.4848    -9.5729    -7.7423  H       1  <O>11       0.0278
  27 H7        1.3082   -11.1481    -2.7415  H       1  <O>11       0.0621
  28 H8       -1.0275   -11.7615    -3.0324  H       1  <O>11       0.0654
  29 H9       -4.8082   -11.1878    -6.6097  H       1  <O>11       0.0626
  30 H10      -6.9848   -12.1579    -7.0732  H       1  <O>11       0.0618
  31 H11      -7.3598   -14.5352    -6.7244  H       1  <O>11       0.0640
  32 H12      -5.7777   -16.8590    -7.8717  H       1  <O>11       0.3292
  33 H13      -3.3681   -14.9806    -5.4574  H       1  <O>11       0.0648
  34 H14      -1.0552    -9.8628    -6.7825  H       1  <O>11       0.0657
@<TRIPOS>BOND
     1     1     2    1
     2     2     3   ar
     3     3     4   ar
     4     4     5   ar
     5     5     6    1
     6     6     7    1
     7     7     8    2
     8     7     9    1
     9     9    10   ar
    10    10    11   ar
    11    11    12   ar
    12    12    13   ar
    13    13    14    1
    14    14    15    2
    15    14    16    1
    16    13    17   ar
    17     9    17   ar
    18     5    18   ar
    19    18    19   ar
    20     2    19   ar
    21    19    20    1
    22     1    21    1
    23     1    22    1
    24     1    23    1
    25    20    24    1
    26    20    25    1
    27    20    26    1
    28     3    27    1
    29     4    28    1
    30    10    29    1
    31    11    30    1
    32    12    31    1
    33    16    32    1
    34    17    33    1
    35    18    34    1
@<TRIPOS>MOLECULE
mol12_1_13
 34 35 0 0 0
SMALL
USER_CHARGES
****
VDW energy = 138.87
@<TRIPOS>ATOM
   1 C1        2.8832    -9.8059    -4.4252  C.3     1  <O>11      -0.0395
   2 C2        1.4617   -10.1611    -4.6036  C.ar    1  <O>11      -0.0473
   3 C3        0.8050   -10.8783    -3.6012  C.ar    1  <O>11      -0.0551
   4 C4       -0.5391   -11.2290    -3.7692  C.ar    1  <O>11      -0.0190
   5 C5       -1.2224   -10.8607    -4.9311  C.ar    1  <O>11       0.1322
   6 O1       -2.5340   -11.2020    -5.1020  O.3     1  <O>11      -0.4223
   7 C6       -3.3255   -10.2222    -4.6023  C.2     1  <O>11       0.3445
   8 O2       -2.8234    -9.2288    -4.0979  O.2     1  <O>11      -0.2445
   9 C7       -4.7746   -10.3547    -4.6663  C.ar    1  <O>11       0.0616
  10 C8       -5.3838   -11.5990    -4.4272  C.ar    1  <O>11      -0.0476
  11 C9       -6.7752   -11.7303    -4.4997  C.ar    1  <O>11      -0.0588
  12 C10      -7.5693   -10.6227    -4.8079  C.ar    1  <O>11      -0.0316
  13 C11      -6.9640    -9.3833    -5.0398  C.ar    1  <O>11       0.1224
  14 N1       -7.7887    -8.2434    -5.3560  N.4     1  <O>11       0.0060
  15 O3       -7.0475    -7.3324    -6.2063  O.2     1  <O>11      -0.1300
  16 O4       -8.1640    -7.5643    -4.1310  O.2     1  <O>11      -0.3961
  17 C12      -5.5776    -9.2428    -4.9677  C.ar    1  <O>11      -0.0176
  18 C13      -0.5527   -10.1366    -5.9237  C.ar    1  <O>11      -0.0161
  19 C14       0.7874    -9.7806    -5.7650  C.ar    1  <O>11      -0.0441
  20 C15       1.4916    -9.0103    -6.8087  C.3     1  <O>11      -0.0393
  21 H1        3.2314    -9.2521    -5.2971  H       1  <O>11       0.0278
  22 H2        3.4736   -10.7152    -4.3128  H       1  <O>11       0.0278
  23 H3        2.9942    -9.1880    -3.5342  H       1  <O>11       0.0278
  24 H4        2.5214    -8.8345    -6.4979  H       1  <O>11       0.0278
  25 H5        0.9885    -8.0548    -6.9567  H       1  <O>11       0.0278
  26 H6        1.4848    -9.5729    -7.7423  H       1  <O>11       0.0278
  27 H7        1.3082   -11.1481    -2.7415  H       1  <O>11       0.0621
  28 H8       -1.0275   -11.7615    -3.0324  H       1  <O>11       0.0654
  29 H9       -4.8020   -12.4197    -4.1971  H       1  <O>11       0.0626
  30 H10      -7.2156   -12.6471    -4.3251  H       1  <O>11       0.0618
  31 H11      -8.5954   -10.7185    -4.8640  H       1  <O>11       0.0640
  32 H12      -8.6509    -8.0201    -3.4730  H       1  <O>11       0.3292
  33 H13      -5.1426    -8.3221    -5.1357  H       1  <O>11       0.0648
  34 H14      -1.0552    -9.8628    -6.7825  H       1  <O>11       0.0657
@<TRIPOS>BOND
     1     1     2    1
     2     2     3   ar
     3     3     4   ar
     4     4     5   ar
     5     5     6    1
     6     6     7    1
     7     7     8    2
     8     7     9    1
     9     9    10   ar
    10    10    11   ar
    11    11    12   ar
    12    12    13   ar
    13    13    14    1
    14    14    15    2
    15    14    16    1
    16    13    17   ar
    17     9    17   ar
    18     5    18   ar
    19    18    19   ar
    20     2    19   ar
    21    19    20    1
    22     1    21    1
    23     1    22    1
    24     1    23    1
    25    20    24    1
    26    20    25    1
    27    20    26    1
    28     3    27    1
    29     4    28    1
    30    10    29    1
    31    11    30    1
    32    12    31    1
    33    16    32    1
    34    17    33    1
    35    18    34    1
@<TRIPOS>MOLECULE
mol12_1_14
 34 35 0 0 0
SMALL
USER_CHARGES
****
VDW energy = 139.43
@<TRIPOS>ATOM
   1 C1        2.8832    -9.8059    -4.4252  C.3     1  <O>11      -0.0395
   2 C2        1.4617   -10.1611    -4.6036  C.ar    1  <O>11      -0.0473
   3 C3        0.8050   -10.8783    -3.6012  C.ar    1  <O>11      -0.0551
   4 C4       -0.5391   -11.2290    -3.7692  C.ar    1  <O>11      -0.0190
   5 C5       -1.2224   -10.8607    -4.9311  C.ar    1  <O>11       0.1322
   6 O1       -2.5340   -11.2020    -5.1020  O.3     1  <O>11      -0.4223
   7 C6       -3.3255   -10.2222    -4.6023  C.2     1  <O>11       0.3445
   8 O2       -2.8234    -9.2290    -4.0976  O.2     1  <O>11      -0.2445
   9 C7       -4.7746   -10.3545    -4.6667  C.ar    1  <O>11       0.0616
  10 C8       -5.4584   -11.1314    -3.7152  C.ar    1  <O>11      -0.0476
  11 C9       -6.8494   -11.2688    -3.7826  C.ar    1  <O>11      -0.0588
  12 C10      -7.5691   -10.6310    -4.7964  C.ar    1  <O>11      -0.0316
  13 C11      -6.8898    -9.8530    -5.7396  C.ar    1  <O>11       0.1224
  14 N1       -7.6378    -9.1959    -6.7827  N.4     1  <O>11       0.0060
  15 O3       -6.7198    -8.5669    -7.7121  O.2     1  <O>11      -0.1300
  16 O4       -8.4995    -8.1875    -6.1970  O.2     1  <O>11      -0.3961
  17 C12      -5.5033    -9.7089    -5.6788  C.ar    1  <O>11      -0.0176
  18 C13      -0.5527   -10.1366    -5.9237  C.ar    1  <O>11      -0.0161
  19 C14       0.7874    -9.7806    -5.7650  C.ar    1  <O>11      -0.0441
  20 C15       1.4916    -9.0103    -6.8087  C.3     1  <O>11      -0.0393
  21 H1        3.2314    -9.2521    -5.2971  H       1  <O>11       0.0278
  22 H2        3.4736   -10.7152    -4.3128  H       1  <O>11       0.0278
  23 H3        2.9942    -9.1880    -3.5342  H       1  <O>11       0.0278
  24 H4        2.5214    -8.8345    -6.4979  H       1  <O>11       0.0278
  25 H5        0.9885    -8.0548    -6.9567  H       1  <O>11       0.0278
  26 H6        1.4848    -9.5729    -7.7423  H       1  <O>11       0.0278
  27 H7        1.3082   -11.1481    -2.7415  H       1  <O>11       0.0621
  28 H8       -1.0275   -11.7615    -3.0324  H       1  <O>11       0.0654
  29 H9       -4.9318   -11.6028    -2.9632  H       1  <O>11       0.0626
  30 H10      -7.3447   -11.8423    -3.0821  H       1  <O>11       0.0618
  31 H11      -8.5947   -10.7332    -4.8489  H       1  <O>11       0.0640
  32 H12      -9.1523    -8.4346    -5.5720  H       1  <O>11       0.3292
  33 H13      -5.0135    -9.1281    -6.3772  H       1  <O>11       0.0648
  34 H14      -1.0552    -9.8628    -6.7825  H       1  <O>11       0.0657
@<TRIPOS>BOND
     1     1     2    1
     2     2     3   ar
     3     3     4   ar
     4     4     5   ar
     5     5     6    1
     6     6     7    1
     7     7     8    2
     8     7     9    1
     9     9    10   ar
    10    10    11   ar
    11    11    12   ar
    12    12    13   ar
    13    13    14    1
    14    14    15    2
    15    14    16    1
    16    13    17   ar
    17     9    17   ar
    18     5    18   ar
    19    18    19   ar
    20     2    19   ar
    21    19    20    1
    22     1    21    1
    23     1    22    1
    24     1    23    1
    25    20    24    1
    26    20    25    1
    27    20    26    1
    28     3    27    1
    29     4    28    1
    30    10    29    1
    31    11    30    1
    32    12    31    1
    33    16    32    1
    34    17    33    1
    35    18    34    1
@<TRIPOS>MOLECULE
mol12_1_15
 34 35 0 0 0
SMALL
USER_CHARGES
****
VDW energy = 139.46
@<TRIPOS>ATOM
   1 C1        2.8832    -9.8059    -4.4252  C.3     1  <O>11      -0.0395
   2 C2        1.4617   -10.1611    -4.6036  C.ar    1  <O>11      -0.0473
   3 C3        0.8050   -10.8783    -3.6012  C.ar    1  <O>11      -0.0551
   4 C4       -0.5391   -11.2290    -3.7692  C.ar    1  <O>11      -0.0190
   5 C5       -1.2224   -10.8607    -4.9311  C.ar    1  <O>11       0.1322
   6 O1       -2.5340   -11.2020    -5.1020  O.3     1  <O>11      -0.4223
   7 C6       -2.6118   -12.4178    -5.6953  C.2     1  <O>11       0.3445
   8 O2       -1.5902   -13.0218    -5.9869  O.2     1  <O>11      -0.2445
   9 C7       -3.9135   -13.0031    -5.9857  C.ar    1  <O>11       0.0616
  10 C8       -4.6285   -12.6089    -7.1302  C.ar    1  <O>11      -0.0476
  11 C9       -5.8844   -13.1620    -7.4043  C.ar    1  <O>11      -0.0588
  12 C10      -6.4354   -14.1135    -6.5420  C.ar    1  <O>11      -0.0316
  13 C11      -5.7216   -14.5104    -5.4065  C.ar    1  <O>11       0.1224
  14 N1       -6.2945   -15.4937    -4.5209  N.4     1  <O>11       0.0060
  15 O3       -5.4471   -15.6446    -3.3542  O.2     1  <O>11      -0.1300
  16 O4       -6.3968   -16.7644    -5.2119  O.2     1  <O>11      -0.3961
  17 C12      -4.4679   -13.9657    -5.1265  C.ar    1  <O>11      -0.0176
  18 C13      -0.5527   -10.1366    -5.9237  C.ar    1  <O>11      -0.0161
  19 C14       0.7874    -9.7806    -5.7650  C.ar    1  <O>11      -0.0441
  20 C15       1.4916    -9.0103    -6.8087  C.3     1  <O>11      -0.0393
  21 H1        3.2314    -9.2521    -5.2971  H       1  <O>11       0.0278
  22 H2        3.4736   -10.7152    -4.3128  H       1  <O>11       0.0278
  23 H3        2.9942    -9.1880    -3.5342  H       1  <O>11       0.0278
  24 H4        2.5214    -8.8345    -6.4979  H       1  <O>11       0.0278
  25 H5        0.9885    -8.0548    -6.9567  H       1  <O>11       0.0278
  26 H6        1.4848    -9.5729    -7.7423  H       1  <O>11       0.0278
  27 H7        1.3082   -11.1481    -2.7415  H       1  <O>11       0.0621
  28 H8       -1.0275   -11.7615    -3.0324  H       1  <O>11       0.0654
  29 H9       -4.2251   -11.9081    -7.7715  H       1  <O>11       0.0626
  30 H10      -6.4047   -12.8666    -8.2452  H       1  <O>11       0.0618
  31 H11      -7.3626   -14.5206    -6.7415  H       1  <O>11       0.0640
  32 H12      -6.9127   -16.8339    -5.9909  H       1  <O>11       0.3292
  33 H13      -3.9483   -14.2700    -4.2884  H       1  <O>11       0.0648
  34 H14      -1.0552    -9.8628    -6.7825  H       1  <O>11       0.0657
@<TRIPOS>BOND
     1     1     2    1
     2     2     3   ar
     3     3     4   ar
     4     4     5   ar
     5     5     6    1
     6     6     7    1
     7     7     8    2
     8     7     9    1
     9     9    10   ar
    10    10    11   ar
    11    11    12   ar
    12    12    13   ar
    13    13    14    1
    14    14    15    2
    15    14    16    1
    16    13    17   ar
    17     9    17   ar
    18     5    18   ar
    19    18    19   ar
    20     2    19   ar
    21    19    20    1
    22     1    21    1
    23     1    22    1
    24     1    23    1
    25    20    24    1
    26    20    25    1
    27    20    26    1
    28     3    27    1
    29     4    28    1
    30    10    29    1
    31    11    30    1
    32    12    31    1
    33    16    32    1
    34    17    33    1
    35    18    34    1
@<TRIPOS>MOLECULE
mol12_1_16
 34 35 0 0 0
SMALL
USER_CHARGES
****
VDW energy = 139.98
@<TRIPOS>ATOM
   1 C1        2.8832    -9.8059    -4.4252  C.3     1  <O>11      -0.0395
   2 C2        1.4617   -10.1611    -4.6036  C.ar    1  <O>11      -0.0473
   3 C3        0.8050   -10.8783    -3.6012  C.ar    1  <O>11      -0.0551
   4 C4       -0.5391   -11.2290    -3.7692  C.ar    1  <O>11      -0.0190
   5 C5       -1.2224   -10.8607    -4.9311  C.ar    1  <O>11       0.1322
   6 O1       -2.5340   -11.2020    -5.1020  O.3     1  <O>11      -0.4223
   7 C6       -3.3255   -10.2222    -4.6023  C.2     1  <O>11       0.3445
   8 O2       -2.8234    -9.2288    -4.0979  O.2     1  <O>11      -0.2445
   9 C7       -4.7746   -10.3547    -4.6663  C.ar    1  <O>11       0.0616
  10 C8       -5.6024    -9.3424    -4.1501  C.ar    1  <O>11      -0.0476
  11 C9       -6.9947    -9.4736    -4.2006  C.ar    1  <O>11      -0.0588
  12 C10      -7.5720   -10.6126    -4.7681  C.ar    1  <O>11      -0.0316
  13 C11      -6.7488   -11.6170    -5.2874  C.ar    1  <O>11       0.1224
  14 N1       -7.3501   -12.7895    -5.8732  N.4     1  <O>11       0.0060
  15 O3       -6.4672   -13.9255    -5.6940  O.2     1  <O>11      -0.1300
  16 O4       -7.5672   -12.5645    -7.2891  O.2     1  <O>11      -0.3961
  17 C12      -5.3597   -11.4937    -5.2431  C.ar    1  <O>11      -0.0176
  18 C13      -0.5527   -10.1366    -5.9237  C.ar    1  <O>11      -0.0161
  19 C14       0.7874    -9.7806    -5.7650  C.ar    1  <O>11      -0.0441
  20 C15       1.4916    -9.0103    -6.8087  C.3     1  <O>11      -0.0393
  21 H1        3.2314    -9.2521    -5.2971  H       1  <O>11       0.0278
  22 H2        3.4736   -10.7152    -4.3128  H       1  <O>11       0.0278
  23 H3        2.9942    -9.1880    -3.5342  H       1  <O>11       0.0278
  24 H4        2.5214    -8.8345    -6.4979  H       1  <O>11       0.0278
  25 H5        0.9885    -8.0548    -6.9567  H       1  <O>11       0.0278
  26 H6        1.4848    -9.5729    -7.7423  H       1  <O>11       0.0278
  27 H7        1.3082   -11.1481    -2.7415  H       1  <O>11       0.0621
  28 H8       -1.0275   -11.7615    -3.0324  H       1  <O>11       0.0654
  29 H9       -5.1811    -8.4983    -3.7317  H       1  <O>11       0.0626
  30 H10      -7.5964    -8.7277    -3.8178  H       1  <O>11       0.0618
  31 H11      -8.5987   -10.7119    -4.8039  H       1  <O>11       0.0640
  32 H12      -8.1185   -11.8620    -7.5727  H       1  <O>11       0.3292
  33 H13      -4.7624   -12.2390    -5.6340  H       1  <O>11       0.0648
  34 H14      -1.0552    -9.8628    -6.7825  H       1  <O>11       0.0657
@<TRIPOS>BOND
     1     1     2    1
     2     2     3   ar
     3     3     4   ar
     4     4     5   ar
     5     5     6    1
     6     6     7    1
     7     7     8    2
     8     7     9    1
     9     9    10   ar
    10    10    11   ar
    11    11    12   ar
    12    12    13   ar
    13    13    14    1
    14    14    15    2
    15    14    16    1
    16    13    17   ar
    17     9    17   ar
    18     5    18   ar
    19    18    19   ar
    20     2    19   ar
    21    19    20    1
    22     1    21    1
    23     1    22    1
    24     1    23    1
    25    20    24    1
    26    20    25    1
    27    20    26    1
    28     3    27    1
    29     4    28    1
    30    10    29    1
    31    11    30    1
    32    12    31    1
    33    16    32    1
    34    17    33    1
    35    18    34    1
@<TRIPOS>MOLECULE
mol12_1_17
 34 35 0 0 0
SMALL
USER_CHARGES
****
VDW energy = 140.01
@<TRIPOS>ATOM
   1 C1        2.8832    -9.8059    -4.4252  C.3     1  <O>11      -0.0395
   2 C2        1.4617   -10.1611    -4.6036  C.ar    1  <O>11      -0.0473
   3 C3        0.8050   -10.8783    -3.6012  C.ar    1  <O>11      -0.0551
   4 C4       -0.5391   -11.2290    -3.7692  C.ar    1  <O>11      -0.0190
   5 C5       -1.2224   -10.8607    -4.9311  C.ar    1  <O>11       0.1322
   6 O1       -2.5340   -11.2020    -5.1020  O.3     1  <O>11      -0.4223
   7 C6       -2.6118   -12.4178    -5.6953  C.2     1  <O>11       0.3445
   8 O2       -1.5902   -13.0218    -5.9869  O.2     1  <O>11      -0.2445
   9 C7       -3.9135   -13.0031    -5.9857  C.ar    1  <O>11       0.0616
  10 C8       -4.0024   -14.2640    -6.6011  C.ar    1  <O>11      -0.0476
  11 C9       -5.2523   -14.8225    -6.8910  C.ar    1  <O>11      -0.0588
  12 C10      -6.4222   -14.1303    -6.5675  C.ar    1  <O>11      -0.0316
  13 C11      -6.3342   -12.8785    -5.9497  C.ar    1  <O>11       0.1224
  14 N1       -7.5449   -12.1694    -5.6168  N.4     1  <O>11       0.0060
  15 O3       -8.6016   -13.1223    -5.3389  O.2     1  <O>11      -0.1300
  16 O4       -7.9336   -11.3278    -6.7318  O.2     1  <O>11      -0.3961
  17 C12      -5.0922   -12.3150    -5.6551  C.ar    1  <O>11      -0.0176
  18 C13      -0.5527   -10.1366    -5.9237  C.ar    1  <O>11      -0.0161
  19 C14       0.7874    -9.7806    -5.7650  C.ar    1  <O>11      -0.0441
  20 C15       1.4916    -9.0103    -6.8087  C.3     1  <O>11      -0.0393
  21 H1        3.2314    -9.2521    -5.2971  H       1  <O>11       0.0278
  22 H2        3.4736   -10.7152    -4.3128  H       1  <O>11       0.0278
  23 H3        2.9942    -9.1880    -3.5342  H       1  <O>11       0.0278
  24 H4        2.5214    -8.8345    -6.4979  H       1  <O>11       0.0278
  25 H5        0.9885    -8.0548    -6.9567  H       1  <O>11       0.0278
  26 H6        1.4848    -9.5729    -7.7423  H       1  <O>11       0.0278
  27 H7        1.3082   -11.1481    -2.7415  H       1  <O>11       0.0621
  28 H8       -1.0275   -11.7615    -3.0324  H       1  <O>11       0.0654
  29 H9       -3.1414   -14.7804    -6.8401  H       1  <O>11       0.0626
  30 H10      -5.3101   -15.7476    -7.3448  H       1  <O>11       0.0618
  31 H11      -7.3447   -14.5398    -6.7829  H       1  <O>11       0.0640
  32 H12      -7.3549   -10.6568    -7.0363  H       1  <O>11       0.3292
  33 H13      -5.0398   -11.3930    -5.1944  H       1  <O>11       0.0648
  34 H14      -1.0552    -9.8628    -6.7825  H       1  <O>11       0.0657
@<TRIPOS>BOND
     1     1     2    1
     2     2     3   ar
     3     3     4   ar
     4     4     5   ar
     5     5     6    1
     6     6     7    1
     7     7     8    2
     8     7     9    1
     9     9    10   ar
    10    10    11   ar
    11    11    12   ar
    12    12    13   ar
    13    13    14    1
    14    14    15    2
    15    14    16    1
    16    13    17   ar
    17     9    17   ar
    18     5    18   ar
    19    18    19   ar
    20     2    19   ar
    21    19    20    1
    22     1    21    1
    23     1    22    1
    24     1    23    1
    25    20    24    1
    26    20    25    1
    27    20    26    1
    28     3    27    1
    29     4    28    1
    30    10    29    1
    31    11    30    1
    32    12    31    1
    33    16    32    1
    34    17    33    1
    35    18    34    1
@<TRIPOS>MOLECULE
mol12_1_18
 34 35 0 0 0
SMALL
USER_CHARGES
****
VDW energy = 140.10
@<TRIPOS>ATOM
   1 C1        2.8832    -9.8059    -4.4252  C.3     1  <O>11      -0.0395
   2 C2        1.4617   -10.1611    -4.6036  C.ar    1  <O>11      -0.0473
   3 C3        0.8050   -10.8783    -3.6012  C.ar    1  <O>11      -0.0551
   4 C4       -0.5391   -11.2290    -3.7692  C.ar    1  <O>11      -0.0190
   5 C5       -1.2224   -10.8607    -4.9311  C.ar    1  <O>11       0.1322
   6 O1       -2.5340   -11.2020    -5.1020  O.3     1  <O>11      -0.4223
   7 C6       -3.2766   -10.6580    -4.1076  C.2     1  <O>11       0.3445
   8 O2       -2.7388    -9.9819    -3.2432  O.2     1  <O>11      -0.2445
   9 C7       -4.7155   -10.8806    -4.0696  C.ar    1  <O>11       0.0616
  10 C8       -5.2468   -12.1401    -4.3983  C.ar    1  <O>11      -0.0476
  11 C9       -6.6298   -12.3522    -4.3734  C.ar    1  <O>11      -0.0588
  12 C10      -7.4928   -11.3122    -4.0181  C.ar    1  <O>11      -0.0316
  13 C11      -6.9642   -10.0609    -3.6851  C.ar    1  <O>11       0.1224
  14 N1       -7.8595    -8.9917    -3.3178  N.4     1  <O>11       0.0060
  15 O3       -8.7123    -9.4286    -2.2298  O.2     1  <O>11      -0.1300
  16 O4       -8.6779    -8.6336    -4.4599  O.2     1  <O>11      -0.3961
  17 C12      -5.5864    -9.8410    -3.7053  C.ar    1  <O>11      -0.0176
  18 C13      -0.5527   -10.1366    -5.9237  C.ar    1  <O>11      -0.0161
  19 C14       0.7874    -9.7806    -5.7650  C.ar    1  <O>11      -0.0441
  20 C15       1.4916    -9.0103    -6.8087  C.3     1  <O>11      -0.0393
  21 H1        3.2314    -9.2521    -5.2971  H       1  <O>11       0.0278
  22 H2        3.4736   -10.7152    -4.3128  H       1  <O>11       0.0278
  23 H3        2.9942    -9.1880    -3.5342  H       1  <O>11       0.0278
  24 H4        2.5214    -8.8345    -6.4979  H       1  <O>11       0.0278
  25 H5        0.9885    -8.0548    -6.9567  H       1  <O>11       0.0278
  26 H6        1.4848    -9.5729    -7.7423  H       1  <O>11       0.0278
  27 H7        1.3082   -11.1481    -2.7415  H       1  <O>11       0.0621
  28 H8       -1.0275   -11.7615    -3.0324  H       1  <O>11       0.0654
  29 H9       -4.6136   -12.9121    -4.6593  H       1  <O>11       0.0626
  30 H10      -7.0131   -13.2786    -4.6179  H       1  <O>11       0.0618
  31 H11      -8.5132   -11.4664    -4.0016  H       1  <O>11       0.0640
  32 H12      -8.2741    -8.3294    -5.2488  H       1  <O>11       0.3292
  33 H13      -5.2077    -8.9149    -3.4527  H       1  <O>11       0.0648
  34 H14      -1.0552    -9.8628    -6.7825  H       1  <O>11       0.0657
@<TRIPOS>BOND
     1     1     2    1
     2     2     3   ar
     3     3     4   ar
     4     4     5   ar
     5     5     6    1
     6     6     7    1
     7     7     8    2
     8     7     9    1
     9     9    10   ar
    10    10    11   ar
    11    11    12   ar
    12    12    13   ar
    13    13    14    1
    14    14    15    2
    15    14    16    1
    16    13    17   ar
    17     9    17   ar
    18     5    18   ar
    19    18    19   ar
    20     2    19   ar
    21    19    20    1
    22     1    21    1
    23     1    22    1
    24     1    23    1
    25    20    24    1
    26    20    25    1
    27    20    26    1
    28     3    27    1
    29     4    28    1
    30    10    29    1
    31    11    30    1
    32    12    31    1
    33    16    32    1
    34    17    33    1
    35    18    34    1
@<TRIPOS>MOLECULE
mol12_1_19
 34 35 0 0 0
SMALL
USER_CHARGES
****
VDW energy = 141.40
@<TRIPOS>ATOM
   1 C1        2.8832    -9.8059    -4.4252  C.3     1  <O>11      -0.0395
   2 C2        1.4617   -10.1611    -4.6036  C.ar    1  <O>11      -0.0473
   3 C3        0.8050   -10.8783    -3.6012  C.ar    1  <O>11      -0.0551
   4 C4       -0.5391   -11.2290    -3.7692  C.ar    1  <O>11      -0.0190
   5 C5       -1.2224   -10.8607    -4.9311  C.ar    1  <O>11       0.1322
   6 O1       -2.5340   -11.2020    -5.1020  O.3     1  <O>11      -0.4223
   7 C6       -2.6118   -12.4178    -5.6953  C.2     1  <O>11       0.3445
   8 O2       -1.5902   -13.0218    -5.9869  O.2     1  <O>11      -0.2445
   9 C7       -3.9135   -13.0031    -5.9857  C.ar    1  <O>11       0.0616
  10 C8       -4.9634   -12.1969    -6.4593  C.ar    1  <O>11      -0.0476
  11 C9       -6.2180   -12.7559    -6.7278  C.ar    1  <O>11      -0.0588
  12 C10      -6.4345   -14.1220    -6.5292  C.ar    1  <O>11      -0.0316
  13 C11      -5.3884   -14.9254    -6.0638  C.ar    1  <O>11       0.1224
  14 N1       -5.6172   -16.3348    -5.8621  N.4     1  <O>11       0.0060
  15 O3       -4.4449   -16.9317    -5.2526  O.2     1  <O>11      -0.1300
  16 O4       -5.8743   -16.9700    -7.1400  O.2     1  <O>11      -0.3961
  17 C12      -4.1338   -14.3769    -5.7955  C.ar    1  <O>11      -0.0176
  18 C13      -0.5527   -10.1366    -5.9237  C.ar    1  <O>11      -0.0161
  19 C14       0.7874    -9.7806    -5.7650  C.ar    1  <O>11      -0.0441
  20 C15       1.4916    -9.0103    -6.8087  C.3     1  <O>11      -0.0393
  21 H1        3.2314    -9.2521    -5.2971  H       1  <O>11       0.0278
  22 H2        3.4736   -10.7152    -4.3128  H       1  <O>11       0.0278
  23 H3        2.9942    -9.1880    -3.5342  H       1  <O>11       0.0278
  24 H4        2.5214    -8.8345    -6.4979  H       1  <O>11       0.0278
  25 H5        0.9885    -8.0548    -6.9567  H       1  <O>11       0.0278
  26 H6        1.4848    -9.5729    -7.7423  H       1  <O>11       0.0278
  27 H7        1.3082   -11.1481    -2.7415  H       1  <O>11       0.0621
  28 H8       -1.0275   -11.7615    -3.0324  H       1  <O>11       0.0654
  29 H9       -4.8082   -11.1878    -6.6097  H       1  <O>11       0.0626
  30 H10      -6.9848   -12.1579    -7.0732  H       1  <O>11       0.0618
  31 H11      -7.3598   -14.5352    -6.7244  H       1  <O>11       0.0640
  32 H12      -6.6024   -16.6951    -7.6617  H       1  <O>11       0.3292
  33 H13      -3.3681   -14.9806    -5.4574  H       1  <O>11       0.0648
  34 H14      -1.0552    -9.8628    -6.7825  H       1  <O>11       0.0657
@<TRIPOS>BOND
     1     1     2    1
     2     2     3   ar
     3     3     4   ar
     4     4     5   ar
     5     5     6    1
     6     6     7    1
     7     7     8    2
     8     7     9    1
     9     9    10   ar
    10    10    11   ar
    11    11    12   ar
    12    12    13   ar
    13    13    14    1
    14    14    15    2
    15    14    16    1
    16    13    17   ar
    17     9    17   ar
    18     5    18   ar
    19    18    19   ar
    20     2    19   ar
    21    19    20    1
    22     1    21    1
    23     1    22    1
    24     1    23    1
    25    20    24    1
    26    20    25    1
    27    20    26    1
    28     3    27    1
    29     4    28    1
    30    10    29    1
    31    11    30    1
    32    12    31    1
    33    16    32    1
    34    17    33    1
    35    18    34    1
@<TRIPOS>MOLECULE
mol12_1_20
 34 35 0 0 0
SMALL
USER_CHARGES
****
VDW energy = 141.47
@<TRIPOS>ATOM
   1 C1        2.8832    -9.8059    -4.4252  C.3     1  <O>11      -0.0395
   2 C2        1.4617   -10.1611    -4.6036  C.ar    1  <O>11      -0.0473
   3 C3        0.8050   -10.8783    -3.6012  C.ar    1  <O>11      -0.0551
   4 C4       -0.5391   -11.2290    -3.7692  C.ar    1  <O>11      -0.0190
   5 C5       -1.2224   -10.8607    -4.9311  C.ar    1  <O>11       0.1322
   6 O1       -2.5340   -11.2020    -5.1020  O.3     1  <O>11      -0.4223
   7 C6       -3.3255   -10.2222    -4.6023  C.2     1  <O>11       0.3445
   8 O2       -2.8234    -9.2290    -4.0976  O.2     1  <O>11      -0.2445
   9 C7       -4.7746   -10.3545    -4.6667  C.ar    1  <O>11       0.0616
  10 C8       -5.3840   -11.5988    -4.4280  C.ar    1  <O>11      -0.0476
  11 C9       -6.7754   -11.7299    -4.5008  C.ar    1  <O>11      -0.0588
  12 C10      -7.5693   -10.6221    -4.8090  C.ar    1  <O>11      -0.0316
  13 C11      -6.9638    -9.3828    -5.0405  C.ar    1  <O>11       0.1224
  14 N1       -7.7882    -8.2427    -5.3567  N.4     1  <O>11       0.0060
  15 O3       -6.9426    -7.1123    -5.6874  O.2     1  <O>11      -0.1300
  16 O4       -8.6130    -7.9107    -4.2112  O.2     1  <O>11      -0.3961
  17 C12      -5.5774    -9.2424    -4.9680  C.ar    1  <O>11      -0.0176
  18 C13      -0.5527   -10.1366    -5.9237  C.ar    1  <O>11      -0.0161
  19 C14       0.7874    -9.7806    -5.7650  C.ar    1  <O>11      -0.0441
  20 C15       1.4916    -9.0103    -6.8087  C.3     1  <O>11      -0.0393
  21 H1        3.2314    -9.2521    -5.2971  H       1  <O>11       0.0278
  22 H2        3.4736   -10.7152    -4.3128  H       1  <O>11       0.0278
  23 H3        2.9942    -9.1880    -3.5342  H       1  <O>11       0.0278
  24 H4        2.5214    -8.8345    -6.4979  H       1  <O>11       0.0278
  25 H5        0.9885    -8.0548    -6.9567  H       1  <O>11       0.0278
  26 H6        1.4848    -9.5729    -7.7423  H       1  <O>11       0.0278
  27 H7        1.3082   -11.1481    -2.7415  H       1  <O>11       0.0621
  28 H8       -1.0275   -11.7615    -3.0324  H       1  <O>11       0.0654
  29 H9       -4.8024   -12.4196    -4.1979  H       1  <O>11       0.0626
  30 H10      -7.2160   -12.6467    -4.3265  H       1  <O>11       0.0618
  31 H11      -8.5954   -10.7177    -4.8654  H       1  <O>11       0.0640
  32 H12      -9.2182    -8.5402    -3.8716  H       1  <O>11       0.3292
  33 H13      -5.1422    -8.3218    -5.1357  H       1  <O>11       0.0648
  34 H14      -1.0552    -9.8628    -6.7825  H       1  <O>11       0.0657
@<TRIPOS>BOND
     1     1     2    1
     2     2     3   ar
     3     3     4   ar
     4     4     5   ar
     5     5     6    1
     6     6     7    1
     7     7     8    2
     8     7     9    1
     9     9    10   ar
    10    10    11   ar
    11    11    12   ar
    12    12    13   ar
    13    13    14    1
    14    14    15    2
    15    14    16    1
    16    13    17   ar
    17     9    17   ar
    18     5    18   ar
    19    18    19   ar
    20     2    19   ar
    21    19    20    1
    22     1    21    1
    23     1    22    1
    24     1    23    1
    25    20    24    1
    26    20    25    1
    27    20    26    1
    28     3    27    1
    29     4    28    1
    30    10    29    1
    31    11    30    1
    32    12    31    1
    33    16    32    1
    34    17    33    1
    35    18    34    1
@<TRIPOS>MOLECULE
mol12_1_21
 34 35 0 0 0
SMALL
USER_CHARGES
****
VDW energy = 141.87
@<TRIPOS>ATOM
   1 C1        2.8832    -9.8059    -4.4252  C.3     1  <O>11      -0.0395
   2 C2        1.4617   -10.1611    -4.6036  C.ar    1  <O>11      -0.0473
   3 C3        0.8050   -10.8783    -3.6012  C.ar    1  <O>11      -0.0551
   4 C4       -0.5391   -11.2290    -3.7692  C.ar    1  <O>11      -0.0190
   5 C5       -1.2224   -10.8607    -4.9311  C.ar    1  <O>11       0.1322
   6 O1       -2.5340   -11.2020    -5.1020  O.3     1  <O>11      -0.4223
   7 C6       -3.2766   -10.6580    -4.1076  C.2     1  <O>11       0.3445
   8 O2       -2.7387    -9.9822    -3.2430  O.2     1  <O>11      -0.2445
   9 C7       -4.7155   -10.8803    -4.0699  C.ar    1  <O>11       0.0616
  10 C8       -5.2344   -12.0772    -3.5456  C.ar    1  <O>11      -0.0476
  11 C9       -6.6162   -12.2969    -3.5193  C.ar    1  <O>11      -0.0588
  12 C10      -7.4907   -11.3249    -4.0122  C.ar    1  <O>11      -0.0316
  13 C11      -6.9752   -10.1315    -4.5281  C.ar    1  <O>11       0.1224
  14 N1       -7.8825    -9.1313    -5.0341  N.4     1  <O>11       0.0060
  15 O3       -7.2335    -8.3819    -6.0921  O.2     1  <O>11      -0.1300
  16 O4       -8.2545    -8.2299    -3.9611  O.2     1  <O>11      -0.3961
  17 C12      -5.5989    -9.9031    -4.5565  C.ar    1  <O>11      -0.0176
  18 C13      -0.5527   -10.1366    -5.9237  C.ar    1  <O>11      -0.0161
  19 C14       0.7874    -9.7806    -5.7650  C.ar    1  <O>11      -0.0441
  20 C15       1.4916    -9.0103    -6.8087  C.3     1  <O>11      -0.0393
  21 H1        3.2314    -9.2521    -5.2971  H       1  <O>11       0.0278
  22 H2        3.4736   -10.7152    -4.3128  H       1  <O>11       0.0278
  23 H3        2.9942    -9.1880    -3.5342  H       1  <O>11       0.0278
  24 H4        2.5214    -8.8345    -6.4979  H       1  <O>11       0.0278
  25 H5        0.9885    -8.0548    -6.9567  H       1  <O>11       0.0278
  26 H6        1.4848    -9.5729    -7.7423  H       1  <O>11       0.0278
  27 H7        1.3082   -11.1481    -2.7415  H       1  <O>11       0.0621
  28 H8       -1.0275   -11.7615    -3.0324  H       1  <O>11       0.0654
  29 H9       -4.5929   -12.7974    -3.1784  H       1  <O>11       0.0626
  30 H10      -6.9901   -13.1787    -3.1350  H       1  <O>11       0.0618
  31 H11      -8.5099   -11.4865    -3.9956  H       1  <O>11       0.0640
  32 H12      -8.6863    -8.5619    -3.1987  H       1  <O>11       0.3292
  33 H13      -5.2304    -9.0165    -4.9349  H       1  <O>11       0.0648
  34 H14      -1.0552    -9.8628    -6.7825  H       1  <O>11       0.0657
@<TRIPOS>BOND
     1     1     2    1
     2     2     3   ar
     3     3     4   ar
     4     4     5   ar
     5     5     6    1
     6     6     7    1
     7     7     8    2
     8     7     9    1
     9     9    10   ar
    10    10    11   ar
    11    11    12   ar
    12    12    13   ar
    13    13    14    1
    14    14    15    2
    15    14    16    1
    16    13    17   ar
    17     9    17   ar
    18     5    18   ar
    19    18    19   ar
    20     2    19   ar
    21    19    20    1
    22     1    21    1
    23     1    22    1
    24     1    23    1
    25    20    24    1
    26    20    25    1
    27    20    26    1
    28     3    27    1
    29     4    28    1
    30    10    29    1
    31    11    30    1
    32    12    31    1
    33    16    32    1
    34    17    33    1
    35    18    34    1
@<TRIPOS>MOLECULE
mol12_1_22
 34 35 0 0 0
SMALL
USER_CHARGES
****
VDW energy = 143.85
@<TRIPOS>ATOM
   1 C1        2.8832    -9.8059    -4.4252  C.3     1  <O>11      -0.0395
   2 C2        1.4617   -10.1611    -4.6036  C.ar    1  <O>11      -0.0473
   3 C3        0.8050   -10.8783    -3.6012  C.ar    1  <O>11      -0.0551
   4 C4       -0.5391   -11.2290    -3.7692  C.ar    1  <O>11      -0.0190
   5 C5       -1.2224   -10.8607    -4.9311  C.ar    1  <O>11       0.1322
   6 O1       -2.5340   -11.2020    -5.1020  O.3     1  <O>11      -0.4223
   7 C6       -3.2766   -10.6580    -4.1076  C.2     1  <O>11       0.3445
   8 O2       -2.7388    -9.9819    -3.2432  O.2     1  <O>11      -0.2445
   9 C7       -4.7155   -10.8806    -4.0696  C.ar    1  <O>11       0.0616
  10 C8       -5.4926   -10.3196    -3.0411  C.ar    1  <O>11      -0.0476
  11 C9       -6.8735   -10.5422    -2.9970  C.ar    1  <O>11      -0.0588
  12 C10      -7.4902   -11.3226    -3.9784  C.ar    1  <O>11      -0.0316
  13 C11      -6.7182   -11.8758    -5.0052  C.ar    1  <O>11       0.1224
  14 N1       -7.3602   -12.6791    -6.0161  N.4     1  <O>11       0.0060
  15 O3       -8.4420   -11.9242    -6.6176  O.2     1  <O>11      -0.1300
  16 O4       -7.8906   -13.8848    -5.4099  O.2     1  <O>11      -0.3961
  17 C12      -5.3411   -11.6575    -5.0582  C.ar    1  <O>11      -0.0176
  18 C13      -0.5527   -10.1366    -5.9237  C.ar    1  <O>11      -0.0161
  19 C14       0.7874    -9.7806    -5.7650  C.ar    1  <O>11      -0.0441
  20 C15       1.4916    -9.0103    -6.8087  C.3     1  <O>11      -0.0393
  21 H1        3.2314    -9.2521    -5.2971  H       1  <O>11       0.0278
  22 H2        3.4736   -10.7152    -4.3128  H       1  <O>11       0.0278
  23 H3        2.9942    -9.1880    -3.5342  H       1  <O>11       0.0278
  24 H4        2.5214    -8.8345    -6.4979  H       1  <O>11       0.0278
  25 H5        0.9885    -8.0548    -6.9567  H       1  <O>11       0.0278
  26 H6        1.4848    -9.5729    -7.7423  H       1  <O>11       0.0278
  27 H7        1.3082   -11.1481    -2.7415  H       1  <O>11       0.0621
  28 H8       -1.0275   -11.7615    -3.0324  H       1  <O>11       0.0654
  29 H9       -5.0424    -9.7407    -2.3150  H       1  <O>11       0.0626
  30 H10      -7.4376   -10.1290    -2.2380  H       1  <O>11       0.0618
  31 H11      -8.5081   -11.4896    -3.9458  H       1  <O>11       0.0640
  32 H12      -7.3147   -14.4839    -4.9770  H       1  <O>11       0.3292
  33 H13      -4.7826   -12.0666    -5.8235  H       1  <O>11       0.0648
  34 H14      -1.0552    -9.8628    -6.7825  H       1  <O>11       0.0657
@<TRIPOS>BOND
     1     1     2    1
     2     2     3   ar
     3     3     4   ar
     4     4     5   ar
     5     5     6    1
     6     6     7    1
     7     7     8    2
     8     7     9    1
     9     9    10   ar
    10    10    11   ar
    11    11    12   ar
    12    12    13   ar
    13    13    14    1
    14    14    15    2
    15    14    16    1
    16    13    17   ar
    17     9    17   ar
    18     5    18   ar
    19    18    19   ar
    20     2    19   ar
    21    19    20    1
    22     1    21    1
    23     1    22    1
    24     1    23    1
    25    20    24    1
    26    20    25    1
    27    20    26    1
    28     3    27    1
    29     4    28    1
    30    10    29    1
    31    11    30    1
    32    12    31    1
    33    16    32    1
    34    17    33    1
    35    18    34    1
@<TRIPOS>MOLECULE
mol12_1_23
 34 35 0 0 0
SMALL
USER_CHARGES
****
VDW energy = 145.23
@<TRIPOS>ATOM
   1 C1        2.8832    -9.8059    -4.4252  C.3     1  <O>11      -0.0395
   2 C2        1.4617   -10.1611    -4.6036  C.ar    1  <O>11      -0.0473
   3 C3        0.8050   -10.8783    -3.6012  C.ar    1  <O>11      -0.0551
   4 C4       -0.5391   -11.2290    -3.7692  C.ar    1  <O>11      -0.0190
   5 C5       -1.2224   -10.8607    -4.9311  C.ar    1  <O>11       0.1322
   6 O1       -2.5340   -11.2020    -5.1020  O.3     1  <O>11      -0.4223
   7 C6       -3.2766   -10.6580    -4.1076  C.2     1  <O>11       0.3445
   8 O2       -2.7388    -9.9819    -3.2432  O.2     1  <O>11      -0.2445
   9 C7       -4.7155   -10.8806    -4.0696  C.ar    1  <O>11       0.0616
  10 C8       -5.4926   -10.3196    -3.0411  C.ar    1  <O>11      -0.0476
  11 C9       -6.8735   -10.5422    -2.9970  C.ar    1  <O>11      -0.0588
  12 C10      -7.4902   -11.3226    -3.9784  C.ar    1  <O>11      -0.0316
  13 C11      -6.7182   -11.8758    -5.0052  C.ar    1  <O>11       0.1224
  14 N1       -7.3602   -12.6791    -6.0161  N.4     1  <O>11       0.0060
  15 O3       -6.4267   -13.6742    -6.5067  O.2     1  <O>11      -0.1300
  16 O4       -7.7816   -11.8291    -7.1127  O.2     1  <O>11      -0.3961
  17 C12      -5.3411   -11.6575    -5.0582  C.ar    1  <O>11      -0.0176
  18 C13      -0.5527   -10.1366    -5.9237  C.ar    1  <O>11      -0.0161
  19 C14       0.7874    -9.7806    -5.7650  C.ar    1  <O>11      -0.0441
  20 C15       1.4916    -9.0103    -6.8087  C.3     1  <O>11      -0.0393
  21 H1        3.2314    -9.2521    -5.2971  H       1  <O>11       0.0278
  22 H2        3.4736   -10.7152    -4.3128  H       1  <O>11       0.0278
  23 H3        2.9942    -9.1880    -3.5342  H       1  <O>11       0.0278
  24 H4        2.5214    -8.8345    -6.4979  H       1  <O>11       0.0278
  25 H5        0.9885    -8.0548    -6.9567  H       1  <O>11       0.0278
  26 H6        1.4848    -9.5729    -7.7423  H       1  <O>11       0.0278
  27 H7        1.3082   -11.1481    -2.7415  H       1  <O>11       0.0621
  28 H8       -1.0275   -11.7615    -3.0324  H       1  <O>11       0.0654
  29 H9       -5.0424    -9.7407    -2.3150  H       1  <O>11       0.0626
  30 H10      -7.4376   -10.1290    -2.2380  H       1  <O>11       0.0618
  31 H11      -8.5081   -11.4896    -3.9458  H       1  <O>11       0.0640
  32 H12      -8.3884   -11.1321    -6.9587  H       1  <O>11       0.3292
  33 H13      -4.7826   -12.0666    -5.8235  H       1  <O>11       0.0648
  34 H14      -1.0552    -9.8628    -6.7825  H       1  <O>11       0.0657
@<TRIPOS>BOND
     1     1     2    1
     2     2     3   ar
     3     3     4   ar
     4     4     5   ar
     5     5     6    1
     6     6     7    1
     7     7     8    2
     8     7     9    1
     9     9    10   ar
    10    10    11   ar
    11    11    12   ar
    12    12    13   ar
    13    13    14    1
    14    14    15    2
    15    14    16    1
    16    13    17   ar
    17     9    17   ar
    18     5    18   ar
    19    18    19   ar
    20     2    19   ar
    21    19    20    1
    22     1    21    1
    23     1    22    1
    24     1    23    1
    25    20    24    1
    26    20    25    1
    27    20    26    1
    28     3    27    1
    29     4    28    1
    30    10    29    1
    31    11    30    1
    32    12    31    1
    33    16    32    1
    34    17    33    1
    35    18    34    1
@<TRIPOS>MOLECULE
mol12_1_24
 34 35 0 0 0
SMALL
USER_CHARGES
****
VDW energy = 145.36
@<TRIPOS>ATOM
   1 C1        2.8832    -9.8059    -4.4252  C.3     1  <O>11      -0.0395
   2 C2        1.4617   -10.1611    -4.6036  C.ar    1  <O>11      -0.0473
   3 C3        0.8050   -10.8783    -3.6012  C.ar    1  <O>11      -0.0551
   4 C4       -0.5391   -11.2290    -3.7692  C.ar    1  <O>11      -0.0190
   5 C5       -1.2224   -10.8607    -4.9311  C.ar    1  <O>11       0.1322
   6 O1       -2.5340   -11.2020    -5.1020  O.3     1  <O>11      -0.4223
   7 C6       -2.6118   -12.4178    -5.6953  C.2     1  <O>11       0.3445
   8 O2       -3.7034   -12.9103    -5.9384  O.2     1  <O>11      -0.2445
   9 C7       -1.3935   -13.1368    -6.0420  C.ar    1  <O>11       0.0616
  10 C8       -0.6997   -13.8692    -5.0628  C.ar    1  <O>11      -0.0476
  11 C9        0.4772   -14.5512    -5.3918  C.ar    1  <O>11      -0.0588
  12 C10       0.9695   -14.5107    -6.6989  C.ar    1  <O>11      -0.0316
  13 C11       0.2762   -13.7872    -7.6747  C.ar    1  <O>11       0.1224
  14 N1        0.7881   -13.7501    -9.0223  N.4     1  <O>11       0.0060
  15 O3        0.9819   -15.1044    -9.5025  O.2     1  <O>11      -0.1300
  16 O4        2.0553   -13.0455    -9.0382  O.2     1  <O>11      -0.3961
  17 C12      -0.8991   -13.1060    -7.3560  C.ar    1  <O>11      -0.0176
  18 C13      -0.5527   -10.1366    -5.9237  C.ar    1  <O>11      -0.0161
  19 C14       0.7874    -9.7806    -5.7650  C.ar    1  <O>11      -0.0441
  20 C15       1.4916    -9.0103    -6.8087  C.3     1  <O>11      -0.0393
  21 H1        3.2314    -9.2521    -5.2971  H       1  <O>11       0.0278
  22 H2        3.4736   -10.7152    -4.3128  H       1  <O>11       0.0278
  23 H3        2.9942    -9.1880    -3.5342  H       1  <O>11       0.0278
  24 H4        2.5214    -8.8345    -6.4979  H       1  <O>11       0.0278
  25 H5        0.9885    -8.0548    -6.9567  H       1  <O>11       0.0278
  26 H6        1.4848    -9.5729    -7.7423  H       1  <O>11       0.0278
  27 H7        1.3082   -11.1481    -2.7415  H       1  <O>11       0.0621
  28 H8       -1.0275   -11.7615    -3.0324  H       1  <O>11       0.0654
  29 H9       -1.0602   -13.9041    -4.0964  H       1  <O>11       0.0626
  30 H10       0.9825   -15.0851    -4.6675  H       1  <O>11       0.0618
  31 H11       1.8386   -15.0111    -6.9426  H       1  <O>11       0.0640
  32 H12       2.0988   -12.1534    -8.7551  H       1  <O>11       0.3292
  33 H13      -1.4048   -12.5797    -8.0856  H       1  <O>11       0.0648
  34 H14      -1.0552    -9.8628    -6.7825  H       1  <O>11       0.0657
@<TRIPOS>BOND
     1     1     2    1
     2     2     3   ar
     3     3     4   ar
     4     4     5   ar
     5     5     6    1
     6     6     7    1
     7     7     8    2
     8     7     9    1
     9     9    10   ar
    10    10    11   ar
    11    11    12   ar
    12    12    13   ar
    13    13    14    1
    14    14    15    2
    15    14    16    1
    16    13    17   ar
    17     9    17   ar
    18     5    18   ar
    19    18    19   ar
    20     2    19   ar
    21    19    20    1
    22     1    21    1
    23     1    22    1
    24     1    23    1
    25    20    24    1
    26    20    25    1
    27    20    26    1
    28     3    27    1
    29     4    28    1
    30    10    29    1
    31    11    30    1
    32    12    31    1
    33    16    32    1
    34    17    33    1
    35    18    34    1
@<TRIPOS>MOLECULE
mol12_1_25
 34 35 0 0 0
SMALL
USER_CHARGES
****
VDW energy = 146.46
@<TRIPOS>ATOM
   1 C1        2.8832    -9.8059    -4.4252  C.3     1  <O>11      -0.0395
   2 C2        1.4617   -10.1611    -4.6036  C.ar    1  <O>11      -0.0473
   3 C3        0.8050   -10.8783    -3.6012  C.ar    1  <O>11      -0.0551
   4 C4       -0.5391   -11.2290    -3.7692  C.ar    1  <O>11      -0.0190
   5 C5       -1.2224   -10.8607    -4.9311  C.ar    1  <O>11       0.1322
   6 O1       -2.5340   -11.2020    -5.1020  O.3     1  <O>11      -0.4223
   7 C6       -2.6118   -12.4178    -5.6953  C.2     1  <O>11       0.3445
   8 O2       -3.7034   -12.9103    -5.9384  O.2     1  <O>11      -0.2445
   9 C7       -1.3935   -13.1368    -6.0420  C.ar    1  <O>11       0.0616
  10 C8       -0.6997   -13.8692    -5.0628  C.ar    1  <O>11      -0.0476
  11 C9        0.4772   -14.5512    -5.3918  C.ar    1  <O>11      -0.0588
  12 C10       0.9695   -14.5107    -6.6989  C.ar    1  <O>11      -0.0316
  13 C11       0.2762   -13.7872    -7.6747  C.ar    1  <O>11       0.1224
  14 N1        0.7881   -13.7501    -9.0223  N.4     1  <O>11       0.0060
  15 O3        1.5038   -14.9799    -9.3008  O.2     1  <O>11      -0.1300
  16 O4        1.6892   -12.6232    -9.1656  O.2     1  <O>11      -0.3961
  17 C12      -0.8991   -13.1060    -7.3560  C.ar    1  <O>11      -0.0176
  18 C13      -0.5527   -10.1366    -5.9237  C.ar    1  <O>11      -0.0161
  19 C14       0.7874    -9.7806    -5.7650  C.ar    1  <O>11      -0.0441
  20 C15       1.4916    -9.0103    -6.8087  C.3     1  <O>11      -0.0393
  21 H1        3.2314    -9.2521    -5.2971  H       1  <O>11       0.0278
  22 H2        3.4736   -10.7152    -4.3128  H       1  <O>11       0.0278
  23 H3        2.9942    -9.1880    -3.5342  H       1  <O>11       0.0278
  24 H4        2.5214    -8.8345    -6.4979  H       1  <O>11       0.0278
  25 H5        0.9885    -8.0548    -6.9567  H       1  <O>11       0.0278
  26 H6        1.4848    -9.5729    -7.7423  H       1  <O>11       0.0278
  27 H7        1.3082   -11.1481    -2.7415  H       1  <O>11       0.0621
  28 H8       -1.0275   -11.7615    -3.0324  H       1  <O>11       0.0654
  29 H9       -1.0602   -13.9041    -4.0964  H       1  <O>11       0.0626
  30 H10       0.9825   -15.0851    -4.6675  H       1  <O>11       0.0618
  31 H11       1.8386   -15.0111    -6.9426  H       1  <O>11       0.0640
  32 H12       1.3772   -11.7521    -9.0182  H       1  <O>11       0.3292
  33 H13      -1.4048   -12.5797    -8.0856  H       1  <O>11       0.0648
  34 H14      -1.0552    -9.8628    -6.7825  H       1  <O>11       0.0657
@<TRIPOS>BOND
     1     1     2    1
     2     2     3   ar
     3     3     4   ar
     4     4     5   ar
     5     5     6    1
     6     6     7    1
     7     7     8    2
     8     7     9    1
     9     9    10   ar
    10    10    11   ar
    11    11    12   ar
    12    12    13   ar
    13    13    14    1
    14    14    15    2
    15    14    16    1
    16    13    17   ar
    17     9    17   ar
    18     5    18   ar
    19    18    19   ar
    20     2    19   ar
    21    19    20    1
    22     1    21    1
    23     1    22    1
    24     1    23    1
    25    20    24    1
    26    20    25    1
    27    20    26    1
    28     3    27    1
    29     4    28    1
    30    10    29    1
    31    11    30    1
    32    12    31    1
    33    16    32    1
    34    17    33    1
    35    18    34    1
@<TRIPOS>MOLECULE
mol12_1_26
 34 35 0 0 0
SMALL
USER_CHARGES
****
VDW energy = 150.19
@<TRIPOS>ATOM
   1 C1        2.8832    -9.8059    -4.4252  C.3     1  <O>11      -0.0395
   2 C2        1.4617   -10.1611    -4.6036  C.ar    1  <O>11      -0.0473
   3 C3        0.8050   -10.8783    -3.6012  C.ar    1  <O>11      -0.0551
   4 C4       -0.5391   -11.2290    -3.7692  C.ar    1  <O>11      -0.0190
   5 C5       -1.2224   -10.8607    -4.9311  C.ar    1  <O>11       0.1322
   6 O1       -2.5340   -11.2020    -5.1020  O.3     1  <O>11      -0.4223
   7 C6       -3.3255   -10.2222    -4.6023  C.2     1  <O>11       0.3445
   8 O2       -4.5414   -10.3318    -4.6565  O.2     1  <O>11      -0.2445
   9 C7       -2.7258    -9.0385    -4.0018  C.ar    1  <O>11       0.0616
  10 C8       -2.2622    -7.9890    -4.8143  C.ar    1  <O>11      -0.0476
  11 C9       -1.6754    -6.8562    -4.2392  C.ar    1  <O>11      -0.0588
  12 C10      -1.5488    -6.7597    -2.8509  C.ar    1  <O>11      -0.0316
  13 C11      -2.0155    -7.8010    -2.0420  C.ar    1  <O>11       0.1224
  14 N1       -1.8836    -7.6953    -0.6099  N.4     1  <O>11       0.0060
  15 O3       -1.7408    -9.0205    -0.0393  O.2     1  <O>11      -0.1300
  16 O4       -3.0649    -7.0576    -0.0620  O.2     1  <O>11      -0.3961
  17 C12      -2.6037    -8.9332    -2.6067  C.ar    1  <O>11      -0.0176
  18 C13      -0.5527   -10.1366    -5.9237  C.ar    1  <O>11      -0.0161
  19 C14       0.7874    -9.7806    -5.7650  C.ar    1  <O>11      -0.0441
  20 C15       1.4916    -9.0103    -6.8087  C.3     1  <O>11      -0.0393
  21 H1        3.2314    -9.2521    -5.2971  H       1  <O>11       0.0278
  22 H2        3.4736   -10.7152    -4.3128  H       1  <O>11       0.0278
  23 H3        2.9942    -9.1880    -3.5342  H       1  <O>11       0.0278
  24 H4        2.5214    -8.8345    -6.4979  H       1  <O>11       0.0278
  25 H5        0.9885    -8.0548    -6.9567  H       1  <O>11       0.0278
  26 H6        1.4848    -9.5729    -7.7423  H       1  <O>11       0.0278
  27 H7        1.3082   -11.1481    -2.7415  H       1  <O>11       0.0621
  28 H8       -1.0275   -11.7615    -3.0324  H       1  <O>11       0.0654
  29 H9       -2.3552    -8.0543    -5.8400  H       1  <O>11       0.0626
  30 H10      -1.3354    -6.0904    -4.8417  H       1  <O>11       0.0618
  31 H11      -1.1141    -5.9260    -2.4255  H       1  <O>11       0.0640
  32 H12      -3.2975    -6.1911    -0.3322  H       1  <O>11       0.3292
  33 H13      -2.9490    -9.6929    -1.9995  H       1  <O>11       0.0648
  34 H14      -1.0552    -9.8628    -6.7825  H       1  <O>11       0.0657
@<TRIPOS>BOND
     1     1     2    1
     2     2     3   ar
     3     3     4   ar
     4     4     5   ar
     5     5     6    1
     6     6     7    1
     7     7     8    2
     8     7     9    1
     9     9    10   ar
    10    10    11   ar
    11    11    12   ar
    12    12    13   ar
    13    13    14    1
    14    14    15    2
    15    14    16    1
    16    13    17   ar
    17     9    17   ar
    18     5    18   ar
    19    18    19   ar
    20     2    19   ar
    21    19    20    1
    22     1    21    1
    23     1    22    1
    24     1    23    1
    25    20    24    1
    26    20    25    1
    27    20    26    1
    28     3    27    1
    29     4    28    1
    30    10    29    1
    31    11    30    1
    32    12    31    1
    33    16    32    1
    34    17    33    1
    35    18    34    1
@<TRIPOS>MOLECULE
mol12_1_27
 34 35 0 0 0
SMALL
USER_CHARGES
****
VDW energy = 150.45
@<TRIPOS>ATOM
   1 C1        2.8832    -9.8059    -4.4252  C.3     1  <O>11      -0.0395
   2 C2        1.4617   -10.1611    -4.6036  C.ar    1  <O>11      -0.0473
   3 C3        0.8050   -10.8783    -3.6012  C.ar    1  <O>11      -0.0551
   4 C4       -0.5391   -11.2290    -3.7692  C.ar    1  <O>11      -0.0190
   5 C5       -1.2224   -10.8607    -4.9311  C.ar    1  <O>11       0.1322
   6 O1       -2.5340   -11.2020    -5.1020  O.3     1  <O>11      -0.4223
   7 C6       -2.6118   -12.4178    -5.6953  C.2     1  <O>11       0.3445
   8 O2       -3.7034   -12.9103    -5.9384  O.2     1  <O>11      -0.2445
   9 C7       -1.3935   -13.1368    -6.0420  C.ar    1  <O>11       0.0616
  10 C8       -0.6997   -13.8692    -5.0628  C.ar    1  <O>11      -0.0476
  11 C9        0.4772   -14.5512    -5.3918  C.ar    1  <O>11      -0.0588
  12 C10       0.9695   -14.5107    -6.6989  C.ar    1  <O>11      -0.0316
  13 C11       0.2762   -13.7872    -7.6747  C.ar    1  <O>11       0.1224
  14 N1        0.7881   -13.7501    -9.0223  N.4     1  <O>11       0.0060
  15 O3        0.4152   -12.4955    -9.6460  O.2     1  <O>11      -0.1300
  16 O4        0.2298   -14.8523    -9.7814  O.2     1  <O>11      -0.3961
  17 C12      -0.8991   -13.1060    -7.3560  C.ar    1  <O>11      -0.0176
  18 C13      -0.5527   -10.1366    -5.9237  C.ar    1  <O>11      -0.0161
  19 C14       0.7874    -9.7806    -5.7650  C.ar    1  <O>11      -0.0441
  20 C15       1.4916    -9.0103    -6.8087  C.3     1  <O>11      -0.0393
  21 H1        3.2314    -9.2521    -5.2971  H       1  <O>11       0.0278
  22 H2        3.4736   -10.7152    -4.3128  H       1  <O>11       0.0278
  23 H3        2.9942    -9.1880    -3.5342  H       1  <O>11       0.0278
  24 H4        2.5214    -8.8345    -6.4979  H       1  <O>11       0.0278
  25 H5        0.9885    -8.0548    -6.9567  H       1  <O>11       0.0278
  26 H6        1.4848    -9.5729    -7.7423  H       1  <O>11       0.0278
  27 H7        1.3082   -11.1481    -2.7415  H       1  <O>11       0.0621
  28 H8       -1.0275   -11.7615    -3.0324  H       1  <O>11       0.0654
  29 H9       -1.0602   -13.9041    -4.0964  H       1  <O>11       0.0626
  30 H10       0.9825   -15.0851    -4.6675  H       1  <O>11       0.0618
  31 H11       1.8386   -15.0111    -6.9426  H       1  <O>11       0.0640
  32 H12       0.3813   -15.7349    -9.5061  H       1  <O>11       0.3292
  33 H13      -1.4048   -12.5797    -8.0856  H       1  <O>11       0.0648
  34 H14      -1.0552    -9.8628    -6.7825  H       1  <O>11       0.0657
@<TRIPOS>BOND
     1     1     2    1
     2     2     3   ar
     3     3     4   ar
     4     4     5   ar
     5     5     6    1
     6     6     7    1
     7     7     8    2
     8     7     9    1
     9     9    10   ar
    10    10    11   ar
    11    11    12   ar
    12    12    13   ar
    13    13    14    1
    14    14    15    2
    15    14    16    1
    16    13    17   ar
    17     9    17   ar
    18     5    18   ar
    19    18    19   ar
    20     2    19   ar
    21    19    20    1
    22     1    21    1
    23     1    22    1
    24     1    23    1
    25    20    24    1
    26    20    25    1
    27    20    26    1
    28     3    27    1
    29     4    28    1
    30    10    29    1
    31    11    30    1
    32    12    31    1
    33    16    32    1
    34    17    33    1
    35    18    34    1
@<TRIPOS>MOLECULE
mol12_1_28
 34 35 0 0 0
SMALL
USER_CHARGES
****
VDW energy = 152.94
@<TRIPOS>ATOM
   1 C1        2.8832    -9.8059    -4.4252  C.3     1  <O>11      -0.0395
   2 C2        1.4617   -10.1611    -4.6036  C.ar    1  <O>11      -0.0473
   3 C3        0.8050   -10.8783    -3.6012  C.ar    1  <O>11      -0.0551
   4 C4       -0.5391   -11.2290    -3.7692  C.ar    1  <O>11      -0.0190
   5 C5       -1.2224   -10.8607    -4.9311  C.ar    1  <O>11       0.1322
   6 O1       -2.5340   -11.2020    -5.1020  O.3     1  <O>11      -0.4223
   7 C6       -3.3255   -10.2222    -4.6023  C.2     1  <O>11       0.3445
   8 O2       -4.5414   -10.3318    -4.6565  O.2     1  <O>11      -0.2445
   9 C7       -2.7258    -9.0385    -4.0018  C.ar    1  <O>11       0.0616
  10 C8       -2.2622    -7.9890    -4.8143  C.ar    1  <O>11      -0.0476
  11 C9       -1.6754    -6.8562    -4.2392  C.ar    1  <O>11      -0.0588
  12 C10      -1.5488    -6.7597    -2.8509  C.ar    1  <O>11      -0.0316
  13 C11      -2.0155    -7.8010    -2.0420  C.ar    1  <O>11       0.1224
  14 N1       -1.8836    -7.6953    -0.6099  N.4     1  <O>11       0.0060
  15 O3       -2.3061    -8.9377     0.0067  O.2     1  <O>11      -0.1300
  16 O4       -2.7140    -6.6091    -0.1274  O.2     1  <O>11      -0.3961
  17 C12      -2.6037    -8.9332    -2.6067  C.ar    1  <O>11      -0.0176
  18 C13      -0.5527   -10.1366    -5.9237  C.ar    1  <O>11      -0.0161
  19 C14       0.7874    -9.7806    -5.7650  C.ar    1  <O>11      -0.0441
  20 C15       1.4916    -9.0103    -6.8087  C.3     1  <O>11      -0.0393
  21 H1        3.2314    -9.2521    -5.2971  H       1  <O>11       0.0278
  22 H2        3.4736   -10.7152    -4.3128  H       1  <O>11       0.0278
  23 H3        2.9942    -9.1880    -3.5342  H       1  <O>11       0.0278
  24 H4        2.5214    -8.8345    -6.4979  H       1  <O>11       0.0278
  25 H5        0.9885    -8.0548    -6.9567  H       1  <O>11       0.0278
  26 H6        1.4848    -9.5729    -7.7423  H       1  <O>11       0.0278
  27 H7        1.3082   -11.1481    -2.7415  H       1  <O>11       0.0621
  28 H8       -1.0275   -11.7615    -3.0324  H       1  <O>11       0.0654
  29 H9       -2.3552    -8.0543    -5.8400  H       1  <O>11       0.0626
  30 H10      -1.3354    -6.0904    -4.8417  H       1  <O>11       0.0618
  31 H11      -1.1141    -5.9260    -2.4255  H       1  <O>11       0.0640
  32 H12      -2.5672    -5.7357    -0.4330  H       1  <O>11       0.3292
  33 H13      -2.9490    -9.6929    -1.9995  H       1  <O>11       0.0648
  34 H14      -1.0552    -9.8628    -6.7825  H       1  <O>11       0.0657
@<TRIPOS>BOND
     1     1     2    1
     2     2     3   ar
     3     3     4   ar
     4     4     5   ar
     5     5     6    1
     6     6     7    1
     7     7     8    2
     8     7     9    1
     9     9    10   ar
    10    10    11   ar
    11    11    12   ar
    12    12    13   ar
    13    13    14    1
    14    14    15    2
    15    14    16    1
    16    13    17   ar
    17     9    17   ar
    18     5    18   ar
    19    18    19   ar
    20     2    19   ar
    21    19    20    1
    22     1    21    1
    23     1    22    1
    24     1    23    1
    25    20    24    1
    26    20    25    1
    27    20    26    1
    28     3    27    1
    29     4    28    1
    30    10    29    1
    31    11    30    1
    32    12    31    1
    33    16    32    1
    34    17    33    1
    35    18    34    1
@<TRIPOS>MOLECULE
mol12_1_29
 34 35 0 0 0
SMALL
USER_CHARGES
****
VDW energy = 153.40
@<TRIPOS>ATOM
   1 C1        2.8832    -9.8059    -4.4252  C.3     1  <O>11      -0.0395
   2 C2        1.4617   -10.1611    -4.6036  C.ar    1  <O>11      -0.0473
   3 C3        0.8050   -10.8783    -3.6012  C.ar    1  <O>11      -0.0551
   4 C4       -0.5391   -11.2290    -3.7692  C.ar    1  <O>11      -0.0190
   5 C5       -1.2224   -10.8607    -4.9311  C.ar    1  <O>11       0.1322
   6 O1       -2.5340   -11.2020    -5.1020  O.3     1  <O>11      -0.4223
   7 C6       -2.6118   -12.4178    -5.6953  C.2     1  <O>11       0.3445
   8 O2       -3.7034   -12.9103    -5.9384  O.2     1  <O>11      -0.2445
   9 C7       -1.3935   -13.1368    -6.0420  C.ar    1  <O>11       0.0616
  10 C8       -0.6997   -13.8692    -5.0628  C.ar    1  <O>11      -0.0476
  11 C9        0.4772   -14.5512    -5.3918  C.ar    1  <O>11      -0.0588
  12 C10       0.9695   -14.5107    -6.6989  C.ar    1  <O>11      -0.0316
  13 C11       0.2762   -13.7872    -7.6747  C.ar    1  <O>11       0.1224
  14 N1        0.7881   -13.7501    -9.0223  N.4     1  <O>11       0.0060
  15 O3       -0.0110   -12.8383    -9.8173  O.2     1  <O>11      -0.1300
  16 O4        0.7241   -15.0786    -9.5998  O.2     1  <O>11      -0.3961
  17 C12      -0.8991   -13.1060    -7.3560  C.ar    1  <O>11      -0.0176
  18 C13      -0.5527   -10.1366    -5.9237  C.ar    1  <O>11      -0.0161
  19 C14       0.7874    -9.7806    -5.7650  C.ar    1  <O>11      -0.0441
  20 C15       1.4916    -9.0103    -6.8087  C.3     1  <O>11      -0.0393
  21 H1        3.2314    -9.2521    -5.2971  H       1  <O>11       0.0278
  22 H2        3.4736   -10.7152    -4.3128  H       1  <O>11       0.0278
  23 H3        2.9942    -9.1880    -3.5342  H       1  <O>11       0.0278
  24 H4        2.5214    -8.8345    -6.4979  H       1  <O>11       0.0278
  25 H5        0.9885    -8.0548    -6.9567  H       1  <O>11       0.0278
  26 H6        1.4848    -9.5729    -7.7423  H       1  <O>11       0.0278
  27 H7        1.3082   -11.1481    -2.7415  H       1  <O>11       0.0621
  28 H8       -1.0275   -11.7615    -3.0324  H       1  <O>11       0.0654
  29 H9       -1.0602   -13.9041    -4.0964  H       1  <O>11       0.0626
  30 H10       0.9825   -15.0851    -4.6675  H       1  <O>11       0.0618
  31 H11       1.8386   -15.0111    -6.9426  H       1  <O>11       0.0640
  32 H12       1.1905   -15.7862    -9.2001  H       1  <O>11       0.3292
  33 H13      -1.4048   -12.5797    -8.0856  H       1  <O>11       0.0648
  34 H14      -1.0552    -9.8628    -6.7825  H       1  <O>11       0.0657
@<TRIPOS>BOND
     1     1     2    1
     2     2     3   ar
     3     3     4   ar
     4     4     5   ar
     5     5     6    1
     6     6     7    1
     7     7     8    2
     8     7     9    1
     9     9    10   ar
    10    10    11   ar
    11    11    12   ar
    12    12    13   ar
    13    13    14    1
    14    14    15    2
    15    14    16    1
    16    13    17   ar
    17     9    17   ar
    18     5    18   ar
    19    18    19   ar
    20     2    19   ar
    21    19    20    1
    22     1    21    1
    23     1    22    1
    24     1    23    1
    25    20    24    1
    26    20    25    1
    27    20    26    1
    28     3    27    1
    29     4    28    1
    30    10    29    1
    31    11    30    1
    32    12    31    1
    33    16    32    1
    34    17    33    1
    35    18    34    1
@<TRIPOS>MOLECULE
mol12_1_30
 34 35 0 0 0
SMALL
USER_CHARGES
****
VDW energy = 163.35
@<TRIPOS>ATOM
   1 C1        2.8832    -9.8059    -4.4252  C.3     1  <O>11      -0.0395
   2 C2        1.4617   -10.1611    -4.6036  C.ar    1  <O>11      -0.0473
   3 C3        0.8050   -10.8783    -3.6012  C.ar    1  <O>11      -0.0551
   4 C4       -0.5391   -11.2290    -3.7692  C.ar    1  <O>11      -0.0190
   5 C5       -1.2224   -10.8607    -4.9311  C.ar    1  <O>11       0.1322
   6 O1       -2.5340   -11.2020    -5.1020  O.3     1  <O>11      -0.4223
   7 C6       -3.2766   -10.6580    -4.1076  C.2     1  <O>11       0.3445
   8 O2       -4.4841   -10.8433    -4.0754  O.2     1  <O>11      -0.2445
   9 C7       -2.6344    -9.8520    -3.0783  C.ar    1  <O>11       0.0616
  10 C8       -2.3222    -8.5038    -3.3258  C.ar    1  <O>11      -0.0476
  11 C9       -1.6949    -7.7314    -2.3418  C.ar    1  <O>11      -0.0588
  12 C10      -1.3768    -8.2957    -1.1038  C.ar    1  <O>11      -0.0316
  13 C11      -1.6928    -9.6353    -0.8550  C.ar    1  <O>11       0.1224
  14 N1       -1.3636   -10.2120     0.4250  N.4     1  <O>11       0.0060
  15 O3       -1.1015   -11.6288     0.2631  O.2     1  <O>11      -0.1300
  16 O4       -2.4747   -10.0270     1.3381  O.2     1  <O>11      -0.3961
  17 C12      -2.3201   -10.4123    -1.8295  C.ar    1  <O>11      -0.0176
  18 C13      -0.5527   -10.1366    -5.9237  C.ar    1  <O>11      -0.0161
  19 C14       0.7874    -9.7806    -5.7650  C.ar    1  <O>11      -0.0441
  20 C15       1.4916    -9.0103    -6.8087  C.3     1  <O>11      -0.0393
  21 H1        3.2314    -9.2521    -5.2971  H       1  <O>11       0.0278
  22 H2        3.4736   -10.7152    -4.3128  H       1  <O>11       0.0278
  23 H3        2.9942    -9.1880    -3.5342  H       1  <O>11       0.0278
  24 H4        2.5214    -8.8345    -6.4979  H       1  <O>11       0.0278
  25 H5        0.9885    -8.0548    -6.9567  H       1  <O>11       0.0278
  26 H6        1.4848    -9.5729    -7.7423  H       1  <O>11       0.0278
  27 H7        1.3082   -11.1481    -2.7415  H       1  <O>11       0.0621
  28 H8       -1.0275   -11.7615    -3.0324  H       1  <O>11       0.0654
  29 H9       -2.5569    -8.0815    -4.2378  H       1  <O>11       0.0626
  30 H10      -1.4667    -6.7429    -2.5310  H       1  <O>11       0.0618
  31 H11      -0.9120    -7.7280    -0.3779  H       1  <O>11       0.0640
  32 H12      -2.7693    -9.1628     1.5485  H       1  <O>11       0.3292
  33 H13      -2.5531   -11.3982    -1.6327  H       1  <O>11       0.0648
  34 H14      -1.0552    -9.8628    -6.7825  H       1  <O>11       0.0657
@<TRIPOS>BOND
     1     1     2    1
     2     2     3   ar
     3     3     4   ar
     4     4     5   ar
     5     5     6    1
     6     6     7    1
     7     7     8    2
     8     7     9    1
     9     9    10   ar
    10    10    11   ar
    11    11    12   ar
    12    12    13   ar
    13    13    14    1
    14    14    15    2
    15    14    16    1
    16    13    17   ar
    17     9    17   ar
    18     5    18   ar
    19    18    19   ar
    20     2    19   ar
    21    19    20    1
    22     1    21    1
    23     1    22    1
    24     1    23    1
    25    20    24    1
    26    20    25    1
    27    20    26    1
    28     3    27    1
    29     4    28    1
    30    10    29    1
    31    11    30    1
    32    12    31    1
    33    16    32    1
    34    17    33    1
    35    18    34    1
