@<TRIPOS>MOLECULE
mol18_1_1
 43 45 0 0 0
SMALL
USER_CHARGES
****
VDW energy = -127.03
@<TRIPOS>ATOM
   1 C1        3.3691    -9.0331    -5.6418  C.3     1  <O>11      -0.0586
   2 C2        2.8832    -9.8059    -4.4252  C.3     1  <O>11      -0.0215
   3 C3        3.0381    -8.9437    -3.1818  C.3     1  <O>11      -0.0586
   4 C4        1.4620   -10.1610    -4.6040  C.ar    1  <O>11      -0.0430
   5 C5        1.0870   -10.9543    -5.6911  C.ar    1  <O>11      -0.0582
   6 C6       -0.2603   -11.2847    -5.8741  C.ar    1  <O>11      -0.0597
   7 C7       -1.2250   -10.8279    -4.9726  C.ar    1  <O>11      -0.0405
   8 C8       -0.8338   -10.0400    -3.8845  C.ar    1  <O>11       0.0337
   9 N1       -1.7937    -9.5914    -2.9927  N.am    1  <O>11      -0.2852
  10 C9       -2.1177   -10.3472    -1.8982  C.2     1  <O>11       0.2231
  11 O1       -1.5584   -11.4170    -1.7067  O.2     1  <O>11      -0.2751
  12 C10      -3.1519    -9.8636    -0.9374  C.3     1  <O>11       0.0688
  13 C11      -3.3154   -10.8580     0.1546  C.ar    1  <O>11       0.0780
  14 N2       -4.2527   -11.8919     0.0231  N.ar    1  <O>11      -0.1748
  15 N3       -4.4881   -12.7406     1.0476  N.ar    1  <O>11      -0.2425
  16 C12      -3.7937   -12.5892     2.2029  C.ar    1  <O>11       0.2725
  17 O2       -4.1554   -13.4420     3.2622  O.2     1  <O>11      -0.2658
  18 C13      -2.7680   -11.6490     2.3779  C.ar    1  <O>11       0.0496
  19 C14      -2.0032   -11.5267     3.5608  C.ar    1  <O>11      -0.0487
  20 C15      -1.0170   -10.5473     3.6813  C.ar    1  <O>11      -0.0610
  21 C16      -0.7818    -9.6685     2.6300  C.ar    1  <O>11      -0.0611
  22 C17      -1.5331    -9.7700     1.4580  C.ar    1  <O>11      -0.0521
  23 C18      -2.5290   -10.7612     1.3143  C.ar    1  <O>11       0.0108
  24 C19       0.5076    -9.7064    -3.6927  C.ar    1  <O>11      -0.0370
  25 H1        2.7787    -8.1237    -5.7542  H       1  <O>11       0.0235
  26 H2        3.2580    -9.6509    -6.5329  H       1  <O>11       0.0235
  27 H3        4.4188    -8.7708    -5.5101  H       1  <O>11       0.0235
  28 H4        3.4736   -10.7152    -4.3128  H       1  <O>11       0.0343
  29 H5        2.6899    -9.4976    -2.3100  H       1  <O>11       0.0235
  30 H6        2.4477    -8.0344    -3.2943  H       1  <O>11       0.0235
  31 H7        4.0878    -8.6814    -3.0501  H       1  <O>11       0.0235
  32 H8       -2.2603    -8.6981    -3.1527  H       1  <O>11       0.1548
  33 H9       -4.1006    -9.7369    -1.4586  H       1  <O>11       0.0423
  34 H10      -2.8384    -8.9085    -0.5158  H       1  <O>11       0.0423
  35 H11      -5.1712   -13.4787     0.9541  H       1  <O>11       0.1921
  36 H12       1.7997   -11.2946    -6.3554  H       1  <O>11       0.0620
  37 H13      -0.5423   -11.8676    -6.6776  H       1  <O>11       0.0618
  38 H14      -2.2191   -11.0699    -5.1082  H       1  <O>11       0.0636
  39 H15      -2.1772   -12.1720     4.3471  H       1  <O>11       0.0625
  40 H16      -0.4633   -10.4753     4.5491  H       1  <O>11       0.0618
  41 H17      -0.0532    -8.9427     2.7159  H       1  <O>11       0.0618
  42 H18      -1.3581    -9.1101     0.6840  H       1  <O>11       0.0624
  43 H19       0.7910    -9.1294    -2.8853  H       1  <O>11       0.0639
@<TRIPOS>BOND
     1     1     2    1
     2     2     3    1
     3     2     4    1
     4     4     5   ar
     5     5     6   ar
     6     6     7   ar
     7     7     8   ar
     8     8     9    1
     9     9    10   am
    10    10    11    2
    11    10    12    1
    12    12    13    1
    13    13    14   ar
    14    14    15   ar
    15    15    16   ar
    16    16    17    2
    17    16    18   ar
    18    18    19   ar
    19    19    20   ar
    20    20    21   ar
    21    21    22   ar
    22    22    23   ar
    23    13    23   ar
    24    18    23   ar
    25     8    24   ar
    26     4    24   ar
    27     1    25    1
    28     1    26    1
    29     1    27    1
    30     2    28    1
    31     3    29    1
    32     3    30    1
    33     3    31    1
    34     9    32    1
    35    12    33    1
    36    12    34    1
    37    15    35    1
    38     5    36    1
    39     6    37    1
    40     7    38    1
    41    19    39    1
    42    20    40    1
    43    21    41    1
    44    22    42    1
    45    24    43    1
@<TRIPOS>MOLECULE
mol18_1_2
 43 45 0 0 0
SMALL
USER_CHARGES
****
VDW energy = -126.39
@<TRIPOS>ATOM
   1 C1        3.3691    -9.0331    -5.6418  C.3     1  <O>11      -0.0586
   2 C2        2.8832    -9.8059    -4.4252  C.3     1  <O>11      -0.0215
   3 C3        3.0381    -8.9437    -3.1818  C.3     1  <O>11      -0.0586
   4 C4        1.4620   -10.1610    -4.6040  C.ar    1  <O>11      -0.0430
   5 C5        0.8050   -10.8780    -3.6010  C.ar    1  <O>11      -0.0582
   6 C6       -0.5390   -11.2290    -3.7690  C.ar    1  <O>11      -0.0597
   7 C7       -1.2220   -10.8610    -4.9310  C.ar    1  <O>11      -0.0405
   8 C8       -0.5530   -10.1370    -5.9240  C.ar    1  <O>11       0.0337
   9 N1       -1.2350    -9.7730    -7.0730  N.am    1  <O>11      -0.2852
  10 C9       -1.9022    -8.5787    -7.1237  C.2     1  <O>11       0.2231
  11 O1       -2.5060    -8.2582    -8.1370  O.2     1  <O>11      -0.2751
  12 C10      -1.8944    -7.6691    -5.9408  C.3     1  <O>11       0.0688
  13 C11      -2.6861    -6.4501    -6.2496  C.ar    1  <O>11       0.0780
  14 N2       -2.0575    -5.3352    -6.8209  N.ar    1  <O>11      -0.1748
  15 N3       -2.7388    -4.1841    -7.0106  N.ar    1  <O>11      -0.2425
  16 C12      -4.0463    -4.1247    -6.6545  C.ar    1  <O>11       0.2725
  17 O2       -4.6705    -2.8705    -6.7868  O.2     1  <O>11      -0.2658
  18 C13      -4.7738    -5.2236    -6.1751  C.ar    1  <O>11       0.0496
  19 C14      -6.1508    -5.1801    -5.8574  C.ar    1  <O>11      -0.0487
  20 C15      -6.8083    -6.3028    -5.3537  C.ar    1  <O>11      -0.0610
  21 C16      -6.1042    -7.4843    -5.1502  C.ar    1  <O>11      -0.0611
  22 C17      -4.7424    -7.5424    -5.4510  C.ar    1  <O>11      -0.0521
  23 C18      -4.0623    -6.4188    -5.9706  C.ar    1  <O>11       0.0108
  24 C19       0.7870    -9.7810    -5.7650  C.ar    1  <O>11      -0.0370
  25 H1        2.7787    -8.1237    -5.7542  H       1  <O>11       0.0235
  26 H2        3.2580    -9.6509    -6.5329  H       1  <O>11       0.0235
  27 H3        4.4188    -8.7708    -5.5101  H       1  <O>11       0.0235
  28 H4        3.4736   -10.7152    -4.3128  H       1  <O>11       0.0343
  29 H5        2.6899    -9.4976    -2.3100  H       1  <O>11       0.0235
  30 H6        2.4477    -8.0344    -3.2943  H       1  <O>11       0.0235
  31 H7        4.0878    -8.6814    -3.0501  H       1  <O>11       0.0235
  32 H8       -1.2412   -10.3961    -7.8811  H       1  <O>11       0.1548
  33 H9       -0.8682    -7.3864    -5.7070  H       1  <O>11       0.0423
  34 H10      -2.3343    -8.1815    -5.0852  H       1  <O>11       0.0423
  35 H11      -2.2811    -3.3788    -7.4133  H       1  <O>11       0.1921
  36 H12       1.3081   -11.1472    -2.7411  H       1  <O>11       0.0620
  37 H13      -1.0274   -11.7615    -3.0322  H       1  <O>11       0.0618
  38 H14      -2.2128   -11.1213    -5.0560  H       1  <O>11       0.0636
  39 H15      -6.6777    -4.3044    -6.0003  H       1  <O>11       0.0625
  40 H16      -7.8153    -6.2564    -5.1327  H       1  <O>11       0.0618
  41 H17      -6.5874    -8.3166    -4.7776  H       1  <O>11       0.0618
  42 H18      -4.2242    -8.4204    -5.2912  H       1  <O>11       0.0624
  43 H19       1.2738    -9.2423    -6.4984  H       1  <O>11       0.0639
@<TRIPOS>BOND
     1     1     2    1
     2     2     3    1
     3     2     4    1
     4     4     5   ar
     5     5     6   ar
     6     6     7   ar
     7     7     8   ar
     8     8     9    1
     9     9    10   am
    10    10    11    2
    11    10    12    1
    12    12    13    1
    13    13    14   ar
    14    14    15   ar
    15    15    16   ar
    16    16    17    2
    17    16    18   ar
    18    18    19   ar
    19    19    20   ar
    20    20    21   ar
    21    21    22   ar
    22    22    23   ar
    23    13    23   ar
    24    18    23   ar
    25     8    24   ar
    26     4    24   ar
    27     1    25    1
    28     1    26    1
    29     1    27    1
    30     2    28    1
    31     3    29    1
    32     3    30    1
    33     3    31    1
    34     9    32    1
    35    12    33    1
    36    12    34    1
    37    15    35    1
    38     5    36    1
    39     6    37    1
    40     7    38    1
    41    19    39    1
    42    20    40    1
    43    21    41    1
    44    22    42    1
    45    24    43    1
@<TRIPOS>MOLECULE
mol18_1_3
 43 45 0 0 0
SMALL
USER_CHARGES
****
VDW energy = -125.97
@<TRIPOS>ATOM
   1 C1        3.3691    -9.0331    -5.6418  C.3     1  <O>11      -0.0586
   2 C2        2.8832    -9.8059    -4.4252  C.3     1  <O>11      -0.0215
   3 C3        3.0381    -8.9437    -3.1818  C.3     1  <O>11      -0.0586
   4 C4        1.4620   -10.1610    -4.6040  C.ar    1  <O>11      -0.0430
   5 C5        0.8050   -10.8780    -3.6010  C.ar    1  <O>11      -0.0582
   6 C6       -0.5390   -11.2290    -3.7690  C.ar    1  <O>11      -0.0597
   7 C7       -1.2220   -10.8610    -4.9310  C.ar    1  <O>11      -0.0405
   8 C8       -0.5530   -10.1370    -5.9240  C.ar    1  <O>11       0.0337
   9 N1       -1.2350    -9.7730    -7.0730  N.am    1  <O>11      -0.2852
  10 C9       -1.2421   -10.6075    -8.1582  C.2     1  <O>11       0.2231
  11 O1       -0.6483   -11.6749    -8.1125  O.2     1  <O>11      -0.2751
  12 C10      -1.9770   -10.2151    -9.3961  C.3     1  <O>11       0.0688
  13 C11      -1.8318   -11.2850   -10.4171  C.ar    1  <O>11       0.0780
  14 N2       -2.7675   -12.3270   -10.4747  N.ar    1  <O>11      -0.1748
  15 N3       -2.5925   -13.3615   -11.3259  N.ar    1  <O>11      -0.2425
  16 C12      -1.5056   -13.3723   -12.1371  C.ar    1  <O>11       0.2725
  17 O2       -1.3310   -14.5231   -12.9278  O.2     1  <O>11      -0.2658
  18 C13      -0.5809   -12.3207   -12.2146  C.ar    1  <O>11       0.0496
  19 C14       0.5212   -12.3029   -13.1001  C.ar    1  <O>11      -0.0487
  20 C15       1.4230   -11.2385   -13.1043  C.ar    1  <O>11      -0.0610
  21 C16       1.2474   -10.1787   -12.2217  C.ar    1  <O>11      -0.0611
  22 C17       0.1692   -10.1839   -11.3352  C.ar    1  <O>11      -0.0521
  23 C18      -0.7592   -11.2483   -11.3231  C.ar    1  <O>11       0.0108
  24 C19       0.7870    -9.7810    -5.7650  C.ar    1  <O>11      -0.0370
  25 H1        2.7787    -8.1237    -5.7542  H       1  <O>11       0.0235
  26 H2        3.2580    -9.6509    -6.5329  H       1  <O>11       0.0235
  27 H3        4.4188    -8.7708    -5.5101  H       1  <O>11       0.0235
  28 H4        3.4736   -10.7152    -4.3128  H       1  <O>11       0.0343
  29 H5        2.6899    -9.4976    -2.3100  H       1  <O>11       0.0235
  30 H6        2.4477    -8.0344    -3.2943  H       1  <O>11       0.0235
  31 H7        4.0878    -8.6814    -3.0501  H       1  <O>11       0.0235
  32 H8       -1.7309    -8.8820    -7.1107  H       1  <O>11       0.1548
  33 H9       -1.5637    -9.2843    -9.7840  H       1  <O>11       0.0423
  34 H10      -3.0326   -10.0751    -9.1635  H       1  <O>11       0.0423
  35 H11      -3.2629   -14.1163   -11.3586  H       1  <O>11       0.1921
  36 H12       1.3081   -11.1472    -2.7411  H       1  <O>11       0.0620
  37 H13      -1.0274   -11.7615    -3.0322  H       1  <O>11       0.0618
  38 H14      -2.2128   -11.1213    -5.0560  H       1  <O>11       0.0636
  39 H15       0.6606   -13.0895   -13.7534  H       1  <O>11       0.0625
  40 H16       2.2188   -11.2377   -13.7613  H       1  <O>11       0.0618
  41 H17       1.9127    -9.3898   -12.2220  H       1  <O>11       0.0618
  42 H18       0.0485    -9.3974   -10.6780  H       1  <O>11       0.0624
  43 H19       1.2738    -9.2423    -6.4984  H       1  <O>11       0.0639
@<TRIPOS>BOND
     1     1     2    1
     2     2     3    1
     3     2     4    1
     4     4     5   ar
     5     5     6   ar
     6     6     7   ar
     7     7     8   ar
     8     8     9    1
     9     9    10   am
    10    10    11    2
    11    10    12    1
    12    12    13    1
    13    13    14   ar
    14    14    15   ar
    15    15    16   ar
    16    16    17    2
    17    16    18   ar
    18    18    19   ar
    19    19    20   ar
    20    20    21   ar
    21    21    22   ar
    22    22    23   ar
    23    13    23   ar
    24    18    23   ar
    25     8    24   ar
    26     4    24   ar
    27     1    25    1
    28     1    26    1
    29     1    27    1
    30     2    28    1
    31     3    29    1
    32     3    30    1
    33     3    31    1
    34     9    32    1
    35    12    33    1
    36    12    34    1
    37    15    35    1
    38     5    36    1
    39     6    37    1
    40     7    38    1
    41    19    39    1
    42    20    40    1
    43    21    41    1
    44    22    42    1
    45    24    43    1
@<TRIPOS>MOLECULE
mol18_1_4
 43 45 0 0 0
SMALL
USER_CHARGES
****
VDW energy = -125.35
@<TRIPOS>ATOM
   1 C1        3.3691    -9.0331    -5.6418  C.3     1  <O>11      -0.0586
   2 C2        2.8832    -9.8059    -4.4252  C.3     1  <O>11      -0.0215
   3 C3        3.0381    -8.9437    -3.1818  C.3     1  <O>11      -0.0586
   4 C4        1.4620   -10.1610    -4.6040  C.ar    1  <O>11      -0.0430
   5 C5        0.8050   -10.8780    -3.6010  C.ar    1  <O>11      -0.0582
   6 C6       -0.5390   -11.2290    -3.7690  C.ar    1  <O>11      -0.0597
   7 C7       -1.2220   -10.8610    -4.9310  C.ar    1  <O>11      -0.0405
   8 C8       -0.5530   -10.1370    -5.9240  C.ar    1  <O>11       0.0337
   9 N1       -1.2350    -9.7730    -7.0730  N.am    1  <O>11      -0.2852
  10 C9       -1.2421   -10.6075    -8.1582  C.2     1  <O>11       0.2231
  11 O1       -1.8422   -10.2854    -9.1732  O.2     1  <O>11      -0.2751
  12 C10      -0.5149   -11.9093    -8.1029  C.3     1  <O>11       0.0688
  13 C11      -0.6752   -12.6203    -9.3979  C.ar    1  <O>11       0.0780
  14 N2        0.2534   -12.4142   -10.4274  N.ar    1  <O>11      -0.1748
  15 N3        0.0650   -12.9700   -11.6443  N.ar    1  <O>11      -0.2425
  16 C12      -1.0286   -13.7443   -11.8541  C.ar    1  <O>11       0.2725
  17 O2       -1.2169   -14.2118   -13.1680  O.2     1  <O>11      -0.2658
  18 C13      -1.9472   -14.0835   -10.8502  C.ar    1  <O>11       0.0496
  19 C14      -3.0564   -14.9369   -11.0513  C.ar    1  <O>11      -0.0487
  20 C15      -3.9515   -15.2087   -10.0163  C.ar    1  <O>11      -0.0610
  21 C16      -3.7620   -14.6291    -8.7669  C.ar    1  <O>11      -0.0611
  22 C17      -2.6767   -13.7777    -8.5532  C.ar    1  <O>11      -0.0521
  23 C18      -1.7549   -13.4985    -9.5863  C.ar    1  <O>11       0.0108
  24 C19       0.7870    -9.7810    -5.7650  C.ar    1  <O>11      -0.0370
  25 H1        2.7787    -8.1237    -5.7542  H       1  <O>11       0.0235
  26 H2        3.2580    -9.6509    -6.5329  H       1  <O>11       0.0235
  27 H3        4.4188    -8.7708    -5.5101  H       1  <O>11       0.0235
  28 H4        3.4736   -10.7152    -4.3128  H       1  <O>11       0.0343
  29 H5        2.6899    -9.4976    -2.3100  H       1  <O>11       0.0235
  30 H6        2.4477    -8.0344    -3.2943  H       1  <O>11       0.0235
  31 H7        4.0878    -8.6814    -3.0501  H       1  <O>11       0.0235
  32 H8       -1.7309    -8.8820    -7.1107  H       1  <O>11       0.1548
  33 H9       -0.9255   -12.5206    -7.2995  H       1  <O>11       0.0423
  34 H10       0.5435   -11.7270    -7.9165  H       1  <O>11       0.0423
  35 H11       0.7304   -12.8119   -12.3877  H       1  <O>11       0.1921
  36 H12       1.3081   -11.1472    -2.7411  H       1  <O>11       0.0620
  37 H13      -1.0274   -11.7615    -3.0322  H       1  <O>11       0.0618
  38 H14      -2.2128   -11.1213    -5.0560  H       1  <O>11       0.0636
  39 H15      -3.2061   -15.3654   -11.9782  H       1  <O>11       0.0625
  40 H16      -4.7527   -15.8388   -10.1778  H       1  <O>11       0.0618
  41 H17      -4.4223   -14.8278    -7.9991  H       1  <O>11       0.0618
  42 H18      -2.5456   -13.3453    -7.6252  H       1  <O>11       0.0624
  43 H19       1.2738    -9.2423    -6.4984  H       1  <O>11       0.0639
@<TRIPOS>BOND
     1     1     2    1
     2     2     3    1
     3     2     4    1
     4     4     5   ar
     5     5     6   ar
     6     6     7   ar
     7     7     8   ar
     8     8     9    1
     9     9    10   am
    10    10    11    2
    11    10    12    1
    12    12    13    1
    13    13    14   ar
    14    14    15   ar
    15    15    16   ar
    16    16    17    2
    17    16    18   ar
    18    18    19   ar
    19    19    20   ar
    20    20    21   ar
    21    21    22   ar
    22    22    23   ar
    23    13    23   ar
    24    18    23   ar
    25     8    24   ar
    26     4    24   ar
    27     1    25    1
    28     1    26    1
    29     1    27    1
    30     2    28    1
    31     3    29    1
    32     3    30    1
    33     3    31    1
    34     9    32    1
    35    12    33    1
    36    12    34    1
    37    15    35    1
    38     5    36    1
    39     6    37    1
    40     7    38    1
    41    19    39    1
    42    20    40    1
    43    21    41    1
    44    22    42    1
    45    24    43    1
@<TRIPOS>MOLECULE
mol18_1_5
 43 45 0 0 0
SMALL
USER_CHARGES
****
VDW energy = -123.95
@<TRIPOS>ATOM
   1 C1        3.3691    -9.0331    -5.6418  C.3     1  <O>11      -0.0586
   2 C2        2.8832    -9.8059    -4.4252  C.3     1  <O>11      -0.0215
   3 C3        3.0381    -8.9437    -3.1818  C.3     1  <O>11      -0.0586
   4 C4        1.4620   -10.1610    -4.6040  C.ar    1  <O>11      -0.0430
   5 C5        1.0870   -10.9543    -5.6911  C.ar    1  <O>11      -0.0582
   6 C6       -0.2603   -11.2847    -5.8741  C.ar    1  <O>11      -0.0597
   7 C7       -1.2250   -10.8279    -4.9726  C.ar    1  <O>11      -0.0405
   8 C8       -0.8338   -10.0400    -3.8845  C.ar    1  <O>11       0.0337
   9 N1       -1.7937    -9.5914    -2.9927  N.am    1  <O>11      -0.2852
  10 C9       -2.8191    -8.7981    -3.4325  C.2     1  <O>11       0.2231
  11 O1       -2.8889    -8.4874    -4.6126  O.2     1  <O>11      -0.2751
  12 C10      -3.8533    -8.3149    -2.4714  C.3     1  <O>11       0.0688
  13 C11      -4.8481    -7.4806    -3.1942  C.ar    1  <O>11       0.0780
  14 N2       -5.9858    -8.0781    -3.7538  N.ar    1  <O>11      -0.1748
  15 N3       -6.8451    -7.3529    -4.5029  N.ar    1  <O>11      -0.2425
  16 C12      -6.6010    -6.0326    -4.6949  C.ar    1  <O>11       0.2725
  17 O2       -7.4788    -5.3578    -5.5635  O.2     1  <O>11      -0.2658
  18 C13      -5.5455    -5.3388    -4.0857  C.ar    1  <O>11       0.0496
  19 C14      -5.3217    -3.9510    -4.2376  C.ar    1  <O>11      -0.0487
  20 C15      -4.2325    -3.3274    -3.6286  C.ar    1  <O>11      -0.0610
  21 C16      -3.3436    -4.0762    -2.8655  C.ar    1  <O>11      -0.0611
  22 C17      -3.5450    -5.4488    -2.7116  C.ar    1  <O>11      -0.0521
  23 C18      -4.6474    -6.0956    -3.3128  C.ar    1  <O>11       0.0108
  24 C19       0.5076    -9.7064    -3.6927  C.ar    1  <O>11      -0.0370
  25 H1        2.7787    -8.1237    -5.7542  H       1  <O>11       0.0235
  26 H2        3.2580    -9.6509    -6.5329  H       1  <O>11       0.0235
  27 H3        4.4188    -8.7708    -5.5101  H       1  <O>11       0.0235
  28 H4        3.4736   -10.7152    -4.3128  H       1  <O>11       0.0343
  29 H5        2.6899    -9.4976    -2.3100  H       1  <O>11       0.0235
  30 H6        2.4477    -8.0344    -3.2943  H       1  <O>11       0.0235
  31 H7        4.0878    -8.6814    -3.0501  H       1  <O>11       0.0235
  32 H8       -1.7354    -9.8512    -2.0077  H       1  <O>11       0.1548
  33 H9       -3.3759    -7.7191    -1.6938  H       1  <O>11       0.0423
  34 H10      -4.3558    -9.1692    -2.0179  H       1  <O>11       0.0423
  35 H11      -7.6590    -7.7879    -4.9134  H       1  <O>11       0.1921
  36 H12       1.7997   -11.2946    -6.3554  H       1  <O>11       0.0620
  37 H13      -0.5423   -11.8676    -6.6776  H       1  <O>11       0.0618
  38 H14      -2.2191   -11.0699    -5.1082  H       1  <O>11       0.0636
  39 H15      -5.9743    -3.3908    -4.8079  H       1  <O>11       0.0625
  40 H16      -4.0868    -2.3123    -3.7443  H       1  <O>11       0.0618
  41 H17      -2.5367    -3.6181    -2.4138  H       1  <O>11       0.0618
  42 H18      -2.8776    -6.0000    -2.1495  H       1  <O>11       0.0624
  43 H19       0.7910    -9.1294    -2.8853  H       1  <O>11       0.0639
@<TRIPOS>BOND
     1     1     2    1
     2     2     3    1
     3     2     4    1
     4     4     5   ar
     5     5     6   ar
     6     6     7   ar
     7     7     8   ar
     8     8     9    1
     9     9    10   am
    10    10    11    2
    11    10    12    1
    12    12    13    1
    13    13    14   ar
    14    14    15   ar
    15    15    16   ar
    16    16    17    2
    17    16    18   ar
    18    18    19   ar
    19    19    20   ar
    20    20    21   ar
    21    21    22   ar
    22    22    23   ar
    23    13    23   ar
    24    18    23   ar
    25     8    24   ar
    26     4    24   ar
    27     1    25    1
    28     1    26    1
    29     1    27    1
    30     2    28    1
    31     3    29    1
    32     3    30    1
    33     3    31    1
    34     9    32    1
    35    12    33    1
    36    12    34    1
    37    15    35    1
    38     5    36    1
    39     6    37    1
    40     7    38    1
    41    19    39    1
    42    20    40    1
    43    21    41    1
    44    22    42    1
    45    24    43    1
@<TRIPOS>MOLECULE
mol18_1_6
 43 45 0 0 0
SMALL
USER_CHARGES
****
VDW energy = -123.87
@<TRIPOS>ATOM
   1 C1        3.3691    -9.0331    -5.6418  C.3     1  <O>11      -0.0586
   2 C2        2.8832    -9.8059    -4.4252  C.3     1  <O>11      -0.0215
   3 C3        3.0381    -8.9437    -3.1818  C.3     1  <O>11      -0.0586
   4 C4        1.4620   -10.1610    -4.6040  C.ar    1  <O>11      -0.0430
   5 C5        0.8050   -10.8780    -3.6010  C.ar    1  <O>11      -0.0582
   6 C6       -0.5390   -11.2290    -3.7690  C.ar    1  <O>11      -0.0597
   7 C7       -1.2220   -10.8610    -4.9310  C.ar    1  <O>11      -0.0405
   8 C8       -0.5530   -10.1370    -5.9240  C.ar    1  <O>11       0.0337
   9 N1       -1.2350    -9.7730    -7.0730  N.am    1  <O>11      -0.2852
  10 C9       -1.7751   -10.7359    -7.8825  C.2     1  <O>11       0.2231
  11 O1       -1.6574   -11.9169    -7.5902  O.2     1  <O>11      -0.2751
  12 C10      -2.5099   -10.3434    -9.1205  C.3     1  <O>11       0.0688
  13 C11      -2.9948   -11.5642    -9.8153  C.ar    1  <O>11       0.0780
  14 N2       -4.2604   -12.0844    -9.5117  N.ar    1  <O>11      -0.1748
  15 N3       -4.6729   -13.2502   -10.0558  N.ar    1  <O>11      -0.2425
  16 C12      -3.8516   -13.9054   -10.9135  C.ar    1  <O>11       0.2725
  17 O2       -4.2994   -15.1598   -11.3676  O.2     1  <O>11      -0.2658
  18 C13      -2.6172   -13.4014   -11.3484  C.ar    1  <O>11       0.0496
  19 C14      -1.7847   -14.0544   -12.2863  C.ar    1  <O>11      -0.0487
  20 C15      -0.5521   -13.5134   -12.6527  C.ar    1  <O>11      -0.0610
  21 C16      -0.1243   -12.3183   -12.0854  C.ar    1  <O>11      -0.0611
  22 C17      -0.9301   -11.6646   -11.1518  C.ar    1  <O>11      -0.0521
  23 C18      -2.1851   -12.1923   -10.7758  C.ar    1  <O>11       0.0108
  24 C19       0.7870    -9.7810    -5.7650  C.ar    1  <O>11      -0.0370
  25 H1        2.7787    -8.1237    -5.7542  H       1  <O>11       0.0235
  26 H2        3.2580    -9.6509    -6.5329  H       1  <O>11       0.0235
  27 H3        4.4188    -8.7708    -5.5101  H       1  <O>11       0.0235
  28 H4        3.4736   -10.7152    -4.3128  H       1  <O>11       0.0343
  29 H5        2.6899    -9.4976    -2.3100  H       1  <O>11       0.0235
  30 H6        2.4477    -8.0344    -3.2943  H       1  <O>11       0.0235
  31 H7        4.0878    -8.6814    -3.0501  H       1  <O>11       0.0235
  32 H8       -1.3334    -8.7870    -7.3166  H       1  <O>11       0.1548
  33 H9       -1.8407    -9.7915    -9.7802  H       1  <O>11       0.0423
  34 H10      -3.3595    -9.7142    -8.8551  H       1  <O>11       0.0423
  35 H11      -5.5815   -13.6282    -9.8278  H       1  <O>11       0.1921
  36 H12       1.3081   -11.1472    -2.7411  H       1  <O>11       0.0620
  37 H13      -1.0274   -11.7615    -3.0322  H       1  <O>11       0.0618
  38 H14      -2.2128   -11.1213    -5.0560  H       1  <O>11       0.0636
  39 H15      -2.0937   -14.9449   -12.7063  H       1  <O>11       0.0625
  40 H16       0.0410   -13.9992   -13.3435  H       1  <O>11       0.0618
  41 H17       0.7870   -11.9154   -12.3540  H       1  <O>11       0.0618
  42 H18      -0.6035   -10.7813   -10.7293  H       1  <O>11       0.0624
  43 H19       1.2738    -9.2423    -6.4984  H       1  <O>11       0.0639
@<TRIPOS>BOND
     1     1     2    1
     2     2     3    1
     3     2     4    1
     4     4     5   ar
     5     5     6   ar
     6     6     7   ar
     7     7     8   ar
     8     8     9    1
     9     9    10   am
    10    10    11    2
    11    10    12    1
    12    12    13    1
    13    13    14   ar
    14    14    15   ar
    15    15    16   ar
    16    16    17    2
    17    16    18   ar
    18    18    19   ar
    19    19    20   ar
    20    20    21   ar
    21    21    22   ar
    22    22    23   ar
    23    13    23   ar
    24    18    23   ar
    25     8    24   ar
    26     4    24   ar
    27     1    25    1
    28     1    26    1
    29     1    27    1
    30     2    28    1
    31     3    29    1
    32     3    30    1
    33     3    31    1
    34     9    32    1
    35    12    33    1
    36    12    34    1
    37    15    35    1
    38     5    36    1
    39     6    37    1
    40     7    38    1
    41    19    39    1
    42    20    40    1
    43    21    41    1
    44    22    42    1
    45    24    43    1
@<TRIPOS>MOLECULE
mol18_1_7
 43 45 0 0 0
SMALL
USER_CHARGES
****
VDW energy = -123.64
@<TRIPOS>ATOM
   1 C1        3.3691    -9.0331    -5.6418  C.3     1  <O>11      -0.0586
   2 C2        2.8832    -9.8059    -4.4252  C.3     1  <O>11      -0.0215
   3 C3        3.0381    -8.9437    -3.1818  C.3     1  <O>11      -0.0586
   4 C4        1.4620   -10.1610    -4.6040  C.ar    1  <O>11      -0.0430
   5 C5        1.0870   -10.9543    -5.6911  C.ar    1  <O>11      -0.0582
   6 C6       -0.2603   -11.2847    -5.8741  C.ar    1  <O>11      -0.0597
   7 C7       -1.2250   -10.8279    -4.9726  C.ar    1  <O>11      -0.0405
   8 C8       -0.8338   -10.0400    -3.8845  C.ar    1  <O>11       0.0337
   9 N1       -1.7937    -9.5914    -2.9927  N.am    1  <O>11      -0.2852
  10 C9       -2.1177   -10.3472    -1.8982  C.2     1  <O>11       0.2231
  11 O1       -1.5584   -11.4170    -1.7067  O.2     1  <O>11      -0.2751
  12 C10      -3.1519    -9.8636    -0.9374  C.3     1  <O>11       0.0688
  13 C11      -2.9959    -8.3992    -0.7391  C.ar    1  <O>11       0.0780
  14 N2       -3.6864    -7.5046    -1.5683  N.ar    1  <O>11      -0.1748
  15 N3       -3.4751    -6.1738    -1.4703  N.ar    1  <O>11      -0.2425
  16 C12      -2.5956    -5.7113    -0.5471  C.ar    1  <O>11       0.2725
  17 O2       -2.3483    -4.3261    -0.5628  O.2     1  <O>11      -0.2658
  18 C13      -1.9449    -6.5298     0.3875  C.ar    1  <O>11       0.0496
  19 C14      -1.0719    -6.0447     1.3883  C.ar    1  <O>11      -0.0487
  20 C15      -0.4308    -6.9174     2.2679  C.ar    1  <O>11      -0.0610
  21 C16      -0.6417    -8.2875     2.1605  C.ar    1  <O>11      -0.0611
  22 C17      -1.4942    -8.7840     1.1730  C.ar    1  <O>11      -0.0521
  23 C18      -2.1592    -7.9151     0.2799  C.ar    1  <O>11       0.0108
  24 C19       0.5076    -9.7064    -3.6927  C.ar    1  <O>11      -0.0370
  25 H1        2.7787    -8.1237    -5.7542  H       1  <O>11       0.0235
  26 H2        3.2580    -9.6509    -6.5329  H       1  <O>11       0.0235
  27 H3        4.4188    -8.7708    -5.5101  H       1  <O>11       0.0235
  28 H4        3.4736   -10.7152    -4.3128  H       1  <O>11       0.0343
  29 H5        2.6899    -9.4976    -2.3100  H       1  <O>11       0.0235
  30 H6        2.4477    -8.0344    -3.2943  H       1  <O>11       0.0235
  31 H7        4.0878    -8.6814    -3.0501  H       1  <O>11       0.0235
  32 H8       -2.2603    -8.6981    -3.1527  H       1  <O>11       0.1548
  33 H9       -3.0279   -10.3747     0.0170  H       1  <O>11       0.0423
  34 H10      -4.1447   -10.0730    -1.3358  H       1  <O>11       0.0423
  35 H11      -3.9664    -5.5316    -2.0757  H       1  <O>11       0.1921
  36 H12       1.7997   -11.2946    -6.3554  H       1  <O>11       0.0620
  37 H13      -0.5423   -11.8676    -6.6776  H       1  <O>11       0.0618
  38 H14      -2.2191   -11.0699    -5.1082  H       1  <O>11       0.0636
  39 H15      -0.9063    -5.0293     1.4693  H       1  <O>11       0.0625
  40 H16       0.1985    -6.5468     2.9969  H       1  <O>11       0.0618
  41 H17      -0.1690    -8.9359     2.8093  H       1  <O>11       0.0618
  42 H18      -1.6411    -9.8026     1.0944  H       1  <O>11       0.0624
  43 H19       0.7910    -9.1294    -2.8853  H       1  <O>11       0.0639
@<TRIPOS>BOND
     1     1     2    1
     2     2     3    1
     3     2     4    1
     4     4     5   ar
     5     5     6   ar
     6     6     7   ar
     7     7     8   ar
     8     8     9    1
     9     9    10   am
    10    10    11    2
    11    10    12    1
    12    12    13    1
    13    13    14   ar
    14    14    15   ar
    15    15    16   ar
    16    16    17    2
    17    16    18   ar
    18    18    19   ar
    19    19    20   ar
    20    20    21   ar
    21    21    22   ar
    22    22    23   ar
    23    13    23   ar
    24    18    23   ar
    25     8    24   ar
    26     4    24   ar
    27     1    25    1
    28     1    26    1
    29     1    27    1
    30     2    28    1
    31     3    29    1
    32     3    30    1
    33     3    31    1
    34     9    32    1
    35    12    33    1
    36    12    34    1
    37    15    35    1
    38     5    36    1
    39     6    37    1
    40     7    38    1
    41    19    39    1
    42    20    40    1
    43    21    41    1
    44    22    42    1
    45    24    43    1
@<TRIPOS>MOLECULE
mol18_1_8
 43 45 0 0 0
SMALL
USER_CHARGES
****
VDW energy = -122.96
@<TRIPOS>ATOM
   1 C1        3.3691    -9.0331    -5.6418  C.3     1  <O>11      -0.0586
   2 C2        2.8832    -9.8059    -4.4252  C.3     1  <O>11      -0.0215
   3 C3        3.0381    -8.9437    -3.1818  C.3     1  <O>11      -0.0586
   4 C4        1.4620   -10.1610    -4.6040  C.ar    1  <O>11      -0.0430
   5 C5        1.1318   -11.3708    -5.2197  C.ar    1  <O>11      -0.0582
   6 C6       -0.2135   -11.7085    -5.4039  C.ar    1  <O>11      -0.0597
   7 C7       -1.2214   -10.8433    -4.9707  C.ar    1  <O>11      -0.0405
   8 C8       -0.8757    -9.6382    -4.3493  C.ar    1  <O>11       0.0337
   9 N1       -1.8785    -8.7850    -3.9201  N.am    1  <O>11      -0.2852
  10 C9       -2.7752    -8.2750    -4.8200  C.2     1  <O>11       0.2231
  11 O1       -3.6591    -7.5203    -4.4416  O.2     1  <O>11      -0.2751
  12 C10      -2.6720    -8.6386    -6.2635  C.3     1  <O>11       0.0688
  13 C11      -3.7526    -7.9577    -7.0231  C.ar    1  <O>11       0.0780
  14 N2       -3.5281    -6.6867    -7.5696  N.ar    1  <O>11      -0.1748
  15 N3       -4.5310    -6.0104    -8.1713  N.ar    1  <O>11      -0.2425
  16 C12      -5.7573    -6.5838    -8.2539  C.ar    1  <O>11       0.2725
  17 O2       -6.7800    -5.7887    -8.8037  O.2     1  <O>11      -0.2658
  18 C13      -6.0370    -7.8899    -7.8266  C.ar    1  <O>11       0.0496
  19 C14      -7.2995    -8.5115    -7.9635  C.ar    1  <O>11      -0.0487
  20 C15      -7.5198    -9.8043    -7.4875  C.ar    1  <O>11      -0.0610
  21 C16      -6.4898   -10.4961    -6.8602  C.ar    1  <O>11      -0.0611
  22 C17      -5.2394    -9.8944    -6.7095  C.ar    1  <O>11      -0.0521
  23 C18      -4.9951    -8.5902    -7.1935  C.ar    1  <O>11       0.0108
  24 C19       0.4632    -9.2932    -4.1599  C.ar    1  <O>11      -0.0370
  25 H1        2.7787    -8.1237    -5.7542  H       1  <O>11       0.0235
  26 H2        3.2580    -9.6509    -6.5329  H       1  <O>11       0.0235
  27 H3        4.4188    -8.7708    -5.5101  H       1  <O>11       0.0235
  28 H4        3.4736   -10.7152    -4.3128  H       1  <O>11       0.0343
  29 H5        2.6899    -9.4976    -2.3100  H       1  <O>11       0.0235
  30 H6        2.4477    -8.0344    -3.2943  H       1  <O>11       0.0235
  31 H7        4.0878    -8.6814    -3.0501  H       1  <O>11       0.0235
  32 H8       -1.9477    -8.5356    -2.9330  H       1  <O>11       0.1548
  33 H9       -2.7746    -9.7179    -6.3743  H       1  <O>11       0.0423
  34 H10      -1.7023    -8.3240    -6.6494  H       1  <O>11       0.0423
  35 H11      -4.3694    -5.0903    -8.5557  H       1  <O>11       0.1921
  36 H12       1.8758   -12.0117    -5.5369  H       1  <O>11       0.0620
  37 H13      -0.4621   -12.5996    -5.8612  H       1  <O>11       0.0618
  38 H14      -2.2138   -11.0912    -5.1080  H       1  <O>11       0.0636
  39 H15      -8.0699    -8.0010    -8.4226  H       1  <O>11       0.0625
  40 H16      -8.4455   -10.2462    -7.6008  H       1  <O>11       0.0618
  41 H17      -6.6494   -11.4524    -6.5068  H       1  <O>11       0.0618
  42 H18      -4.4811   -10.4109    -6.2369  H       1  <O>11       0.0624
  43 H19       0.7122    -8.4055    -3.6961  H       1  <O>11       0.0639
@<TRIPOS>BOND
     1     1     2    1
     2     2     3    1
     3     2     4    1
     4     4     5   ar
     5     5     6   ar
     6     6     7   ar
     7     7     8   ar
     8     8     9    1
     9     9    10   am
    10    10    11    2
    11    10    12    1
    12    12    13    1
    13    13    14   ar
    14    14    15   ar
    15    15    16   ar
    16    16    17    2
    17    16    18   ar
    18    18    19   ar
    19    19    20   ar
    20    20    21   ar
    21    21    22   ar
    22    22    23   ar
    23    13    23   ar
    24    18    23   ar
    25     8    24   ar
    26     4    24   ar
    27     1    25    1
    28     1    26    1
    29     1    27    1
    30     2    28    1
    31     3    29    1
    32     3    30    1
    33     3    31    1
    34     9    32    1
    35    12    33    1
    36    12    34    1
    37    15    35    1
    38     5    36    1
    39     6    37    1
    40     7    38    1
    41    19    39    1
    42    20    40    1
    43    21    41    1
    44    22    42    1
    45    24    43    1
@<TRIPOS>MOLECULE
mol18_1_9
 43 45 0 0 0
SMALL
USER_CHARGES
****
VDW energy = -122.91
@<TRIPOS>ATOM
   1 C1        3.3691    -9.0331    -5.6418  C.3     1  <O>11      -0.0586
   2 C2        2.8832    -9.8059    -4.4252  C.3     1  <O>11      -0.0215
   3 C3        3.0381    -8.9437    -3.1818  C.3     1  <O>11      -0.0586
   4 C4        1.4620   -10.1610    -4.6040  C.ar    1  <O>11      -0.0430
   5 C5        1.0870   -10.9543    -5.6911  C.ar    1  <O>11      -0.0582
   6 C6       -0.2603   -11.2847    -5.8741  C.ar    1  <O>11      -0.0597
   7 C7       -1.2250   -10.8279    -4.9726  C.ar    1  <O>11      -0.0405
   8 C8       -0.8338   -10.0400    -3.8845  C.ar    1  <O>11       0.0337
   9 N1       -1.7937    -9.5914    -2.9927  N.am    1  <O>11      -0.2852
  10 C9       -2.1177   -10.3472    -1.8982  C.2     1  <O>11       0.2231
  11 O1       -1.5584   -11.4170    -1.7067  O.2     1  <O>11      -0.2751
  12 C10      -3.1519    -9.8636    -0.9374  C.3     1  <O>11       0.0688
  13 C11      -4.2663    -9.2297    -1.6886  C.ar    1  <O>11       0.0780
  14 N2       -5.3564   -10.0049    -2.1074  N.ar    1  <O>11      -0.1748
  15 N3       -6.3253    -9.4676    -2.8805  N.ar    1  <O>11      -0.2425
  16 C12      -6.2384    -8.1614    -3.2350  C.ar    1  <O>11       0.2725
  17 O2       -7.2259    -7.6900    -4.1199  O.2     1  <O>11      -0.2658
  18 C13      -5.2382    -7.2937    -2.7730  C.ar    1  <O>11       0.0496
  19 C14      -5.1769    -5.9181    -3.0942  C.ar    1  <O>11      -0.0487
  20 C15      -4.1355    -5.1162    -2.6265  C.ar    1  <O>11      -0.0610
  21 C16      -3.1339    -5.6720    -1.8386  C.ar    1  <O>11      -0.0611
  22 C17      -3.1745    -7.0300    -1.5185  C.ar    1  <O>11      -0.0521
  23 C18      -4.2260    -7.8552    -1.9751  C.ar    1  <O>11       0.0108
  24 C19       0.5076    -9.7064    -3.6927  C.ar    1  <O>11      -0.0370
  25 H1        2.7787    -8.1237    -5.7542  H       1  <O>11       0.0235
  26 H2        3.2580    -9.6509    -6.5329  H       1  <O>11       0.0235
  27 H3        4.4188    -8.7708    -5.5101  H       1  <O>11       0.0235
  28 H4        3.4736   -10.7152    -4.3128  H       1  <O>11       0.0343
  29 H5        2.6899    -9.4976    -2.3100  H       1  <O>11       0.0235
  30 H6        2.4477    -8.0344    -3.2943  H       1  <O>11       0.0235
  31 H7        4.0878    -8.6814    -3.0501  H       1  <O>11       0.0235
  32 H8       -2.2603    -8.6981    -3.1527  H       1  <O>11       0.1548
  33 H9       -2.7068    -9.1329    -0.2624  H       1  <O>11       0.0423
  34 H10      -3.5346   -10.7056    -0.3606  H       1  <O>11       0.0423
  35 H11      -7.1048   -10.0309    -3.1893  H       1  <O>11       0.1921
  36 H12       1.7997   -11.2946    -6.3554  H       1  <O>11       0.0620
  37 H13      -0.5423   -11.8676    -6.6776  H       1  <O>11       0.0618
  38 H14      -2.2191   -11.0699    -5.1082  H       1  <O>11       0.0636
  39 H15      -5.9140    -5.5009    -3.6838  H       1  <O>11       0.0625
  40 H16      -4.1088    -4.1125    -2.8649  H       1  <O>11       0.0618
  41 H17      -2.3620    -5.0817    -1.4911  H       1  <O>11       0.0618
  42 H18      -2.4242    -7.4377    -0.9389  H       1  <O>11       0.0624
  43 H19       0.7910    -9.1294    -2.8853  H       1  <O>11       0.0639
@<TRIPOS>BOND
     1     1     2    1
     2     2     3    1
     3     2     4    1
     4     4     5   ar
     5     5     6   ar
     6     6     7   ar
     7     7     8   ar
     8     8     9    1
     9     9    10   am
    10    10    11    2
    11    10    12    1
    12    12    13    1
    13    13    14   ar
    14    14    15   ar
    15    15    16   ar
    16    16    17    2
    17    16    18   ar
    18    18    19   ar
    19    19    20   ar
    20    20    21   ar
    21    21    22   ar
    22    22    23   ar
    23    13    23   ar
    24    18    23   ar
    25     8    24   ar
    26     4    24   ar
    27     1    25    1
    28     1    26    1
    29     1    27    1
    30     2    28    1
    31     3    29    1
    32     3    30    1
    33     3    31    1
    34     9    32    1
    35    12    33    1
    36    12    34    1
    37    15    35    1
    38     5    36    1
    39     6    37    1
    40     7    38    1
    41    19    39    1
    42    20    40    1
    43    21    41    1
    44    22    42    1
    45    24    43    1
@<TRIPOS>MOLECULE
mol18_1_10
 43 45 0 0 0
SMALL
USER_CHARGES
****
VDW energy = -122.30
@<TRIPOS>ATOM
   1 C1        3.3691    -9.0331    -5.6418  C.3     1  <O>11      -0.0586
   2 C2        2.8832    -9.8059    -4.4252  C.3     1  <O>11      -0.0215
   3 C3        3.0381    -8.9437    -3.1818  C.3     1  <O>11      -0.0586
   4 C4        1.4620   -10.1610    -4.6040  C.ar    1  <O>11      -0.0430
   5 C5        1.1318   -11.3708    -5.2197  C.ar    1  <O>11      -0.0582
   6 C6       -0.2135   -11.7085    -5.4039  C.ar    1  <O>11      -0.0597
   7 C7       -1.2214   -10.8433    -4.9707  C.ar    1  <O>11      -0.0405
   8 C8       -0.8757    -9.6382    -4.3493  C.ar    1  <O>11       0.0337
   9 N1       -1.8785    -8.7850    -3.9201  N.am    1  <O>11      -0.2852
  10 C9       -2.3832    -8.9045    -2.6531  C.2     1  <O>11       0.2231
  11 O1       -1.9474    -9.7629    -1.8999  O.2     1  <O>11      -0.2751
  12 C10      -3.4636    -7.9850    -2.1907  C.3     1  <O>11       0.0688
  13 C11      -3.8310    -8.3191    -0.7901  C.ar    1  <O>11       0.0780
  14 N2       -3.1749    -9.3649    -0.1265  N.ar    1  <O>11      -0.1748
  15 N3       -3.5680    -9.7495     1.1075  N.ar    1  <O>11      -0.2425
  16 C12      -4.5982    -9.0998     1.7045  C.ar    1  <O>11       0.2725
  17 O2       -5.0212    -9.6120     2.9451  O.2     1  <O>11      -0.2658
  18 C13      -5.2368    -7.9796     1.1532  C.ar    1  <O>11       0.0496
  19 C14      -6.2723    -7.2649     1.7982  C.ar    1  <O>11      -0.0487
  20 C15      -6.8881    -6.1765     1.1797  C.ar    1  <O>11      -0.0610
  21 C16      -6.4892    -5.7870    -0.0939  C.ar    1  <O>11      -0.0611
  22 C17      -5.4739    -6.4865    -0.7484  C.ar    1  <O>11      -0.0521
  23 C18      -4.8325    -7.5848    -0.1341  C.ar    1  <O>11       0.0108
  24 C19       0.4632    -9.2932    -4.1599  C.ar    1  <O>11      -0.0370
  25 H1        2.7787    -8.1237    -5.7542  H       1  <O>11       0.0235
  26 H2        3.2580    -9.6509    -6.5329  H       1  <O>11       0.0235
  27 H3        4.4188    -8.7708    -5.5101  H       1  <O>11       0.0235
  28 H4        3.4736   -10.7152    -4.3128  H       1  <O>11       0.0343
  29 H5        2.6899    -9.4976    -2.3100  H       1  <O>11       0.0235
  30 H6        2.4477    -8.0344    -3.2943  H       1  <O>11       0.0235
  31 H7        4.0878    -8.6814    -3.0501  H       1  <O>11       0.0235
  32 H8       -2.2420    -8.0684    -4.5490  H       1  <O>11       0.1548
  33 H9       -4.3369    -8.0993    -2.8326  H       1  <O>11       0.0423
  34 H10      -3.1097    -6.9551    -2.2383  H       1  <O>11       0.0423
  35 H11      -3.1002   -10.5101     1.5798  H       1  <O>11       0.1921
  36 H12       1.8758   -12.0117    -5.5369  H       1  <O>11       0.0620
  37 H13      -0.4621   -12.5996    -5.8612  H       1  <O>11       0.0618
  38 H14      -2.2138   -11.0912    -5.1080  H       1  <O>11       0.0636
  39 H15      -6.5773    -7.5528     2.7412  H       1  <O>11       0.0625
  40 H16      -7.6382    -5.6615     1.6667  H       1  <O>11       0.0618
  41 H17      -6.9427    -4.9825    -0.5545  H       1  <O>11       0.0618
  42 H18      -5.1873    -6.1964    -1.6965  H       1  <O>11       0.0624
  43 H19       0.7122    -8.4055    -3.6961  H       1  <O>11       0.0639
@<TRIPOS>BOND
     1     1     2    1
     2     2     3    1
     3     2     4    1
     4     4     5   ar
     5     5     6   ar
     6     6     7   ar
     7     7     8   ar
     8     8     9    1
     9     9    10   am
    10    10    11    2
    11    10    12    1
    12    12    13    1
    13    13    14   ar
    14    14    15   ar
    15    15    16   ar
    16    16    17    2
    17    16    18   ar
    18    18    19   ar
    19    19    20   ar
    20    20    21   ar
    21    21    22   ar
    22    22    23   ar
    23    13    23   ar
    24    18    23   ar
    25     8    24   ar
    26     4    24   ar
    27     1    25    1
    28     1    26    1
    29     1    27    1
    30     2    28    1
    31     3    29    1
    32     3    30    1
    33     3    31    1
    34     9    32    1
    35    12    33    1
    36    12    34    1
    37    15    35    1
    38     5    36    1
    39     6    37    1
    40     7    38    1
    41    19    39    1
    42    20    40    1
    43    21    41    1
    44    22    42    1
    45    24    43    1
@<TRIPOS>MOLECULE
mol18_1_11
 43 45 0 0 0
SMALL
USER_CHARGES
****
VDW energy = -122.19
@<TRIPOS>ATOM
   1 C1        3.3691    -9.0331    -5.6418  C.3     1  <O>11      -0.0586
   2 C2        2.8832    -9.8059    -4.4252  C.3     1  <O>11      -0.0215
   3 C3        3.0381    -8.9437    -3.1818  C.3     1  <O>11      -0.0586
   4 C4        1.4620   -10.1610    -4.6040  C.ar    1  <O>11      -0.0430
   5 C5        0.4754    -9.2802    -4.1540  C.ar    1  <O>11      -0.0582
   6 C6       -0.8741    -9.6159    -4.3088  C.ar    1  <O>11      -0.0597
   7 C7       -1.2337   -10.8227    -4.9141  C.ar    1  <O>11      -0.0405
   8 C8       -0.2347   -11.6918    -5.3662  C.ar    1  <O>11       0.0337
   9 N1       -0.5963   -12.8860    -5.9672  N.am    1  <O>11      -0.2852
  10 C9       -1.3365   -13.8049    -5.2731  C.2     1  <O>11       0.2231
  11 O1       -1.6540   -14.8599    -5.8027  O.2     1  <O>11      -0.2751
  12 C10      -1.7536   -13.5198    -3.8691  C.3     1  <O>11       0.0688
  13 C11      -2.5391   -14.6669    -3.3444  C.ar    1  <O>11       0.0780
  14 N2       -1.8857   -15.7185    -2.6873  N.ar    1  <O>11      -0.1748
  15 N3       -2.5699   -16.8165    -2.2979  N.ar    1  <O>11      -0.2425
  16 C12      -3.9033   -16.8826    -2.5373  C.ar    1  <O>11       0.2725
  17 O2       -4.5373   -18.0916    -2.1960  O.2     1  <O>11      -0.2658
  18 C13      -4.6479   -15.8324    -3.0935  C.ar    1  <O>11       0.0496
  19 C14      -6.0472   -15.8759    -3.2915  C.ar    1  <O>11      -0.0487
  20 C15      -6.7236   -14.8072    -3.8803  C.ar    1  <O>11      -0.0610
  21 C16      -6.0174   -13.6815    -4.2892  C.ar    1  <O>11      -0.0611
  22 C17      -4.6344   -13.6252    -4.1085  C.ar    1  <O>11      -0.0521
  23 C18      -3.9341   -14.6935    -3.5057  C.ar    1  <O>11       0.0108
  24 C19       1.1140   -11.3653    -5.2176  C.ar    1  <O>11      -0.0370
  25 H1        2.7787    -8.1237    -5.7542  H       1  <O>11       0.0235
  26 H2        3.2580    -9.6509    -6.5329  H       1  <O>11       0.0235
  27 H3        4.4188    -8.7708    -5.5101  H       1  <O>11       0.0235
  28 H4        3.4736   -10.7152    -4.3128  H       1  <O>11       0.0343
  29 H5        2.6899    -9.4976    -2.3100  H       1  <O>11       0.0235
  30 H6        2.4477    -8.0344    -3.2943  H       1  <O>11       0.0235
  31 H7        4.0878    -8.6814    -3.0501  H       1  <O>11       0.0235
  32 H8       -0.3095   -13.0810    -6.9268  H       1  <O>11       0.1548
  33 H9       -2.3673   -12.6195    -3.8485  H       1  <O>11       0.0423
  34 H10      -0.8689   -13.3711    -3.2500  H       1  <O>11       0.0423
  35 H11      -2.0950   -17.5775    -1.8335  H       1  <O>11       0.1921
  36 H12       0.7404    -8.3872    -3.7098  H       1  <O>11       0.0620
  37 H13      -1.6063    -8.9698    -3.9749  H       1  <O>11       0.0618
  38 H14      -2.2289   -11.0714    -5.0268  H       1  <O>11       0.0636
  39 H15      -6.5763   -16.7111    -2.9959  H       1  <O>11       0.0625
  40 H16      -7.7461   -14.8521    -4.0121  H       1  <O>11       0.0618
  41 H17      -6.5145   -12.8893    -4.7253  H       1  <O>11       0.0618
  42 H18      -4.1152   -12.7896    -4.4205  H       1  <O>11       0.0624
  43 H19       1.8464   -12.0078    -5.5578  H       1  <O>11       0.0639
@<TRIPOS>BOND
     1     1     2    1
     2     2     3    1
     3     2     4    1
     4     4     5   ar
     5     5     6   ar
     6     6     7   ar
     7     7     8   ar
     8     8     9    1
     9     9    10   am
    10    10    11    2
    11    10    12    1
    12    12    13    1
    13    13    14   ar
    14    14    15   ar
    15    15    16   ar
    16    16    17    2
    17    16    18   ar
    18    18    19   ar
    19    19    20   ar
    20    20    21   ar
    21    21    22   ar
    22    22    23   ar
    23    13    23   ar
    24    18    23   ar
    25     8    24   ar
    26     4    24   ar
    27     1    25    1
    28     1    26    1
    29     1    27    1
    30     2    28    1
    31     3    29    1
    32     3    30    1
    33     3    31    1
    34     9    32    1
    35    12    33    1
    36    12    34    1
    37    15    35    1
    38     5    36    1
    39     6    37    1
    40     7    38    1
    41    19    39    1
    42    20    40    1
    43    21    41    1
    44    22    42    1
    45    24    43    1
@<TRIPOS>MOLECULE
mol18_1_12
 43 45 0 0 0
SMALL
USER_CHARGES
****
VDW energy = -121.28
@<TRIPOS>ATOM
   1 C1        3.3691    -9.0331    -5.6418  C.3     1  <O>11      -0.0586
   2 C2        2.8832    -9.8059    -4.4252  C.3     1  <O>11      -0.0215
   3 C3        3.0381    -8.9437    -3.1818  C.3     1  <O>11      -0.0586
   4 C4        1.4620   -10.1610    -4.6040  C.ar    1  <O>11      -0.0430
   5 C5        0.8050   -10.8780    -3.6010  C.ar    1  <O>11      -0.0582
   6 C6       -0.5390   -11.2290    -3.7690  C.ar    1  <O>11      -0.0597
   7 C7       -1.2220   -10.8610    -4.9310  C.ar    1  <O>11      -0.0405
   8 C8       -0.5530   -10.1370    -5.9240  C.ar    1  <O>11       0.0337
   9 N1       -1.2350    -9.7730    -7.0730  N.am    1  <O>11      -0.2852
  10 C9       -1.9022    -8.5787    -7.1237  C.2     1  <O>11       0.2231
  11 O1       -1.8942    -7.8324    -6.1557  O.2     1  <O>11      -0.2751
  12 C10      -2.6369    -8.1867    -8.3618  C.3     1  <O>11       0.0688
  13 C11      -3.2690    -6.8569    -8.1612  C.ar    1  <O>11       0.0780
  14 N2       -2.9259    -5.7869    -8.9990  N.ar    1  <O>11      -0.1748
  15 N3       -3.4109    -4.5478    -8.7651  N.ar    1  <O>11      -0.2425
  16 C12      -4.2483    -4.3540    -7.7159  C.ar    1  <O>11       0.2725
  17 O2       -4.6390    -3.0248    -7.4692  O.2     1  <O>11      -0.2658
  18 C13      -4.7215    -5.3883    -6.8954  C.ar    1  <O>11       0.0496
  19 C14      -5.6392    -5.1984    -5.8368  C.ar    1  <O>11      -0.0487
  20 C15      -6.0457    -6.2669    -5.0372  C.ar    1  <O>11      -0.0610
  21 C16      -5.5390    -7.5400    -5.2729  C.ar    1  <O>11      -0.0611
  22 C17      -4.6259    -7.7438    -6.3088  C.ar    1  <O>11      -0.0521
  23 C18      -4.2103    -6.6760    -7.1345  C.ar    1  <O>11       0.0108
  24 C19       0.7870    -9.7810    -5.7650  C.ar    1  <O>11      -0.0370
  25 H1        2.7787    -8.1237    -5.7542  H       1  <O>11       0.0235
  26 H2        3.2580    -9.6509    -6.5329  H       1  <O>11       0.0235
  27 H3        4.4188    -8.7708    -5.5101  H       1  <O>11       0.0235
  28 H4        3.4736   -10.7152    -4.3128  H       1  <O>11       0.0343
  29 H5        2.6899    -9.4976    -2.3100  H       1  <O>11       0.0235
  30 H6        2.4477    -8.0344    -3.2943  H       1  <O>11       0.0235
  31 H7        4.0878    -8.6814    -3.0501  H       1  <O>11       0.0235
  32 H8       -1.2412   -10.3961    -7.8811  H       1  <O>11       0.1548
  33 H9       -3.4077    -8.9267    -8.5762  H       1  <O>11       0.0423
  34 H10      -1.9394    -8.1355    -9.1979  H       1  <O>11       0.0423
  35 H11      -3.1543    -3.7762    -9.3643  H       1  <O>11       0.1921
  36 H12       1.3081   -11.1472    -2.7411  H       1  <O>11       0.0620
  37 H13      -1.0274   -11.7615    -3.0322  H       1  <O>11       0.0618
  38 H14      -2.2128   -11.1213    -5.0560  H       1  <O>11       0.0636
  39 H15      -6.0143    -4.2547    -5.6528  H       1  <O>11       0.0625
  40 H16      -6.7212    -6.1127    -4.2724  H       1  <O>11       0.0618
  41 H17      -5.8374    -8.3327    -4.6832  H       1  <O>11       0.0618
  42 H18      -4.2484    -8.6901    -6.4740  H       1  <O>11       0.0624
  43 H19       1.2738    -9.2423    -6.4984  H       1  <O>11       0.0639
@<TRIPOS>BOND
     1     1     2    1
     2     2     3    1
     3     2     4    1
     4     4     5   ar
     5     5     6   ar
     6     6     7   ar
     7     7     8   ar
     8     8     9    1
     9     9    10   am
    10    10    11    2
    11    10    12    1
    12    12    13    1
    13    13    14   ar
    14    14    15   ar
    15    15    16   ar
    16    16    17    2
    17    16    18   ar
    18    18    19   ar
    19    19    20   ar
    20    20    21   ar
    21    21    22   ar
    22    22    23   ar
    23    13    23   ar
    24    18    23   ar
    25     8    24   ar
    26     4    24   ar
    27     1    25    1
    28     1    26    1
    29     1    27    1
    30     2    28    1
    31     3    29    1
    32     3    30    1
    33     3    31    1
    34     9    32    1
    35    12    33    1
    36    12    34    1
    37    15    35    1
    38     5    36    1
    39     6    37    1
    40     7    38    1
    41    19    39    1
    42    20    40    1
    43    21    41    1
    44    22    42    1
    45    24    43    1
@<TRIPOS>MOLECULE
mol18_1_13
 43 45 0 0 0
SMALL
USER_CHARGES
****
VDW energy = -120.95
@<TRIPOS>ATOM
   1 C1        3.3691    -9.0331    -5.6418  C.3     1  <O>11      -0.0586
   2 C2        2.8832    -9.8059    -4.4252  C.3     1  <O>11      -0.0215
   3 C3        3.0381    -8.9437    -3.1818  C.3     1  <O>11      -0.0586
   4 C4        1.4620   -10.1610    -4.6040  C.ar    1  <O>11      -0.0430
   5 C5        1.0870   -10.9543    -5.6911  C.ar    1  <O>11      -0.0582
   6 C6       -0.2603   -11.2847    -5.8741  C.ar    1  <O>11      -0.0597
   7 C7       -1.2250   -10.8279    -4.9726  C.ar    1  <O>11      -0.0405
   8 C8       -0.8338   -10.0400    -3.8845  C.ar    1  <O>11       0.0337
   9 N1       -1.7937    -9.5914    -2.9927  N.am    1  <O>11      -0.2852
  10 C9       -2.5585   -10.4912    -2.3002  C.2     1  <O>11       0.2231
  11 O1       -2.3928   -11.6907    -2.4672  O.2     1  <O>11      -0.2751
  12 C10      -3.5926   -10.0076    -1.3393  C.3     1  <O>11       0.0688
  13 C11      -4.2778    -8.8181    -1.9081  C.ar    1  <O>11       0.0780
  14 N2       -5.4254    -8.9832    -2.6957  N.ar    1  <O>11      -0.1748
  15 N3       -5.9987    -7.9229    -3.3059  N.ar    1  <O>11      -0.2425
  16 C12      -5.4578    -6.6909    -3.1345  C.ar    1  <O>11       0.2725
  17 O2       -6.0428    -5.6466    -3.8744  O.2     1  <O>11      -0.2658
  18 C13      -4.3765    -6.4266    -2.2816  C.ar    1  <O>11       0.0496
  19 C14      -3.8468    -5.1352    -2.0563  C.ar    1  <O>11      -0.0487
  20 C15      -2.7475    -4.9451    -1.2185  C.ar    1  <O>11      -0.0610
  21 C16      -2.1525    -6.0379    -0.5982  C.ar    1  <O>11      -0.0611
  22 C17      -2.6577    -7.3207    -0.8160  C.ar    1  <O>11      -0.0521
  23 C18      -3.7756    -7.5314    -1.6531  C.ar    1  <O>11       0.0108
  24 C19       0.5076    -9.7064    -3.6927  C.ar    1  <O>11      -0.0370
  25 H1        2.7787    -8.1237    -5.7542  H       1  <O>11       0.0235
  26 H2        3.2580    -9.6509    -6.5329  H       1  <O>11       0.0235
  27 H3        4.4188    -8.7708    -5.5101  H       1  <O>11       0.0235
  28 H4        3.4736   -10.7152    -4.3128  H       1  <O>11       0.0343
  29 H5        2.6899    -9.4976    -2.3100  H       1  <O>11       0.0235
  30 H6        2.4477    -8.0344    -3.2943  H       1  <O>11       0.0235
  31 H7        4.0878    -8.6814    -3.0501  H       1  <O>11       0.0235
  32 H8       -1.9316    -8.5900    -2.8533  H       1  <O>11       0.1548
  33 H9       -3.1149    -9.7364    -0.3981  H       1  <O>11       0.0423
  34 H10      -4.3223   -10.7978    -1.1622  H       1  <O>11       0.0423
  35 H11      -6.8198    -8.0458    -3.8811  H       1  <O>11       0.1921
  36 H12       1.7997   -11.2946    -6.3554  H       1  <O>11       0.0620
  37 H13      -0.5423   -11.8676    -6.6776  H       1  <O>11       0.0618
  38 H14      -2.2191   -11.0699    -5.1082  H       1  <O>11       0.0636
  39 H15      -4.2800    -4.3207    -2.5187  H       1  <O>11       0.0625
  40 H16      -2.3768    -3.9952    -1.0595  H       1  <O>11       0.0618
  41 H17      -1.3391    -5.9009     0.0220  H       1  <O>11       0.0618
  42 H18      -2.2071    -8.1284    -0.3578  H       1  <O>11       0.0624
  43 H19       0.7910    -9.1294    -2.8853  H       1  <O>11       0.0639
@<TRIPOS>BOND
     1     1     2    1
     2     2     3    1
     3     2     4    1
     4     4     5   ar
     5     5     6   ar
     6     6     7   ar
     7     7     8   ar
     8     8     9    1
     9     9    10   am
    10    10    11    2
    11    10    12    1
    12    12    13    1
    13    13    14   ar
    14    14    15   ar
    15    15    16   ar
    16    16    17    2
    17    16    18   ar
    18    18    19   ar
    19    19    20   ar
    20    20    21   ar
    21    21    22   ar
    22    22    23   ar
    23    13    23   ar
    24    18    23   ar
    25     8    24   ar
    26     4    24   ar
    27     1    25    1
    28     1    26    1
    29     1    27    1
    30     2    28    1
    31     3    29    1
    32     3    30    1
    33     3    31    1
    34     9    32    1
    35    12    33    1
    36    12    34    1
    37    15    35    1
    38     5    36    1
    39     6    37    1
    40     7    38    1
    41    19    39    1
    42    20    40    1
    43    21    41    1
    44    22    42    1
    45    24    43    1
@<TRIPOS>MOLECULE
mol18_1_14
 43 45 0 0 0
SMALL
USER_CHARGES
****
VDW energy = -120.62
@<TRIPOS>ATOM
   1 C1        3.3691    -9.0331    -5.6418  C.3     1  <O>11      -0.0586
   2 C2        2.8832    -9.8059    -4.4252  C.3     1  <O>11      -0.0215
   3 C3        3.0381    -8.9437    -3.1818  C.3     1  <O>11      -0.0586
   4 C4        1.4620   -10.1610    -4.6040  C.ar    1  <O>11      -0.0430
   5 C5        0.8050   -10.8780    -3.6010  C.ar    1  <O>11      -0.0582
   6 C6       -0.5390   -11.2290    -3.7690  C.ar    1  <O>11      -0.0597
   7 C7       -1.2220   -10.8610    -4.9310  C.ar    1  <O>11      -0.0405
   8 C8       -0.5530   -10.1370    -5.9240  C.ar    1  <O>11       0.0337
   9 N1       -1.2350    -9.7730    -7.0730  N.am    1  <O>11      -0.2852
  10 C9       -1.9022    -8.5787    -7.1237  C.2     1  <O>11       0.2231
  11 O1       -2.5060    -8.2582    -8.1370  O.2     1  <O>11      -0.2751
  12 C10      -1.8944    -7.6691    -5.9408  C.3     1  <O>11       0.0688
  13 C11      -2.6861    -6.4501    -6.2496  C.ar    1  <O>11       0.0780
  14 N2       -3.8063    -6.1289    -5.4708  N.ar    1  <O>11      -0.1748
  15 N3       -4.5968    -5.0845    -5.8017  N.ar    1  <O>11      -0.2425
  16 C12      -4.2841    -4.3390    -6.8908  C.ar    1  <O>11       0.2725
  17 O2       -5.2004    -3.3286    -7.2367  O.2     1  <O>11      -0.2658
  18 C13      -3.1266    -4.5298    -7.6592  C.ar    1  <O>11       0.0496
  19 C14      -2.7680    -3.7186    -8.7603  C.ar    1  <O>11      -0.0487
  20 C15      -1.6172    -3.9827    -9.5033  C.ar    1  <O>11      -0.0610
  21 C16      -0.8091    -5.0633    -9.1678  C.ar    1  <O>11      -0.0611
  22 C17      -1.1526    -5.8792    -8.0886  C.ar    1  <O>11      -0.0521
  23 C18      -2.3087    -5.6216    -7.3191  C.ar    1  <O>11       0.0108
  24 C19       0.7870    -9.7810    -5.7650  C.ar    1  <O>11      -0.0370
  25 H1        2.7787    -8.1237    -5.7542  H       1  <O>11       0.0235
  26 H2        3.2580    -9.6509    -6.5329  H       1  <O>11       0.0235
  27 H3        4.4188    -8.7708    -5.5101  H       1  <O>11       0.0235
  28 H4        3.4736   -10.7152    -4.3128  H       1  <O>11       0.0343
  29 H5        2.6899    -9.4976    -2.3100  H       1  <O>11       0.0235
  30 H6        2.4477    -8.0344    -3.2943  H       1  <O>11       0.0235
  31 H7        4.0878    -8.6814    -3.0501  H       1  <O>11       0.0235
  32 H8       -1.2412   -10.3961    -7.8811  H       1  <O>11       0.1548
  33 H9       -0.8682    -7.3864    -5.7070  H       1  <O>11       0.0423
  34 H10      -2.3343    -8.1815    -5.0852  H       1  <O>11       0.0423
  35 H11      -5.4093    -4.8610    -5.2447  H       1  <O>11       0.1921
  36 H12       1.3081   -11.1472    -2.7411  H       1  <O>11       0.0620
  37 H13      -1.0274   -11.7615    -3.0322  H       1  <O>11       0.0618
  38 H14      -2.2128   -11.1213    -5.0560  H       1  <O>11       0.0636
  39 H15      -3.3669    -2.9188    -9.0183  H       1  <O>11       0.0625
  40 H16      -1.3661    -3.3772   -10.3004  H       1  <O>11       0.0618
  41 H17       0.0428    -5.2616    -9.7154  H       1  <O>11       0.0618
  42 H18      -0.5521    -6.6837    -7.8491  H       1  <O>11       0.0624
  43 H19       1.2738    -9.2423    -6.4984  H       1  <O>11       0.0639
@<TRIPOS>BOND
     1     1     2    1
     2     2     3    1
     3     2     4    1
     4     4     5   ar
     5     5     6   ar
     6     6     7   ar
     7     7     8   ar
     8     8     9    1
     9     9    10   am
    10    10    11    2
    11    10    12    1
    12    12    13    1
    13    13    14   ar
    14    14    15   ar
    15    15    16   ar
    16    16    17    2
    17    16    18   ar
    18    18    19   ar
    19    19    20   ar
    20    20    21   ar
    21    21    22   ar
    22    22    23   ar
    23    13    23   ar
    24    18    23   ar
    25     8    24   ar
    26     4    24   ar
    27     1    25    1
    28     1    26    1
    29     1    27    1
    30     2    28    1
    31     3    29    1
    32     3    30    1
    33     3    31    1
    34     9    32    1
    35    12    33    1
    36    12    34    1
    37    15    35    1
    38     5    36    1
    39     6    37    1
    40     7    38    1
    41    19    39    1
    42    20    40    1
    43    21    41    1
    44    22    42    1
    45    24    43    1
@<TRIPOS>MOLECULE
mol18_1_15
 43 45 0 0 0
SMALL
USER_CHARGES
****
VDW energy = -119.73
@<TRIPOS>ATOM
   1 C1        3.3691    -9.0331    -5.6418  C.3     1  <O>11      -0.0586
   2 C2        2.8832    -9.8059    -4.4252  C.3     1  <O>11      -0.0215
   3 C3        3.0381    -8.9437    -3.1818  C.3     1  <O>11      -0.0586
   4 C4        1.4620   -10.1610    -4.6040  C.ar    1  <O>11      -0.0430
   5 C5        0.5185    -9.1438    -4.7681  C.ar    1  <O>11      -0.0582
   6 C6       -0.8324    -9.4724    -4.9257  C.ar    1  <O>11      -0.0597
   7 C7       -1.2356   -10.8101    -4.9235  C.ar    1  <O>11      -0.0405
   8 C8       -0.2787   -11.8185    -4.7651  C.ar    1  <O>11       0.0337
   9 N1       -0.6833   -13.1429    -4.7656  N.am    1  <O>11      -0.2852
  10 C9       -1.5732   -13.5872    -3.8249  C.2     1  <O>11       0.2231
  11 O1       -1.9287   -14.7566    -3.8238  O.2     1  <O>11      -0.2751
  12 C10      -2.1071   -12.6442    -2.7991  C.3     1  <O>11       0.0688
  13 C11      -3.0449   -13.3686    -1.9025  C.ar    1  <O>11       0.0780
  14 N2       -3.2933   -14.7328    -2.1069  N.ar    1  <O>11      -0.1748
  15 N3       -4.2207   -15.3807    -1.3685  N.ar    1  <O>11      -0.2425
  16 C12      -4.8998   -14.6971    -0.4140  C.ar    1  <O>11       0.2725
  17 O2       -5.9187   -15.4040     0.2512  O.2     1  <O>11      -0.2658
  18 C13      -4.6377   -13.3612    -0.0773  C.ar    1  <O>11       0.0496
  19 C14      -5.3039   -12.6627     0.9558  C.ar    1  <O>11      -0.0487
  20 C15      -5.0173   -11.3228     1.2187  C.ar    1  <O>11      -0.0610
  21 C16      -4.0693   -10.6542     0.4523  C.ar    1  <O>11      -0.0611
  22 C17      -3.4079   -11.3265    -0.5768  C.ar    1  <O>11      -0.0521
  23 C18      -3.6781   -12.6854    -0.8513  C.ar    1  <O>11       0.0108
  24 C19       1.0713   -11.5009    -4.6087  C.ar    1  <O>11      -0.0370
  25 H1        2.7787    -8.1237    -5.7542  H       1  <O>11       0.0235
  26 H2        3.2580    -9.6509    -6.5329  H       1  <O>11       0.0235
  27 H3        4.4188    -8.7708    -5.5101  H       1  <O>11       0.0235
  28 H4        3.4736   -10.7152    -4.3128  H       1  <O>11       0.0343
  29 H5        2.6899    -9.4976    -2.3100  H       1  <O>11       0.0235
  30 H6        2.4477    -8.0344    -3.2943  H       1  <O>11       0.0235
  31 H7        4.0878    -8.6814    -3.0501  H       1  <O>11       0.0235
  32 H8       -0.3167   -13.7876    -5.4664  H       1  <O>11       0.1548
  33 H9       -2.6344   -11.8294    -3.2946  H       1  <O>11       0.0423
  34 H10      -1.2821   -12.2398    -2.2124  H       1  <O>11       0.0423
  35 H11      -4.4051   -16.3615    -1.5244  H       1  <O>11       0.1921
  36 H12       0.8163    -8.1557    -4.7731  H       1  <O>11       0.0620
  37 H13      -1.5332    -8.7242    -5.0440  H       1  <O>11       0.0618
  38 H14      -2.2322   -11.0527    -5.0380  H       1  <O>11       0.0636
  39 H15      -6.0131   -13.1515     1.5242  H       1  <O>11       0.0625
  40 H16      -5.5079   -10.8290     1.9805  H       1  <O>11       0.0618
  41 H17      -3.8550    -9.6631     0.6439  H       1  <O>11       0.0618
  42 H18      -2.7103   -10.8224    -1.1463  H       1  <O>11       0.0624
  43 H19       1.7733   -12.2490    -4.4976  H       1  <O>11       0.0639
@<TRIPOS>BOND
     1     1     2    1
     2     2     3    1
     3     2     4    1
     4     4     5   ar
     5     5     6   ar
     6     6     7   ar
     7     7     8   ar
     8     8     9    1
     9     9    10   am
    10    10    11    2
    11    10    12    1
    12    12    13    1
    13    13    14   ar
    14    14    15   ar
    15    15    16   ar
    16    16    17    2
    17    16    18   ar
    18    18    19   ar
    19    19    20   ar
    20    20    21   ar
    21    21    22   ar
    22    22    23   ar
    23    13    23   ar
    24    18    23   ar
    25     8    24   ar
    26     4    24   ar
    27     1    25    1
    28     1    26    1
    29     1    27    1
    30     2    28    1
    31     3    29    1
    32     3    30    1
    33     3    31    1
    34     9    32    1
    35    12    33    1
    36    12    34    1
    37    15    35    1
    38     5    36    1
    39     6    37    1
    40     7    38    1
    41    19    39    1
    42    20    40    1
    43    21    41    1
    44    22    42    1
    45    24    43    1
@<TRIPOS>MOLECULE
mol18_1_16
 43 45 0 0 0
SMALL
USER_CHARGES
****
VDW energy = -119.59
@<TRIPOS>ATOM
   1 C1        3.3691    -9.0331    -5.6418  C.3     1  <O>11      -0.0586
   2 C2        2.8832    -9.8059    -4.4252  C.3     1  <O>11      -0.0215
   3 C3        3.0381    -8.9437    -3.1818  C.3     1  <O>11      -0.0586
   4 C4        1.4620   -10.1610    -4.6040  C.ar    1  <O>11      -0.0430
   5 C5        0.5185    -9.1438    -4.7681  C.ar    1  <O>11      -0.0582
   6 C6       -0.8324    -9.4724    -4.9257  C.ar    1  <O>11      -0.0597
   7 C7       -1.2356   -10.8101    -4.9235  C.ar    1  <O>11      -0.0405
   8 C8       -0.2787   -11.8185    -4.7651  C.ar    1  <O>11       0.0337
   9 N1       -0.6833   -13.1429    -4.7656  N.am    1  <O>11      -0.2852
  10 C9       -1.5732   -13.5872    -3.8249  C.2     1  <O>11       0.2231
  11 O1       -2.0123   -12.8145    -2.9857  O.2     1  <O>11      -0.2751
  12 C10      -2.0091   -15.0142    -3.8256  C.3     1  <O>11       0.0688
  13 C11      -0.8466   -15.8859    -4.1371  C.ar    1  <O>11       0.0780
  14 N2        0.4119   -15.3147    -4.3703  N.ar    1  <O>11      -0.1748
  15 N3        1.4541   -16.0825    -4.7573  N.ar    1  <O>11      -0.2425
  16 C12       1.2713   -17.4185    -4.9031  C.ar    1  <O>11       0.2725
  17 O2        2.3680   -18.1455    -5.4021  O.2     1  <O>11      -0.2658
  18 C13       0.0751   -18.0800    -4.5896  C.ar    1  <O>11       0.0496
  19 C14      -0.1011   -19.4795    -4.6857  C.ar    1  <O>11      -0.0487
  20 C15      -1.3288   -20.0717    -4.3885  C.ar    1  <O>11      -0.0610
  21 C16      -2.4034   -19.2799    -3.9993  C.ar    1  <O>11      -0.0611
  22 C17      -2.2491   -17.8957    -3.9070  C.ar    1  <O>11      -0.0521
  23 C18      -1.0111   -17.2796    -4.1946  C.ar    1  <O>11       0.0108
  24 C19       1.0713   -11.5009    -4.6087  C.ar    1  <O>11      -0.0370
  25 H1        2.7787    -8.1237    -5.7542  H       1  <O>11       0.0235
  26 H2        3.2580    -9.6509    -6.5329  H       1  <O>11       0.0235
  27 H3        4.4188    -8.7708    -5.5101  H       1  <O>11       0.0235
  28 H4        3.4736   -10.7152    -4.3128  H       1  <O>11       0.0343
  29 H5        2.6899    -9.4976    -2.3100  H       1  <O>11       0.0235
  30 H6        2.4477    -8.0344    -3.2943  H       1  <O>11       0.0235
  31 H7        4.0878    -8.6814    -3.0501  H       1  <O>11       0.0235
  32 H8       -0.3167   -13.7876    -5.4664  H       1  <O>11       0.1548
  33 H9       -2.7827   -15.1570    -4.5798  H       1  <O>11       0.0423
  34 H10      -2.4058   -15.2738    -2.8441  H       1  <O>11       0.0423
  35 H11       2.3577   -15.6673    -4.9345  H       1  <O>11       0.1921
  36 H12       0.8163    -8.1557    -4.7731  H       1  <O>11       0.0620
  37 H13      -1.5332    -8.7242    -5.0440  H       1  <O>11       0.0618
  38 H14      -2.2322   -11.0527    -5.0380  H       1  <O>11       0.0636
  39 H15       0.6908   -20.0722    -4.9801  H       1  <O>11       0.0625
  40 H16      -1.4392   -21.0955    -4.4575  H       1  <O>11       0.0618
  41 H17      -3.3130   -19.7147    -3.7790  H       1  <O>11       0.0618
  42 H18      -3.0526   -17.3131    -3.6241  H       1  <O>11       0.0624
  43 H19       1.7733   -12.2490    -4.4976  H       1  <O>11       0.0639
@<TRIPOS>BOND
     1     1     2    1
     2     2     3    1
     3     2     4    1
     4     4     5   ar
     5     5     6   ar
     6     6     7   ar
     7     7     8   ar
     8     8     9    1
     9     9    10   am
    10    10    11    2
    11    10    12    1
    12    12    13    1
    13    13    14   ar
    14    14    15   ar
    15    15    16   ar
    16    16    17    2
    17    16    18   ar
    18    18    19   ar
    19    19    20   ar
    20    20    21   ar
    21    21    22   ar
    22    22    23   ar
    23    13    23   ar
    24    18    23   ar
    25     8    24   ar
    26     4    24   ar
    27     1    25    1
    28     1    26    1
    29     1    27    1
    30     2    28    1
    31     3    29    1
    32     3    30    1
    33     3    31    1
    34     9    32    1
    35    12    33    1
    36    12    34    1
    37    15    35    1
    38     5    36    1
    39     6    37    1
    40     7    38    1
    41    19    39    1
    42    20    40    1
    43    21    41    1
    44    22    42    1
    45    24    43    1
@<TRIPOS>MOLECULE
mol18_1_17
 43 45 0 0 0
SMALL
USER_CHARGES
****
VDW energy = -119.56
@<TRIPOS>ATOM
   1 C1        3.3691    -9.0331    -5.6418  C.3     1  <O>11      -0.0586
   2 C2        2.8832    -9.8059    -4.4252  C.3     1  <O>11      -0.0215
   3 C3        3.0381    -8.9437    -3.1818  C.3     1  <O>11      -0.0586
   4 C4        1.4620   -10.1610    -4.6040  C.ar    1  <O>11      -0.0430
   5 C5        0.8050   -10.8780    -3.6010  C.ar    1  <O>11      -0.0582
   6 C6       -0.5390   -11.2290    -3.7690  C.ar    1  <O>11      -0.0597
   7 C7       -1.2220   -10.8610    -4.9310  C.ar    1  <O>11      -0.0405
   8 C8       -0.5530   -10.1370    -5.9240  C.ar    1  <O>11       0.0337
   9 N1       -1.2350    -9.7730    -7.0730  N.am    1  <O>11      -0.2852
  10 C9       -2.3467    -8.9789    -6.9866  C.2     1  <O>11       0.2231
  11 O1       -2.9501    -8.6593    -8.0004  O.2     1  <O>11      -0.2751
  12 C10      -2.8236    -8.5055    -5.6543  C.3     1  <O>11       0.0688
  13 C11      -4.0381    -7.6681    -5.8330  C.ar    1  <O>11       0.0780
  14 N2       -5.3065    -8.2641    -5.8125  N.ar    1  <O>11      -0.1748
  15 N3       -6.4127    -7.5352    -6.0777  N.ar    1  <O>11      -0.2425
  16 C12      -6.2823    -6.2128    -6.3498  C.ar    1  <O>11       0.2725
  17 O2       -7.4599    -5.5335    -6.7131  O.2     1  <O>11      -0.2658
  18 C13      -5.0639    -5.5212    -6.2877  C.ar    1  <O>11       0.0496
  19 C14      -4.9330    -4.1318    -6.5144  C.ar    1  <O>11      -0.0487
  20 C15      -3.6848    -3.5102    -6.4686  C.ar    1  <O>11      -0.0610
  21 C16      -2.5459    -4.2627    -6.2047  C.ar    1  <O>11      -0.0611
  22 C17      -2.6560    -5.6369    -5.9864  C.ar    1  <O>11      -0.0521
  23 C18      -3.9122    -6.2817    -6.0195  C.ar    1  <O>11       0.0108
  24 C19       0.7870    -9.7810    -5.7650  C.ar    1  <O>11      -0.0370
  25 H1        2.7787    -8.1237    -5.7542  H       1  <O>11       0.0235
  26 H2        3.2580    -9.6509    -6.5329  H       1  <O>11       0.0235
  27 H3        4.4188    -8.7708    -5.5101  H       1  <O>11       0.0235
  28 H4        3.4736   -10.7152    -4.3128  H       1  <O>11       0.0343
  29 H5        2.6899    -9.4976    -2.3100  H       1  <O>11       0.0235
  30 H6        2.4477    -8.0344    -3.2943  H       1  <O>11       0.0235
  31 H7        4.0878    -8.6814    -3.0501  H       1  <O>11       0.0235
  32 H8       -0.9093   -10.0982    -7.9837  H       1  <O>11       0.1548
  33 H9       -2.0416    -7.9145    -5.1778  H       1  <O>11       0.0423
  34 H10      -3.0630    -9.3645    -5.0274  H       1  <O>11       0.0423
  35 H11      -7.3249    -7.9689    -6.0721  H       1  <O>11       0.1921
  36 H12       1.3081   -11.1472    -2.7411  H       1  <O>11       0.0620
  37 H13      -1.0274   -11.7615    -3.0322  H       1  <O>11       0.0618
  38 H14      -2.2128   -11.1213    -5.0560  H       1  <O>11       0.0636
  39 H15      -5.7738    -3.5687    -6.7170  H       1  <O>11       0.0625
  40 H16      -3.6071    -2.4939    -6.6301  H       1  <O>11       0.0618
  41 H17      -1.6210    -3.8061    -6.1702  H       1  <O>11       0.0618
  42 H18      -1.8058    -6.1908    -5.7978  H       1  <O>11       0.0624
  43 H19       1.2738    -9.2423    -6.4984  H       1  <O>11       0.0639
@<TRIPOS>BOND
     1     1     2    1
     2     2     3    1
     3     2     4    1
     4     4     5   ar
     5     5     6   ar
     6     6     7   ar
     7     7     8   ar
     8     8     9    1
     9     9    10   am
    10    10    11    2
    11    10    12    1
    12    12    13    1
    13    13    14   ar
    14    14    15   ar
    15    15    16   ar
    16    16    17    2
    17    16    18   ar
    18    18    19   ar
    19    19    20   ar
    20    20    21   ar
    21    21    22   ar
    22    22    23   ar
    23    13    23   ar
    24    18    23   ar
    25     8    24   ar
    26     4    24   ar
    27     1    25    1
    28     1    26    1
    29     1    27    1
    30     2    28    1
    31     3    29    1
    32     3    30    1
    33     3    31    1
    34     9    32    1
    35    12    33    1
    36    12    34    1
    37    15    35    1
    38     5    36    1
    39     6    37    1
    40     7    38    1
    41    19    39    1
    42    20    40    1
    43    21    41    1
    44    22    42    1
    45    24    43    1
@<TRIPOS>MOLECULE
mol18_1_18
 43 45 0 0 0
SMALL
USER_CHARGES
****
VDW energy = -119.49
@<TRIPOS>ATOM
   1 C1        3.3691    -9.0331    -5.6418  C.3     1  <O>11      -0.0586
   2 C2        2.8832    -9.8059    -4.4252  C.3     1  <O>11      -0.0215
   3 C3        3.0381    -8.9437    -3.1818  C.3     1  <O>11      -0.0586
   4 C4        1.4620   -10.1610    -4.6040  C.ar    1  <O>11      -0.0430
   5 C5        0.8050   -10.8780    -3.6010  C.ar    1  <O>11      -0.0582
   6 C6       -0.5390   -11.2290    -3.7690  C.ar    1  <O>11      -0.0597
   7 C7       -1.2220   -10.8610    -4.9310  C.ar    1  <O>11      -0.0405
   8 C8       -0.5530   -10.1370    -5.9240  C.ar    1  <O>11       0.0337
   9 N1       -1.2350    -9.7730    -7.0730  N.am    1  <O>11      -0.2852
  10 C9       -1.7751   -10.7359    -7.8825  C.2     1  <O>11       0.2231
  11 O1       -2.3752   -10.4149    -8.8978  O.2     1  <O>11      -0.2751
  12 C10      -1.6289   -12.1776    -7.5267  C.3     1  <O>11       0.0688
  13 C11      -2.2966   -13.0116    -8.5595  C.ar    1  <O>11       0.0780
  14 N2       -1.5720   -13.4560    -9.6739  N.ar    1  <O>11      -0.1748
  15 N3       -2.1887   -14.1252   -10.6725  N.ar    1  <O>11      -0.2425
  16 C12      -3.5183   -14.3758   -10.5764  C.ar    1  <O>11       0.2725
  17 O2       -4.1178   -14.9887   -11.6922  O.2     1  <O>11      -0.2658
  18 C13      -4.2916   -14.0578    -9.4505  C.ar    1  <O>11       0.0496
  19 C14      -5.6648   -14.3691    -9.3232  C.ar    1  <O>11      -0.0487
  20 C15      -6.3845   -13.9955    -8.1879  C.ar    1  <O>11      -0.0610
  21 C16      -5.7512   -13.2989    -7.1648  C.ar    1  <O>11      -0.0611
  22 C17      -4.3978   -12.9764    -7.2777  C.ar    1  <O>11      -0.0521
  23 C18      -3.6509   -13.3546    -8.4153  C.ar    1  <O>11       0.0108
  24 C19       0.7870    -9.7810    -5.7650  C.ar    1  <O>11      -0.0370
  25 H1        2.7787    -8.1237    -5.7542  H       1  <O>11       0.0235
  26 H2        3.2580    -9.6509    -6.5329  H       1  <O>11       0.0235
  27 H3        4.4188    -8.7708    -5.5101  H       1  <O>11       0.0235
  28 H4        3.4736   -10.7152    -4.3128  H       1  <O>11       0.0343
  29 H5        2.6899    -9.4976    -2.3100  H       1  <O>11       0.0235
  30 H6        2.4477    -8.0344    -3.2943  H       1  <O>11       0.0235
  31 H7        4.0878    -8.6814    -3.0501  H       1  <O>11       0.0235
  32 H8       -1.3334    -8.7870    -7.3166  H       1  <O>11       0.1548
  33 H9       -2.0912   -12.3608    -6.5570  H       1  <O>11       0.0423
  34 H10      -0.5707   -12.4350    -7.4794  H       1  <O>11       0.0423
  35 H11      -1.6665   -14.4357   -11.4794  H       1  <O>11       0.1921
  36 H12       1.3081   -11.1472    -2.7411  H       1  <O>11       0.0620
  37 H13      -1.0274   -11.7615    -3.0322  H       1  <O>11       0.0618
  38 H14      -2.2128   -11.1213    -5.0560  H       1  <O>11       0.0636
  39 H15      -6.1423   -14.8805   -10.0818  H       1  <O>11       0.0625
  40 H16      -7.3849   -14.2358    -8.1076  H       1  <O>11       0.0618
  41 H17      -6.2806   -13.0208    -6.3237  H       1  <O>11       0.0618
  42 H18      -3.9355   -12.4532    -6.5177  H       1  <O>11       0.0624
  43 H19       1.2738    -9.2423    -6.4984  H       1  <O>11       0.0639
@<TRIPOS>BOND
     1     1     2    1
     2     2     3    1
     3     2     4    1
     4     4     5   ar
     5     5     6   ar
     6     6     7   ar
     7     7     8   ar
     8     8     9    1
     9     9    10   am
    10    10    11    2
    11    10    12    1
    12    12    13    1
    13    13    14   ar
    14    14    15   ar
    15    15    16   ar
    16    16    17    2
    17    16    18   ar
    18    18    19   ar
    19    19    20   ar
    20    20    21   ar
    21    21    22   ar
    22    22    23   ar
    23    13    23   ar
    24    18    23   ar
    25     8    24   ar
    26     4    24   ar
    27     1    25    1
    28     1    26    1
    29     1    27    1
    30     2    28    1
    31     3    29    1
    32     3    30    1
    33     3    31    1
    34     9    32    1
    35    12    33    1
    36    12    34    1
    37    15    35    1
    38     5    36    1
    39     6    37    1
    40     7    38    1
    41    19    39    1
    42    20    40    1
    43    21    41    1
    44    22    42    1
    45    24    43    1
@<TRIPOS>MOLECULE
mol18_1_19
 43 45 0 0 0
SMALL
USER_CHARGES
****
VDW energy = -119.29
@<TRIPOS>ATOM
   1 C1        3.3691    -9.0331    -5.6418  C.3     1  <O>11      -0.0586
   2 C2        2.8832    -9.8059    -4.4252  C.3     1  <O>11      -0.0215
   3 C3        3.0381    -8.9437    -3.1818  C.3     1  <O>11      -0.0586
   4 C4        1.4620   -10.1610    -4.6040  C.ar    1  <O>11      -0.0430
   5 C5        0.8050   -10.8780    -3.6010  C.ar    1  <O>11      -0.0582
   6 C6       -0.5390   -11.2290    -3.7690  C.ar    1  <O>11      -0.0597
   7 C7       -1.2220   -10.8610    -4.9310  C.ar    1  <O>11      -0.0405
   8 C8       -0.5530   -10.1370    -5.9240  C.ar    1  <O>11       0.0337
   9 N1       -1.2350    -9.7730    -7.0730  N.am    1  <O>11      -0.2852
  10 C9       -2.3467    -8.9789    -6.9866  C.2     1  <O>11       0.2231
  11 O1       -2.7364    -8.5892    -5.8955  O.2     1  <O>11      -0.2751
  12 C10      -3.0814    -8.5867    -8.2247  C.3     1  <O>11       0.0688
  13 C11      -4.2394    -7.7293    -7.8616  C.ar    1  <O>11       0.0780
  14 N2       -4.3293    -6.4255    -8.3683  N.ar    1  <O>11      -0.1748
  15 N3       -5.3185    -5.5982    -7.9655  N.ar    1  <O>11      -0.2425
  16 C12      -6.2352    -6.0506    -7.0740  C.ar    1  <O>11       0.2725
  17 O2       -7.1796    -5.1104    -6.6218  O.2     1  <O>11      -0.2658
  18 C13      -6.2763    -7.3700    -6.6004  C.ar    1  <O>11       0.0496
  19 C14      -7.2642    -7.8602    -5.7158  C.ar    1  <O>11      -0.0487
  20 C15      -7.2290    -9.1773    -5.2572  C.ar    1  <O>11      -0.0610
  21 C16      -6.2054   -10.0253    -5.6650  C.ar    1  <O>11      -0.0611
  22 C17      -5.2174    -9.5554    -6.5318  C.ar    1  <O>11      -0.0521
  23 C18      -5.2421    -8.2280    -7.0138  C.ar    1  <O>11       0.0108
  24 C19       0.7870    -9.7810    -5.7650  C.ar    1  <O>11      -0.0370
  25 H1        2.7787    -8.1237    -5.7542  H       1  <O>11       0.0235
  26 H2        3.2580    -9.6509    -6.5329  H       1  <O>11       0.0235
  27 H3        4.4188    -8.7708    -5.5101  H       1  <O>11       0.0235
  28 H4        3.4736   -10.7152    -4.3128  H       1  <O>11       0.0343
  29 H5        2.6899    -9.4976    -2.3100  H       1  <O>11       0.0235
  30 H6        2.4477    -8.0344    -3.2943  H       1  <O>11       0.0235
  31 H7        4.0878    -8.6814    -3.0501  H       1  <O>11       0.0235
  32 H8       -0.9093   -10.0982    -7.9837  H       1  <O>11       0.1548
  33 H9       -3.4376    -9.4817    -8.7343  H       1  <O>11       0.0423
  34 H10      -2.4126    -8.0343    -8.8849  H       1  <O>11       0.0423
  35 H11      -5.3755    -4.6558    -8.3244  H       1  <O>11       0.1921
  36 H12       1.3081   -11.1472    -2.7411  H       1  <O>11       0.0620
  37 H13      -1.0274   -11.7615    -3.0322  H       1  <O>11       0.0618
  38 H14      -2.2128   -11.1213    -5.0560  H       1  <O>11       0.0636
  39 H15      -8.0231    -7.2340    -5.4044  H       1  <O>11       0.0625
  40 H16      -7.9612    -9.5215    -4.6166  H       1  <O>11       0.0618
  41 H17      -6.1762   -11.0001    -5.3275  H       1  <O>11       0.0618
  42 H18      -4.4566   -10.1880    -6.8252  H       1  <O>11       0.0624
  43 H19       1.2738    -9.2423    -6.4984  H       1  <O>11       0.0639
@<TRIPOS>BOND
     1     1     2    1
     2     2     3    1
     3     2     4    1
     4     4     5   ar
     5     5     6   ar
     6     6     7   ar
     7     7     8   ar
     8     8     9    1
     9     9    10   am
    10    10    11    2
    11    10    12    1
    12    12    13    1
    13    13    14   ar
    14    14    15   ar
    15    15    16   ar
    16    16    17    2
    17    16    18   ar
    18    18    19   ar
    19    19    20   ar
    20    20    21   ar
    21    21    22   ar
    22    22    23   ar
    23    13    23   ar
    24    18    23   ar
    25     8    24   ar
    26     4    24   ar
    27     1    25    1
    28     1    26    1
    29     1    27    1
    30     2    28    1
    31     3    29    1
    32     3    30    1
    33     3    31    1
    34     9    32    1
    35    12    33    1
    36    12    34    1
    37    15    35    1
    38     5    36    1
    39     6    37    1
    40     7    38    1
    41    19    39    1
    42    20    40    1
    43    21    41    1
    44    22    42    1
    45    24    43    1
@<TRIPOS>MOLECULE
mol18_1_20
 43 45 0 0 0
SMALL
USER_CHARGES
****
VDW energy = -118.94
@<TRIPOS>ATOM
   1 C1        3.3691    -9.0331    -5.6418  C.3     1  <O>11      -0.0586
   2 C2        2.8832    -9.8059    -4.4252  C.3     1  <O>11      -0.0215
   3 C3        3.0381    -8.9437    -3.1818  C.3     1  <O>11      -0.0586
   4 C4        1.4620   -10.1610    -4.6040  C.ar    1  <O>11      -0.0430
   5 C5        1.0870   -10.9543    -5.6911  C.ar    1  <O>11      -0.0582
   6 C6       -0.2603   -11.2847    -5.8741  C.ar    1  <O>11      -0.0597
   7 C7       -1.2250   -10.8279    -4.9726  C.ar    1  <O>11      -0.0405
   8 C8       -0.8338   -10.0400    -3.8845  C.ar    1  <O>11       0.0337
   9 N1       -1.7937    -9.5914    -2.9927  N.am    1  <O>11      -0.2852
  10 C9       -2.4187    -8.3922    -3.2057  C.2     1  <O>11       0.2231
  11 O1       -2.1311    -7.7181    -4.1839  O.2     1  <O>11      -0.2751
  12 C10      -3.4530    -7.9091    -2.2447  C.3     1  <O>11       0.0688
  13 C11      -3.9748    -6.5943    -2.7001  C.ar    1  <O>11       0.0780
  14 N2       -3.4790    -6.0155    -3.8764  N.ar    1  <O>11      -0.1748
  15 N3       -3.8652    -4.7753    -4.2479  N.ar    1  <O>11      -0.2425
  16 C12      -4.7525    -4.1010    -3.4748  C.ar    1  <O>11       0.2725
  17 O2       -5.0377    -2.7791    -3.8639  O.2     1  <O>11      -0.2658
  18 C13      -5.3730    -4.6487    -2.3426  C.ar    1  <O>11       0.0496
  19 C14      -6.3412    -3.9696    -1.5676  C.ar    1  <O>11      -0.0487
  20 C15      -6.8971    -4.5606    -0.4326  C.ar    1  <O>11      -0.0610
  21 C16      -6.4923    -5.8332    -0.0458  C.ar    1  <O>11      -0.0611
  22 C17      -5.5316    -6.5145    -0.7950  C.ar    1  <O>11      -0.0521
  23 C18      -4.9649    -5.9361    -1.9522  C.ar    1  <O>11       0.0108
  24 C19       0.5076    -9.7064    -3.6927  C.ar    1  <O>11      -0.0370
  25 H1        2.7787    -8.1237    -5.7542  H       1  <O>11       0.0235
  26 H2        3.2580    -9.6509    -6.5329  H       1  <O>11       0.0235
  27 H3        4.4188    -8.7708    -5.5101  H       1  <O>11       0.0235
  28 H4        3.4736   -10.7152    -4.3128  H       1  <O>11       0.0343
  29 H5        2.6899    -9.4976    -2.3100  H       1  <O>11       0.0235
  30 H6        2.4477    -8.0344    -3.2943  H       1  <O>11       0.0235
  31 H7        4.0878    -8.6814    -3.0501  H       1  <O>11       0.0235
  32 H8       -2.0337   -10.1545    -2.1763  H       1  <O>11       0.1548
  33 H9       -3.0075    -7.8005    -1.2561  H       1  <O>11       0.0423
  34 H10      -4.2705    -8.6286    -2.1982  H       1  <O>11       0.0423
  35 H11      -3.4990    -4.3562    -5.0908  H       1  <O>11       0.1921
  36 H12       1.7997   -11.2946    -6.3554  H       1  <O>11       0.0620
  37 H13      -0.5423   -11.8676    -6.6776  H       1  <O>11       0.0618
  38 H14      -2.2191   -11.0699    -5.1082  H       1  <O>11       0.0636
  39 H15      -6.6413    -3.0223    -1.8458  H       1  <O>11       0.0625
  40 H16      -7.6073    -4.0541     0.1187  H       1  <O>11       0.0618
  41 H17      -6.9013    -6.2732     0.7933  H       1  <O>11       0.0618
  42 H18      -5.2306    -7.4562    -0.4985  H       1  <O>11       0.0624
  43 H19       0.7910    -9.1294    -2.8853  H       1  <O>11       0.0639
@<TRIPOS>BOND
     1     1     2    1
     2     2     3    1
     3     2     4    1
     4     4     5   ar
     5     5     6   ar
     6     6     7   ar
     7     7     8   ar
     8     8     9    1
     9     9    10   am
    10    10    11    2
    11    10    12    1
    12    12    13    1
    13    13    14   ar
    14    14    15   ar
    15    15    16   ar
    16    16    17    2
    17    16    18   ar
    18    18    19   ar
    19    19    20   ar
    20    20    21   ar
    21    21    22   ar
    22    22    23   ar
    23    13    23   ar
    24    18    23   ar
    25     8    24   ar
    26     4    24   ar
    27     1    25    1
    28     1    26    1
    29     1    27    1
    30     2    28    1
    31     3    29    1
    32     3    30    1
    33     3    31    1
    34     9    32    1
    35    12    33    1
    36    12    34    1
    37    15    35    1
    38     5    36    1
    39     6    37    1
    40     7    38    1
    41    19    39    1
    42    20    40    1
    43    21    41    1
    44    22    42    1
    45    24    43    1
@<TRIPOS>MOLECULE
mol18_1_21
 43 45 0 0 0
SMALL
USER_CHARGES
****
VDW energy = -118.90
@<TRIPOS>ATOM
   1 C1        3.3691    -9.0331    -5.6418  C.3     1  <O>11      -0.0586
   2 C2        2.8832    -9.8059    -4.4252  C.3     1  <O>11      -0.0215
   3 C3        3.0381    -8.9437    -3.1818  C.3     1  <O>11      -0.0586
   4 C4        1.4620   -10.1610    -4.6040  C.ar    1  <O>11      -0.0430
   5 C5        1.0870   -10.9543    -5.6911  C.ar    1  <O>11      -0.0582
   6 C6       -0.2603   -11.2847    -5.8741  C.ar    1  <O>11      -0.0597
   7 C7       -1.2250   -10.8279    -4.9726  C.ar    1  <O>11      -0.0405
   8 C8       -0.8338   -10.0400    -3.8845  C.ar    1  <O>11       0.0337
   9 N1       -1.7937    -9.5914    -2.9927  N.am    1  <O>11      -0.2852
  10 C9       -2.1177   -10.3472    -1.8982  C.2     1  <O>11       0.2231
  11 O1       -1.5584   -11.4170    -1.7067  O.2     1  <O>11      -0.2751
  12 C10      -3.1519    -9.8636    -0.9374  C.3     1  <O>11       0.0688
  13 C11      -3.3154   -10.8580     0.1546  C.ar    1  <O>11       0.0780
  14 N2       -2.5447   -12.0287     0.1543  N.ar    1  <O>11      -0.1748
  15 N3       -2.7548   -12.9902     1.0798  N.ar    1  <O>11      -0.2425
  16 C12      -3.7130   -12.8020     2.0212  C.ar    1  <O>11       0.2725
  17 O2       -3.9481   -13.8808     2.8937  O.2     1  <O>11      -0.2658
  18 C13      -4.4535   -11.6184     2.1534  C.ar    1  <O>11       0.0496
  19 C14      -5.4123   -11.3968     3.1685  C.ar    1  <O>11      -0.0487
  20 C15      -6.1383   -10.2068     3.2245  C.ar    1  <O>11      -0.0610
  21 C16      -5.9279    -9.2217     2.2662  C.ar    1  <O>11      -0.0611
  22 C17      -4.9909    -9.4272     1.2523  C.ar    1  <O>11      -0.0521
  23 C18      -4.2398   -10.6215     1.1853  C.ar    1  <O>11       0.0108
  24 C19       0.5076    -9.7064    -3.6927  C.ar    1  <O>11      -0.0370
  25 H1        2.7787    -8.1237    -5.7542  H       1  <O>11       0.0235
  26 H2        3.2580    -9.6509    -6.5329  H       1  <O>11       0.0235
  27 H3        4.4188    -8.7708    -5.5101  H       1  <O>11       0.0235
  28 H4        3.4736   -10.7152    -4.3128  H       1  <O>11       0.0343
  29 H5        2.6899    -9.4976    -2.3100  H       1  <O>11       0.0235
  30 H6        2.4477    -8.0344    -3.2943  H       1  <O>11       0.0235
  31 H7        4.0878    -8.6814    -3.0501  H       1  <O>11       0.0235
  32 H8       -2.2603    -8.6981    -3.1527  H       1  <O>11       0.1548
  33 H9       -4.1006    -9.7369    -1.4586  H       1  <O>11       0.0423
  34 H10      -2.8384    -8.9085    -0.5158  H       1  <O>11       0.0423
  35 H11      -2.2049   -13.8374     1.0716  H       1  <O>11       0.1921
  36 H12       1.7997   -11.2946    -6.3554  H       1  <O>11       0.0620
  37 H13      -0.5423   -11.8676    -6.6776  H       1  <O>11       0.0618
  38 H14      -2.2191   -11.0699    -5.1082  H       1  <O>11       0.0636
  39 H15      -5.5776   -12.1267     3.8792  H       1  <O>11       0.0625
  40 H16      -6.8301   -10.0581     3.9756  H       1  <O>11       0.0618
  41 H17      -6.4634    -8.3403     2.3045  H       1  <O>11       0.0618
  42 H18      -4.8445    -8.6947     0.5402  H       1  <O>11       0.0624
  43 H19       0.7910    -9.1294    -2.8853  H       1  <O>11       0.0639
@<TRIPOS>BOND
     1     1     2    1
     2     2     3    1
     3     2     4    1
     4     4     5   ar
     5     5     6   ar
     6     6     7   ar
     7     7     8   ar
     8     8     9    1
     9     9    10   am
    10    10    11    2
    11    10    12    1
    12    12    13    1
    13    13    14   ar
    14    14    15   ar
    15    15    16   ar
    16    16    17    2
    17    16    18   ar
    18    18    19   ar
    19    19    20   ar
    20    20    21   ar
    21    21    22   ar
    22    22    23   ar
    23    13    23   ar
    24    18    23   ar
    25     8    24   ar
    26     4    24   ar
    27     1    25    1
    28     1    26    1
    29     1    27    1
    30     2    28    1
    31     3    29    1
    32     3    30    1
    33     3    31    1
    34     9    32    1
    35    12    33    1
    36    12    34    1
    37    15    35    1
    38     5    36    1
    39     6    37    1
    40     7    38    1
    41    19    39    1
    42    20    40    1
    43    21    41    1
    44    22    42    1
    45    24    43    1
@<TRIPOS>MOLECULE
mol18_1_22
 43 45 0 0 0
SMALL
USER_CHARGES
****
VDW energy = -118.85
@<TRIPOS>ATOM
   1 C1        3.3691    -9.0331    -5.6418  C.3     1  <O>11      -0.0586
   2 C2        2.8832    -9.8059    -4.4252  C.3     1  <O>11      -0.0215
   3 C3        3.0381    -8.9437    -3.1818  C.3     1  <O>11      -0.0586
   4 C4        1.4620   -10.1610    -4.6040  C.ar    1  <O>11      -0.0430
   5 C5        0.8050   -10.8780    -3.6010  C.ar    1  <O>11      -0.0582
   6 C6       -0.5390   -11.2290    -3.7690  C.ar    1  <O>11      -0.0597
   7 C7       -1.2220   -10.8610    -4.9310  C.ar    1  <O>11      -0.0405
   8 C8       -0.5530   -10.1370    -5.9240  C.ar    1  <O>11       0.0337
   9 N1       -1.2350    -9.7730    -7.0730  N.am    1  <O>11      -0.2852
  10 C9       -1.9022    -8.5787    -7.1237  C.2     1  <O>11       0.2231
  11 O1       -1.8943    -7.8324    -6.1556  O.2     1  <O>11      -0.2751
  12 C10      -2.6368    -8.1866    -8.3619  C.3     1  <O>11       0.0688
  13 C11      -3.2690    -6.8568    -8.1612  C.ar    1  <O>11       0.0780
  14 N2       -3.1119    -6.1858    -6.9407  N.ar    1  <O>11      -0.1748
  15 N3       -3.7652    -5.0271    -6.7044  N.ar    1  <O>11      -0.2425
  16 C12      -4.5651    -4.5114    -7.6707  C.ar    1  <O>11       0.2725
  17 O2       -5.2919    -3.3568    -7.3259  O.2     1  <O>11      -0.2658
  18 C13      -4.6937    -5.0647    -8.9530  C.ar    1  <O>11       0.0496
  19 C14      -5.4816    -4.4982    -9.9813  C.ar    1  <O>11      -0.0487
  20 C15      -5.5919    -5.1175   -11.2265  C.ar    1  <O>11      -0.0610
  21 C16      -4.9266    -6.3147   -11.4658  C.ar    1  <O>11      -0.0611
  22 C17      -4.1509    -6.8919   -10.4592  C.ar    1  <O>11      -0.0521
  23 C18      -4.0199    -6.2746    -9.1955  C.ar    1  <O>11       0.0108
  24 C19       0.7870    -9.7810    -5.7650  C.ar    1  <O>11      -0.0370
  25 H1        2.7787    -8.1237    -5.7542  H       1  <O>11       0.0235
  26 H2        3.2580    -9.6509    -6.5329  H       1  <O>11       0.0235
  27 H3        4.4188    -8.7708    -5.5101  H       1  <O>11       0.0235
  28 H4        3.4736   -10.7152    -4.3128  H       1  <O>11       0.0343
  29 H5        2.6899    -9.4976    -2.3100  H       1  <O>11       0.0235
  30 H6        2.4477    -8.0344    -3.2943  H       1  <O>11       0.0235
  31 H7        4.0878    -8.6814    -3.0501  H       1  <O>11       0.0235
  32 H8       -1.2412   -10.3961    -7.8811  H       1  <O>11       0.1548
  33 H9       -3.4075    -8.9266    -8.5763  H       1  <O>11       0.0423
  34 H10      -1.9392    -8.1354    -9.1979  H       1  <O>11       0.0423
  35 H11      -3.6583    -4.5504    -5.8203  H       1  <O>11       0.1921
  36 H12       1.3081   -11.1472    -2.7411  H       1  <O>11       0.0620
  37 H13      -1.0274   -11.7615    -3.0322  H       1  <O>11       0.0618
  38 H14      -2.2128   -11.1213    -5.0560  H       1  <O>11       0.0636
  39 H15      -5.9829    -3.6130    -9.8079  H       1  <O>11       0.0625
  40 H16      -6.1660    -4.6878   -11.9686  H       1  <O>11       0.0618
  41 H17      -5.0062    -6.7756   -12.3857  H       1  <O>11       0.0618
  42 H18      -3.6652    -7.7842   -10.6411  H       1  <O>11       0.0624
  43 H19       1.2738    -9.2423    -6.4984  H       1  <O>11       0.0639
@<TRIPOS>BOND
     1     1     2    1
     2     2     3    1
     3     2     4    1
     4     4     5   ar
     5     5     6   ar
     6     6     7   ar
     7     7     8   ar
     8     8     9    1
     9     9    10   am
    10    10    11    2
    11    10    12    1
    12    12    13    1
    13    13    14   ar
    14    14    15   ar
    15    15    16   ar
    16    16    17    2
    17    16    18   ar
    18    18    19   ar
    19    19    20   ar
    20    20    21   ar
    21    21    22   ar
    22    22    23   ar
    23    13    23   ar
    24    18    23   ar
    25     8    24   ar
    26     4    24   ar
    27     1    25    1
    28     1    26    1
    29     1    27    1
    30     2    28    1
    31     3    29    1
    32     3    30    1
    33     3    31    1
    34     9    32    1
    35    12    33    1
    36    12    34    1
    37    15    35    1
    38     5    36    1
    39     6    37    1
    40     7    38    1
    41    19    39    1
    42    20    40    1
    43    21    41    1
    44    22    42    1
    45    24    43    1
@<TRIPOS>MOLECULE
mol18_1_23
 43 45 0 0 0
SMALL
USER_CHARGES
****
VDW energy = -118.36
@<TRIPOS>ATOM
   1 C1        3.3691    -9.0331    -5.6418  C.3     1  <O>11      -0.0586
   2 C2        2.8832    -9.8059    -4.4252  C.3     1  <O>11      -0.0215
   3 C3        3.0381    -8.9437    -3.1818  C.3     1  <O>11      -0.0586
   4 C4        1.4620   -10.1610    -4.6040  C.ar    1  <O>11      -0.0430
   5 C5        0.8050   -10.8780    -3.6010  C.ar    1  <O>11      -0.0582
   6 C6       -0.5390   -11.2290    -3.7690  C.ar    1  <O>11      -0.0597
   7 C7       -1.2220   -10.8610    -4.9310  C.ar    1  <O>11      -0.0405
   8 C8       -0.5530   -10.1370    -5.9240  C.ar    1  <O>11       0.0337
   9 N1       -1.2350    -9.7730    -7.0730  N.am    1  <O>11      -0.2852
  10 C9       -1.9022    -8.5787    -7.1237  C.2     1  <O>11       0.2231
  11 O1       -2.5060    -8.2582    -8.1370  O.2     1  <O>11      -0.2751
  12 C10      -1.8944    -7.6691    -5.9408  C.3     1  <O>11       0.0688
  13 C11      -2.6861    -6.4501    -6.2496  C.ar    1  <O>11       0.0780
  14 N2       -3.2951    -6.3121    -7.5044  N.ar    1  <O>11      -0.1748
  15 N3       -3.9290    -5.1667    -7.8385  N.ar    1  <O>11      -0.2425
  16 C12      -3.9822    -4.1547    -6.9371  C.ar    1  <O>11       0.2725
  17 O2       -4.5701    -2.9560    -7.3818  O.2     1  <O>11      -0.2658
  18 C13      -3.4905    -4.2515    -5.6273  C.ar    1  <O>11       0.0496
  19 C14      -3.5956    -3.2191    -4.6669  C.ar    1  <O>11      -0.0487
  20 C15      -3.0559    -3.3683    -3.3890  C.ar    1  <O>11      -0.0610
  21 C16      -2.3958    -4.5437    -3.0490  C.ar    1  <O>11      -0.0611
  22 C17      -2.2759    -5.5699    -3.9876  C.ar    1  <O>11      -0.0521
  23 C18      -2.8242    -5.4406    -5.2829  C.ar    1  <O>11       0.0108
  24 C19       0.7870    -9.7810    -5.7650  C.ar    1  <O>11      -0.0370
  25 H1        2.7787    -8.1237    -5.7542  H       1  <O>11       0.0235
  26 H2        3.2580    -9.6509    -6.5329  H       1  <O>11       0.0235
  27 H3        4.4188    -8.7708    -5.5101  H       1  <O>11       0.0235
  28 H4        3.4736   -10.7152    -4.3128  H       1  <O>11       0.0343
  29 H5        2.6899    -9.4976    -2.3100  H       1  <O>11       0.0235
  30 H6        2.4477    -8.0344    -3.2943  H       1  <O>11       0.0235
  31 H7        4.0878    -8.6814    -3.0501  H       1  <O>11       0.0235
  32 H8       -1.2412   -10.3961    -7.8811  H       1  <O>11       0.1548
  33 H9       -0.8682    -7.3864    -5.7070  H       1  <O>11       0.0423
  34 H10      -2.3343    -8.1815    -5.0852  H       1  <O>11       0.0423
  35 H11      -4.3586    -5.0658    -8.7471  H       1  <O>11       0.1921
  36 H12       1.3081   -11.1472    -2.7411  H       1  <O>11       0.0620
  37 H13      -1.0274   -11.7615    -3.0322  H       1  <O>11       0.0618
  38 H14      -2.2128   -11.1213    -5.0560  H       1  <O>11       0.0636
  39 H15      -4.0789    -2.3418    -4.9150  H       1  <O>11       0.0625
  40 H16      -3.1466    -2.6077    -2.6975  H       1  <O>11       0.0618
  41 H17      -1.9952    -4.6573    -2.1048  H       1  <O>11       0.0618
  42 H18      -1.7787    -6.4371    -3.7310  H       1  <O>11       0.0624
  43 H19       1.2738    -9.2423    -6.4984  H       1  <O>11       0.0639
@<TRIPOS>BOND
     1     1     2    1
     2     2     3    1
     3     2     4    1
     4     4     5   ar
     5     5     6   ar
     6     6     7   ar
     7     7     8   ar
     8     8     9    1
     9     9    10   am
    10    10    11    2
    11    10    12    1
    12    12    13    1
    13    13    14   ar
    14    14    15   ar
    15    15    16   ar
    16    16    17    2
    17    16    18   ar
    18    18    19   ar
    19    19    20   ar
    20    20    21   ar
    21    21    22   ar
    22    22    23   ar
    23    13    23   ar
    24    18    23   ar
    25     8    24   ar
    26     4    24   ar
    27     1    25    1
    28     1    26    1
    29     1    27    1
    30     2    28    1
    31     3    29    1
    32     3    30    1
    33     3    31    1
    34     9    32    1
    35    12    33    1
    36    12    34    1
    37    15    35    1
    38     5    36    1
    39     6    37    1
    40     7    38    1
    41    19    39    1
    42    20    40    1
    43    21    41    1
    44    22    42    1
    45    24    43    1
@<TRIPOS>MOLECULE
mol18_1_24
 43 45 0 0 0
SMALL
USER_CHARGES
****
VDW energy = -116.84
@<TRIPOS>ATOM
   1 C1        3.3691    -9.0331    -5.6418  C.3     1  <O>11      -0.0586
   2 C2        2.8832    -9.8059    -4.4252  C.3     1  <O>11      -0.0215
   3 C3        3.0381    -8.9437    -3.1818  C.3     1  <O>11      -0.0586
   4 C4        1.4620   -10.1610    -4.6040  C.ar    1  <O>11      -0.0430
   5 C5        0.8050   -10.8780    -3.6010  C.ar    1  <O>11      -0.0582
   6 C6       -0.5390   -11.2290    -3.7690  C.ar    1  <O>11      -0.0597
   7 C7       -1.2220   -10.8610    -4.9310  C.ar    1  <O>11      -0.0405
   8 C8       -0.5530   -10.1370    -5.9240  C.ar    1  <O>11       0.0337
   9 N1       -1.2350    -9.7730    -7.0730  N.am    1  <O>11      -0.2852
  10 C9       -1.7751   -10.7359    -7.8825  C.2     1  <O>11       0.2231
  11 O1       -1.6573   -11.9169    -7.5903  O.2     1  <O>11      -0.2751
  12 C10      -2.5100   -10.3434    -9.1204  C.3     1  <O>11       0.0688
  13 C11      -2.9949   -11.5642    -9.8152  C.ar    1  <O>11       0.0780
  14 N2       -2.7301   -12.8288    -9.2719  N.ar    1  <O>11      -0.1748
  15 N3       -3.0714   -13.9505    -9.9431  N.ar    1  <O>11      -0.2425
  16 C12      -3.6889   -13.8380   -11.1455  C.ar    1  <O>11       0.2725
  17 O2       -3.9287   -15.0403   -11.8363  O.2     1  <O>11      -0.2658
  18 C13      -4.0818   -12.6150   -11.7081  C.ar    1  <O>11       0.0496
  19 C14      -4.7767   -12.4974   -12.9338  C.ar    1  <O>11      -0.0487
  20 C15      -5.1104   -11.2467   -13.4540  C.ar    1  <O>11      -0.0610
  21 C16      -4.7507   -10.0926   -12.7671  C.ar    1  <O>11      -0.0611
  22 C17      -4.0573   -10.1902   -11.5597  C.ar    1  <O>11      -0.0521
  23 C18      -3.7193   -11.4479   -11.0129  C.ar    1  <O>11       0.0108
  24 C19       0.7870    -9.7810    -5.7650  C.ar    1  <O>11      -0.0370
  25 H1        2.7787    -8.1237    -5.7542  H       1  <O>11       0.0235
  26 H2        3.2580    -9.6509    -6.5329  H       1  <O>11       0.0235
  27 H3        4.4188    -8.7708    -5.5101  H       1  <O>11       0.0235
  28 H4        3.4736   -10.7152    -4.3128  H       1  <O>11       0.0343
  29 H5        2.6899    -9.4976    -2.3100  H       1  <O>11       0.0235
  30 H6        2.4477    -8.0344    -3.2943  H       1  <O>11       0.0235
  31 H7        4.0878    -8.6814    -3.0501  H       1  <O>11       0.0235
  32 H8       -1.3334    -8.7870    -7.3166  H       1  <O>11       0.1548
  33 H9       -1.8409    -9.7914    -9.7802  H       1  <O>11       0.0423
  34 H10      -3.3596    -9.7142    -8.8550  H       1  <O>11       0.0423
  35 H11      -2.8706   -14.8608    -9.5541  H       1  <O>11       0.1921
  36 H12       1.3081   -11.1472    -2.7411  H       1  <O>11       0.0620
  37 H13      -1.0274   -11.7615    -3.0322  H       1  <O>11       0.0618
  38 H14      -2.2128   -11.1213    -5.0560  H       1  <O>11       0.0636
  39 H15      -5.0411   -13.3500   -13.4516  H       1  <O>11       0.0625
  40 H16      -5.6234   -11.1782   -14.3468  H       1  <O>11       0.0618
  41 H17      -4.9957    -9.1658   -13.1492  H       1  <O>11       0.0618
  42 H18      -3.7872    -9.3295   -11.0583  H       1  <O>11       0.0624
  43 H19       1.2738    -9.2423    -6.4984  H       1  <O>11       0.0639
@<TRIPOS>BOND
     1     1     2    1
     2     2     3    1
     3     2     4    1
     4     4     5   ar
     5     5     6   ar
     6     6     7   ar
     7     7     8   ar
     8     8     9    1
     9     9    10   am
    10    10    11    2
    11    10    12    1
    12    12    13    1
    13    13    14   ar
    14    14    15   ar
    15    15    16   ar
    16    16    17    2
    17    16    18   ar
    18    18    19   ar
    19    19    20   ar
    20    20    21   ar
    21    21    22   ar
    22    22    23   ar
    23    13    23   ar
    24    18    23   ar
    25     8    24   ar
    26     4    24   ar
    27     1    25    1
    28     1    26    1
    29     1    27    1
    30     2    28    1
    31     3    29    1
    32     3    30    1
    33     3    31    1
    34     9    32    1
    35    12    33    1
    36    12    34    1
    37    15    35    1
    38     5    36    1
    39     6    37    1
    40     7    38    1
    41    19    39    1
    42    20    40    1
    43    21    41    1
    44    22    42    1
    45    24    43    1
@<TRIPOS>MOLECULE
mol18_1_25
 43 45 0 0 0
SMALL
USER_CHARGES
****
VDW energy = -116.83
@<TRIPOS>ATOM
   1 C1        3.3691    -9.0331    -5.6418  C.3     1  <O>11      -0.0586
   2 C2        2.8832    -9.8059    -4.4252  C.3     1  <O>11      -0.0215
   3 C3        3.0381    -8.9437    -3.1818  C.3     1  <O>11      -0.0586
   4 C4        1.4620   -10.1610    -4.6040  C.ar    1  <O>11      -0.0430
   5 C5        0.8050   -10.8780    -3.6010  C.ar    1  <O>11      -0.0582
   6 C6       -0.5390   -11.2290    -3.7690  C.ar    1  <O>11      -0.0597
   7 C7       -1.2220   -10.8610    -4.9310  C.ar    1  <O>11      -0.0405
   8 C8       -0.5530   -10.1370    -5.9240  C.ar    1  <O>11       0.0337
   9 N1       -1.2350    -9.7730    -7.0730  N.am    1  <O>11      -0.2852
  10 C9       -2.3467    -8.9789    -6.9866  C.2     1  <O>11       0.2231
  11 O1       -2.7364    -8.5892    -5.8955  O.2     1  <O>11      -0.2751
  12 C10      -3.0814    -8.5867    -8.2247  C.3     1  <O>11       0.0688
  13 C11      -4.2394    -7.7293    -7.8616  C.ar    1  <O>11       0.0780
  14 N2       -4.4819    -7.4157    -6.5172  N.ar    1  <O>11      -0.1748
  15 N3       -5.5878    -6.7263    -6.1609  N.ar    1  <O>11      -0.2425
  16 C12      -6.4553    -6.3268    -7.1239  C.ar    1  <O>11       0.2725
  17 O2       -7.6338    -5.7000    -6.6782  O.2     1  <O>11      -0.2658
  18 C13      -6.2334    -6.5089    -8.4966  C.ar    1  <O>11       0.0496
  19 C14      -7.1073    -6.0430    -9.5057  C.ar    1  <O>11      -0.0487
  20 C15      -6.8433    -6.2859   -10.8539  C.ar    1  <O>11      -0.0610
  21 C16      -5.7098    -7.0034   -11.2192  C.ar    1  <O>11      -0.0611
  22 C17      -4.8405    -7.4776   -10.2354  C.ar    1  <O>11      -0.0521
  23 C18      -5.0865    -7.2332    -8.8662  C.ar    1  <O>11       0.0108
  24 C19       0.7870    -9.7810    -5.7650  C.ar    1  <O>11      -0.0370
  25 H1        2.7787    -8.1237    -5.7542  H       1  <O>11       0.0235
  26 H2        3.2580    -9.6509    -6.5329  H       1  <O>11       0.0235
  27 H3        4.4188    -8.7708    -5.5101  H       1  <O>11       0.0235
  28 H4        3.4736   -10.7152    -4.3128  H       1  <O>11       0.0343
  29 H5        2.6899    -9.4976    -2.3100  H       1  <O>11       0.0235
  30 H6        2.4477    -8.0344    -3.2943  H       1  <O>11       0.0235
  31 H7        4.0878    -8.6814    -3.0501  H       1  <O>11       0.0235
  32 H8       -0.9093   -10.0982    -7.9837  H       1  <O>11       0.1548
  33 H9       -3.4376    -9.4817    -8.7343  H       1  <O>11       0.0423
  34 H10      -2.4126    -8.0343    -8.8849  H       1  <O>11       0.0423
  35 H11      -5.7656    -6.5101    -5.1903  H       1  <O>11       0.1921
  36 H12       1.3081   -11.1472    -2.7411  H       1  <O>11       0.0620
  37 H13      -1.0274   -11.7615    -3.0322  H       1  <O>11       0.0618
  38 H14      -2.2128   -11.1213    -5.0560  H       1  <O>11       0.0636
  39 H15      -7.9536    -5.5152    -9.2408  H       1  <O>11       0.0625
  40 H16      -7.4880    -5.9336   -11.5786  H       1  <O>11       0.0618
  41 H17      -5.5116    -7.1851   -12.2155  H       1  <O>11       0.0618
  42 H18      -4.0045    -8.0154   -10.5129  H       1  <O>11       0.0624
  43 H19       1.2738    -9.2423    -6.4984  H       1  <O>11       0.0639
@<TRIPOS>BOND
     1     1     2    1
     2     2     3    1
     3     2     4    1
     4     4     5   ar
     5     5     6   ar
     6     6     7   ar
     7     7     8   ar
     8     8     9    1
     9     9    10   am
    10    10    11    2
    11    10    12    1
    12    12    13    1
    13    13    14   ar
    14    14    15   ar
    15    15    16   ar
    16    16    17    2
    17    16    18   ar
    18    18    19   ar
    19    19    20   ar
    20    20    21   ar
    21    21    22   ar
    22    22    23   ar
    23    13    23   ar
    24    18    23   ar
    25     8    24   ar
    26     4    24   ar
    27     1    25    1
    28     1    26    1
    29     1    27    1
    30     2    28    1
    31     3    29    1
    32     3    30    1
    33     3    31    1
    34     9    32    1
    35    12    33    1
    36    12    34    1
    37    15    35    1
    38     5    36    1
    39     6    37    1
    40     7    38    1
    41    19    39    1
    42    20    40    1
    43    21    41    1
    44    22    42    1
    45    24    43    1
@<TRIPOS>MOLECULE
mol18_1_26
 43 45 0 0 0
SMALL
USER_CHARGES
****
VDW energy = -114.33
@<TRIPOS>ATOM
   1 C1        3.3691    -9.0331    -5.6418  C.3     1  <O>11      -0.0586
   2 C2        2.8832    -9.8059    -4.4252  C.3     1  <O>11      -0.0215
   3 C3        3.0381    -8.9437    -3.1818  C.3     1  <O>11      -0.0586
   4 C4        1.4620   -10.1610    -4.6040  C.ar    1  <O>11      -0.0430
   5 C5        1.0870   -10.9543    -5.6911  C.ar    1  <O>11      -0.0582
   6 C6       -0.2603   -11.2847    -5.8741  C.ar    1  <O>11      -0.0597
   7 C7       -1.2250   -10.8279    -4.9726  C.ar    1  <O>11      -0.0405
   8 C8       -0.8338   -10.0400    -3.8845  C.ar    1  <O>11       0.0337
   9 N1       -1.7937    -9.5914    -2.9927  N.am    1  <O>11      -0.2852
  10 C9       -2.1177   -10.3472    -1.8982  C.2     1  <O>11       0.2231
  11 O1       -1.5584   -11.4170    -1.7067  O.2     1  <O>11      -0.2751
  12 C10      -3.1519    -9.8636    -0.9374  C.3     1  <O>11       0.0688
  13 C11      -4.2663    -9.2297    -1.6886  C.ar    1  <O>11       0.0780
  14 N2       -4.2195    -9.1687    -3.0882  N.ar    1  <O>11      -0.1748
  15 N3       -5.1714    -8.5042    -3.7794  N.ar    1  <O>11      -0.2425
  16 C12      -6.1840    -7.9081    -3.1019  C.ar    1  <O>11       0.2725
  17 O2       -7.0865    -7.1511    -3.8719  O.2     1  <O>11      -0.2658
  18 C13      -6.3597    -8.0107    -1.7144  C.ar    1  <O>11       0.0496
  19 C14      -7.4455    -7.4389    -1.0122  C.ar    1  <O>11      -0.0487
  20 C15      -7.5439    -7.5514     0.3749  C.ar    1  <O>11      -0.0610
  21 C16      -6.5591    -8.2275     1.0864  C.ar    1  <O>11      -0.0611
  22 C17      -5.4761    -8.7911     0.4098  C.ar    1  <O>11      -0.0521
  23 C18      -5.3646    -8.6956    -0.9950  C.ar    1  <O>11       0.0108
  24 C19       0.5076    -9.7064    -3.6927  C.ar    1  <O>11      -0.0370
  25 H1        2.7787    -8.1237    -5.7542  H       1  <O>11       0.0235
  26 H2        3.2580    -9.6509    -6.5329  H       1  <O>11       0.0235
  27 H3        4.4188    -8.7708    -5.5101  H       1  <O>11       0.0235
  28 H4        3.4736   -10.7152    -4.3128  H       1  <O>11       0.0343
  29 H5        2.6899    -9.4976    -2.3100  H       1  <O>11       0.0235
  30 H6        2.4477    -8.0344    -3.2943  H       1  <O>11       0.0235
  31 H7        4.0878    -8.6814    -3.0501  H       1  <O>11       0.0235
  32 H8       -2.2603    -8.6981    -3.1527  H       1  <O>11       0.1548
  33 H9       -2.7068    -9.1329    -0.2624  H       1  <O>11       0.0423
  34 H10      -3.5346   -10.7056    -0.3606  H       1  <O>11       0.0423
  35 H11      -5.1302    -8.4531    -4.7873  H       1  <O>11       0.1921
  36 H12       1.7997   -11.2946    -6.3554  H       1  <O>11       0.0620
  37 H13      -0.5423   -11.8676    -6.6776  H       1  <O>11       0.0618
  38 H14      -2.2191   -11.0699    -5.1082  H       1  <O>11       0.0636
  39 H15      -8.1765    -6.9305    -1.5338  H       1  <O>11       0.0625
  40 H16      -8.3461    -7.1337     0.8719  H       1  <O>11       0.0618
  41 H17      -6.6287    -8.3124     2.1125  H       1  <O>11       0.0618
  42 H18      -4.7451    -9.2858     0.9447  H       1  <O>11       0.0624
  43 H19       0.7910    -9.1294    -2.8853  H       1  <O>11       0.0639
@<TRIPOS>BOND
     1     1     2    1
     2     2     3    1
     3     2     4    1
     4     4     5   ar
     5     5     6   ar
     6     6     7   ar
     7     7     8   ar
     8     8     9    1
     9     9    10   am
    10    10    11    2
    11    10    12    1
    12    12    13    1
    13    13    14   ar
    14    14    15   ar
    15    15    16   ar
    16    16    17    2
    17    16    18   ar
    18    18    19   ar
    19    19    20   ar
    20    20    21   ar
    21    21    22   ar
    22    22    23   ar
    23    13    23   ar
    24    18    23   ar
    25     8    24   ar
    26     4    24   ar
    27     1    25    1
    28     1    26    1
    29     1    27    1
    30     2    28    1
    31     3    29    1
    32     3    30    1
    33     3    31    1
    34     9    32    1
    35    12    33    1
    36    12    34    1
    37    15    35    1
    38     5    36    1
    39     6    37    1
    40     7    38    1
    41    19    39    1
    42    20    40    1
    43    21    41    1
    44    22    42    1
    45    24    43    1
@<TRIPOS>MOLECULE
mol18_1_27
 43 45 0 0 0
SMALL
USER_CHARGES
****
VDW energy = -112.54
@<TRIPOS>ATOM
   1 C1        3.3691    -9.0331    -5.6418  C.3     1  <O>11      -0.0586
   2 C2        2.8832    -9.8059    -4.4252  C.3     1  <O>11      -0.0215
   3 C3        3.0381    -8.9437    -3.1818  C.3     1  <O>11      -0.0586
   4 C4        1.4620   -10.1610    -4.6040  C.ar    1  <O>11      -0.0430
   5 C5        1.0870   -10.9543    -5.6911  C.ar    1  <O>11      -0.0582
   6 C6       -0.2603   -11.2847    -5.8741  C.ar    1  <O>11      -0.0597
   7 C7       -1.2250   -10.8279    -4.9726  C.ar    1  <O>11      -0.0405
   8 C8       -0.8338   -10.0400    -3.8845  C.ar    1  <O>11       0.0337
   9 N1       -1.7937    -9.5914    -2.9927  N.am    1  <O>11      -0.2852
  10 C9       -2.8191    -8.7981    -3.4325  C.2     1  <O>11       0.2231
  11 O1       -3.6652    -8.4003    -2.6451  O.2     1  <O>11      -0.2751
  12 C10      -2.9024    -8.4169    -4.8727  C.3     1  <O>11       0.0688
  13 C11      -4.0959    -7.5582    -5.0884  C.ar    1  <O>11       0.0780
  14 N2       -4.9277    -7.2343    -4.0078  N.ar    1  <O>11      -0.1748
  15 N3       -6.0720    -6.5435    -4.2042  N.ar    1  <O>11      -0.2425
  16 C12      -6.3997    -6.1529    -5.4611  C.ar    1  <O>11       0.2725
  17 O2       -7.6497    -5.5242    -5.6110  O.2     1  <O>11      -0.2658
  18 C13      -5.5728    -6.3457    -6.5773  C.ar    1  <O>11       0.0496
  19 C14      -5.8848    -5.8892    -7.8785  C.ar    1  <O>11      -0.0487
  20 C15      -5.0319    -6.1425    -8.9531  C.ar    1  <O>11      -0.0610
  21 C16      -3.8590    -6.8613    -8.7517  C.ar    1  <O>11      -0.0611
  22 C17      -3.5395    -7.3264    -7.4750  C.ar    1  <O>11      -0.0521
  23 C18      -4.3860    -7.0714    -6.3735  C.ar    1  <O>11       0.0108
  24 C19       0.5076    -9.7064    -3.6927  C.ar    1  <O>11      -0.0370
  25 H1        2.7787    -8.1237    -5.7542  H       1  <O>11       0.0235
  26 H2        3.2580    -9.6509    -6.5329  H       1  <O>11       0.0235
  27 H3        4.4188    -8.7708    -5.5101  H       1  <O>11       0.0235
  28 H4        3.4736   -10.7152    -4.3128  H       1  <O>11       0.0343
  29 H5        2.6899    -9.4976    -2.3100  H       1  <O>11       0.0235
  30 H6        2.4477    -8.0344    -3.2943  H       1  <O>11       0.0235
  31 H7        4.0878    -8.6814    -3.0501  H       1  <O>11       0.0235
  32 H8       -1.7354    -9.8512    -2.0077  H       1  <O>11       0.1548
  33 H9       -2.9871    -9.3165    -5.4820  H       1  <O>11       0.0423
  34 H10      -2.0039    -7.8689    -5.1564  H       1  <O>11       0.0423
  35 H11      -6.6750    -6.3198    -3.4253  H       1  <O>11       0.1921
  36 H12       1.7997   -11.2946    -6.3554  H       1  <O>11       0.0620
  37 H13      -0.5423   -11.8676    -6.6776  H       1  <O>11       0.0618
  38 H14      -2.2191   -11.0699    -5.1082  H       1  <O>11       0.0636
  39 H15      -6.7570    -5.3604    -8.0358  H       1  <O>11       0.0625
  40 H16      -5.2711    -5.7969    -9.8956  H       1  <O>11       0.0618
  41 H17      -3.2260    -7.0507    -9.5444  H       1  <O>11       0.0618
  42 H18      -2.6707    -7.8653    -7.3337  H       1  <O>11       0.0624
  43 H19       0.7910    -9.1294    -2.8853  H       1  <O>11       0.0639
@<TRIPOS>BOND
     1     1     2    1
     2     2     3    1
     3     2     4    1
     4     4     5   ar
     5     5     6   ar
     6     6     7   ar
     7     7     8   ar
     8     8     9    1
     9     9    10   am
    10    10    11    2
    11    10    12    1
    12    12    13    1
    13    13    14   ar
    14    14    15   ar
    15    15    16   ar
    16    16    17    2
    17    16    18   ar
    18    18    19   ar
    19    19    20   ar
    20    20    21   ar
    21    21    22   ar
    22    22    23   ar
    23    13    23   ar
    24    18    23   ar
    25     8    24   ar
    26     4    24   ar
    27     1    25    1
    28     1    26    1
    29     1    27    1
    30     2    28    1
    31     3    29    1
    32     3    30    1
    33     3    31    1
    34     9    32    1
    35    12    33    1
    36    12    34    1
    37    15    35    1
    38     5    36    1
    39     6    37    1
    40     7    38    1
    41    19    39    1
    42    20    40    1
    43    21    41    1
    44    22    42    1
    45    24    43    1
@<TRIPOS>MOLECULE
mol18_1_28
 43 45 0 0 0
SMALL
USER_CHARGES
****
VDW energy = -112.45
@<TRIPOS>ATOM
   1 C1        3.3691    -9.0331    -5.6418  C.3     1  <O>11      -0.0586
   2 C2        2.8832    -9.8059    -4.4252  C.3     1  <O>11      -0.0215
   3 C3        3.0381    -8.9437    -3.1818  C.3     1  <O>11      -0.0586
   4 C4        1.4620   -10.1610    -4.6040  C.ar    1  <O>11      -0.0430
   5 C5        0.8050   -10.8780    -3.6010  C.ar    1  <O>11      -0.0582
   6 C6       -0.5390   -11.2290    -3.7690  C.ar    1  <O>11      -0.0597
   7 C7       -1.2220   -10.8610    -4.9310  C.ar    1  <O>11      -0.0405
   8 C8       -0.5530   -10.1370    -5.9240  C.ar    1  <O>11       0.0337
   9 N1       -1.2350    -9.7730    -7.0730  N.am    1  <O>11      -0.2852
  10 C9       -1.7751   -10.7359    -7.8825  C.2     1  <O>11       0.2231
  11 O1       -2.3752   -10.4149    -8.8978  O.2     1  <O>11      -0.2751
  12 C10      -1.6289   -12.1776    -7.5267  C.3     1  <O>11       0.0688
  13 C11      -2.2966   -13.0116    -8.5595  C.ar    1  <O>11       0.0780
  14 N2       -2.9272   -12.3993    -9.6512  N.ar    1  <O>11      -0.1748
  15 N3       -3.6277   -13.1352   -10.5417  N.ar    1  <O>11      -0.2425
  16 C12      -3.7011   -14.4792   -10.3747  C.ar    1  <O>11       0.2725
  17 O2       -4.5255   -15.1742   -11.2789  O.2     1  <O>11      -0.2658
  18 C13      -3.0144   -15.1782    -9.3714  C.ar    1  <O>11       0.0496
  19 C14      -3.0425   -16.5846    -9.2293  C.ar    1  <O>11      -0.0487
  20 C15      -2.3614   -17.2158    -8.1881  C.ar    1  <O>11      -0.0610
  21 C16      -1.6483   -16.4571    -7.2668  C.ar    1  <O>11      -0.0611
  22 C17      -1.6165   -15.0668    -7.3876  C.ar    1  <O>11      -0.0521
  23 C18      -2.2921   -14.4111    -8.4406  C.ar    1  <O>11       0.0108
  24 C19       0.7870    -9.7810    -5.7650  C.ar    1  <O>11      -0.0370
  25 H1        2.7787    -8.1237    -5.7542  H       1  <O>11       0.0235
  26 H2        3.2580    -9.6509    -6.5329  H       1  <O>11       0.0235
  27 H3        4.4188    -8.7708    -5.5101  H       1  <O>11       0.0235
  28 H4        3.4736   -10.7152    -4.3128  H       1  <O>11       0.0343
  29 H5        2.6899    -9.4976    -2.3100  H       1  <O>11       0.0235
  30 H6        2.4477    -8.0344    -3.2943  H       1  <O>11       0.0235
  31 H7        4.0878    -8.6814    -3.0501  H       1  <O>11       0.0235
  32 H8       -1.3334    -8.7870    -7.3166  H       1  <O>11       0.1548
  33 H9       -2.0912   -12.3608    -6.5570  H       1  <O>11       0.0423
  34 H10      -0.5707   -12.4350    -7.4794  H       1  <O>11       0.0423
  35 H11      -4.0897   -12.6905   -11.3222  H       1  <O>11       0.1921
  36 H12       1.3081   -11.1472    -2.7411  H       1  <O>11       0.0620
  37 H13      -1.0274   -11.7615    -3.0322  H       1  <O>11       0.0618
  38 H14      -2.2128   -11.1213    -5.0560  H       1  <O>11       0.0636
  39 H15      -3.5752   -17.1530    -9.9062  H       1  <O>11       0.0625
  40 H16      -2.3868   -18.2439    -8.1020  H       1  <O>11       0.0618
  41 H17      -1.1435   -16.9207    -6.4954  H       1  <O>11       0.0618
  42 H18      -1.0909   -14.5090    -6.6964  H       1  <O>11       0.0624
  43 H19       1.2738    -9.2423    -6.4984  H       1  <O>11       0.0639
@<TRIPOS>BOND
     1     1     2    1
     2     2     3    1
     3     2     4    1
     4     4     5   ar
     5     5     6   ar
     6     6     7   ar
     7     7     8   ar
     8     8     9    1
     9     9    10   am
    10    10    11    2
    11    10    12    1
    12    12    13    1
    13    13    14   ar
    14    14    15   ar
    15    15    16   ar
    16    16    17    2
    17    16    18   ar
    18    18    19   ar
    19    19    20   ar
    20    20    21   ar
    21    21    22   ar
    22    22    23   ar
    23    13    23   ar
    24    18    23   ar
    25     8    24   ar
    26     4    24   ar
    27     1    25    1
    28     1    26    1
    29     1    27    1
    30     2    28    1
    31     3    29    1
    32     3    30    1
    33     3    31    1
    34     9    32    1
    35    12    33    1
    36    12    34    1
    37    15    35    1
    38     5    36    1
    39     6    37    1
    40     7    38    1
    41    19    39    1
    42    20    40    1
    43    21    41    1
    44    22    42    1
    45    24    43    1
@<TRIPOS>MOLECULE
mol18_1_29
 43 45 0 0 0
SMALL
USER_CHARGES
****
VDW energy = -112.39
@<TRIPOS>ATOM
   1 C1        3.3691    -9.0331    -5.6418  C.3     1  <O>11      -0.0586
   2 C2        2.8832    -9.8059    -4.4252  C.3     1  <O>11      -0.0215
   3 C3        3.0381    -8.9437    -3.1818  C.3     1  <O>11      -0.0586
   4 C4        1.4620   -10.1610    -4.6040  C.ar    1  <O>11      -0.0430
   5 C5        0.8050   -10.8780    -3.6010  C.ar    1  <O>11      -0.0582
   6 C6       -0.5390   -11.2290    -3.7690  C.ar    1  <O>11      -0.0597
   7 C7       -1.2220   -10.8610    -4.9310  C.ar    1  <O>11      -0.0405
   8 C8       -0.5530   -10.1370    -5.9240  C.ar    1  <O>11       0.0337
   9 N1       -1.2350    -9.7730    -7.0730  N.am    1  <O>11      -0.2852
  10 C9       -1.7751   -10.7359    -7.8825  C.2     1  <O>11       0.2231
  11 O1       -1.6573   -11.9169    -7.5903  O.2     1  <O>11      -0.2751
  12 C10      -2.5100   -10.3434    -9.1204  C.3     1  <O>11       0.0688
  13 C11      -1.8049    -9.2114    -9.7758  C.ar    1  <O>11       0.0780
  14 N2       -0.6342    -8.6934    -9.2051  N.ar    1  <O>11      -0.1748
  15 N3       -0.0401    -7.5991    -9.7292  N.ar    1  <O>11      -0.2425
  16 C12      -0.5829    -7.0150   -10.8264  C.ar    1  <O>11       0.2725
  17 O2        0.0268    -5.8242   -11.2630  O.2     1  <O>11      -0.2658
  18 C13      -1.6892    -7.5310   -11.5168  C.ar    1  <O>11       0.0496
  19 C14      -2.2224    -6.9571   -12.6938  C.ar    1  <O>11      -0.0487
  20 C15      -3.3463    -7.5030   -13.3145  C.ar    1  <O>11      -0.0610
  21 C16      -3.9626    -8.6237   -12.7693  C.ar    1  <O>11      -0.0611
  22 C17      -3.4540    -9.1982   -11.6033  C.ar    1  <O>11      -0.0521
  23 C18      -2.3116    -8.6651   -10.9664  C.ar    1  <O>11       0.0108
  24 C19       0.7870    -9.7810    -5.7650  C.ar    1  <O>11      -0.0370
  25 H1        2.7787    -8.1237    -5.7542  H       1  <O>11       0.0235
  26 H2        3.2580    -9.6509    -6.5329  H       1  <O>11       0.0235
  27 H3        4.4188    -8.7708    -5.5101  H       1  <O>11       0.0235
  28 H4        3.4736   -10.7152    -4.3128  H       1  <O>11       0.0343
  29 H5        2.6899    -9.4976    -2.3100  H       1  <O>11       0.0235
  30 H6        2.4477    -8.0344    -3.2943  H       1  <O>11       0.0235
  31 H7        4.0878    -8.6814    -3.0501  H       1  <O>11       0.0235
  32 H8       -1.3334    -8.7870    -7.3166  H       1  <O>11       0.1548
  33 H9       -3.5232   -10.0383    -8.8597  H       1  <O>11       0.0423
  34 H10      -2.5502   -11.1917    -9.8039  H       1  <O>11       0.0423
  35 H11       0.7980    -7.2216    -9.3103  H       1  <O>11       0.1921
  36 H12       1.3081   -11.1472    -2.7411  H       1  <O>11       0.0620
  37 H13      -1.0274   -11.7615    -3.0322  H       1  <O>11       0.0618
  38 H14      -2.2128   -11.1213    -5.0560  H       1  <O>11       0.0636
  39 H15      -1.7734    -6.1214   -13.1000  H       1  <O>11       0.0625
  40 H16      -3.7194    -7.0758   -14.1766  H       1  <O>11       0.0618
  41 H17      -4.7942    -9.0300   -13.2258  H       1  <O>11       0.0618
  42 H18      -3.9203   -10.0260   -11.2000  H       1  <O>11       0.0624
  43 H19       1.2738    -9.2423    -6.4984  H       1  <O>11       0.0639
@<TRIPOS>BOND
     1     1     2    1
     2     2     3    1
     3     2     4    1
     4     4     5   ar
     5     5     6   ar
     6     6     7   ar
     7     7     8   ar
     8     8     9    1
     9     9    10   am
    10    10    11    2
    11    10    12    1
    12    12    13    1
    13    13    14   ar
    14    14    15   ar
    15    15    16   ar
    16    16    17    2
    17    16    18   ar
    18    18    19   ar
    19    19    20   ar
    20    20    21   ar
    21    21    22   ar
    22    22    23   ar
    23    13    23   ar
    24    18    23   ar
    25     8    24   ar
    26     4    24   ar
    27     1    25    1
    28     1    26    1
    29     1    27    1
    30     2    28    1
    31     3    29    1
    32     3    30    1
    33     3    31    1
    34     9    32    1
    35    12    33    1
    36    12    34    1
    37    15    35    1
    38     5    36    1
    39     6    37    1
    40     7    38    1
    41    19    39    1
    42    20    40    1
    43    21    41    1
    44    22    42    1
    45    24    43    1
@<TRIPOS>MOLECULE
mol18_1_30
 43 45 0 0 0
SMALL
USER_CHARGES
****
VDW energy = -86.68
@<TRIPOS>ATOM
   1 C1        3.3691    -9.0331    -5.6418  C.3     1  <O>11      -0.0586
   2 C2        2.8832    -9.8059    -4.4252  C.3     1  <O>11      -0.0215
   3 C3        3.0381    -8.9437    -3.1818  C.3     1  <O>11      -0.0586
   4 C4        1.4620   -10.1610    -4.6040  C.ar    1  <O>11      -0.0430
   5 C5        0.8050   -10.8780    -3.6010  C.ar    1  <O>11      -0.0582
   6 C6       -0.5390   -11.2290    -3.7690  C.ar    1  <O>11      -0.0597
   7 C7       -1.2220   -10.8610    -4.9310  C.ar    1  <O>11      -0.0405
   8 C8       -0.5530   -10.1370    -5.9240  C.ar    1  <O>11       0.0337
   9 N1       -1.2350    -9.7730    -7.0730  N.am    1  <O>11      -0.2852
  10 C9       -0.5950    -9.0630    -8.0530  C.2     1  <O>11       0.2231
  11 O1        0.5790    -8.7520    -7.9150  O.2     1  <O>11      -0.2751
  12 C10      -1.3300    -8.6710    -9.2910  C.3     1  <O>11       0.0688
  13 C11      -0.4180    -7.9160   -10.1890  C.ar    1  <O>11       0.0780
  14 N2        0.9090    -7.6840    -9.8020  N.ar    1  <O>11      -0.1748
  15 N3        1.7200    -6.9110   -10.5570  N.ar    1  <O>11      -0.2425
  16 C12       1.2380    -6.3730   -11.7050  C.ar    1  <O>11       0.2725
  17 O2        2.1010    -5.5000   -12.3930  O.2     1  <O>11      -0.2658
  18 C13      -0.0410    -6.6410   -12.2140  C.ar    1  <O>11       0.0496
  19 C14      -0.5260    -6.1280   -13.4390  C.ar    1  <O>11      -0.0487
  20 C15      -1.8220    -6.4080   -13.8730  C.ar    1  <O>11      -0.0610
  21 C16      -2.6590    -7.1960   -13.0910  C.ar    1  <O>11      -0.0611
  22 C17      -2.1990    -7.7040   -11.8750  C.ar    1  <O>11      -0.0521
  23 C18      -0.8870    -7.4390   -11.4240  C.ar    1  <O>11       0.0108
  24 C19       0.7870    -9.7810    -5.7650  C.ar    1  <O>11      -0.0370
  25 H1        2.7787    -8.1237    -5.7542  H       1  <O>11       0.0235
  26 H2        3.2580    -9.6509    -6.5329  H       1  <O>11       0.0235
  27 H3        4.4188    -8.7708    -5.5101  H       1  <O>11       0.0235
  28 H4        3.4736   -10.7152    -4.3128  H       1  <O>11       0.0343
  29 H5        2.6899    -9.4976    -2.3100  H       1  <O>11       0.0235
  30 H6        2.4477    -8.0344    -3.2943  H       1  <O>11       0.0235
  31 H7        4.0878    -8.6814    -3.0501  H       1  <O>11       0.0235
  32 H8       -2.2150   -10.0330    -7.1880  H       1  <O>11       0.1548
  33 H9       -2.1800    -8.0430    -9.0250  H       1  <O>11       0.0423
  34 H10      -1.6850    -9.5660    -9.8020  H       1  <O>11       0.0423
  35 H11       2.6730    -6.7370   -10.2710  H       1  <O>11       0.1921
  36 H12       1.3081   -11.1472    -2.7411  H       1  <O>11       0.0620
  37 H13      -1.0274   -11.7615    -3.0322  H       1  <O>11       0.0618
  38 H14      -2.2128   -11.1213    -5.0560  H       1  <O>11       0.0636
  39 H15       0.0882    -5.5373   -14.0211  H       1  <O>11       0.0625
  40 H16      -2.1587    -6.0310   -14.7727  H       1  <O>11       0.0618
  41 H17      -3.6183    -7.4049   -13.4089  H       1  <O>11       0.0618
  42 H18      -2.8277    -8.2826   -11.2961  H       1  <O>11       0.0624
  43 H19       1.2738    -9.2423    -6.4984  H       1  <O>11       0.0639
@<TRIPOS>BOND
     1     1     2    1
     2     2     3    1
     3     2     4    1
     4     4     5   ar
     5     5     6   ar
     6     6     7   ar
     7     7     8   ar
     8     8     9    1
     9     9    10   am
    10    10    11    2
    11    10    12    1
    12    12    13    1
    13    13    14   ar
    14    14    15   ar
    15    15    16   ar
    16    16    17    2
    17    16    18   ar
    18    18    19   ar
    19    19    20   ar
    20    20    21   ar
    21    21    22   ar
    22    22    23   ar
    23    13    23   ar
    24    18    23   ar
    25     8    24   ar
    26     4    24   ar
    27     1    25    1
    28     1    26    1
    29     1    27    1
    30     2    28    1
    31     3    29    1
    32     3    30    1
    33     3    31    1
    34     9    32    1
    35    12    33    1
    36    12    34    1
    37    15    35    1
    38     5    36    1
    39     6    37    1
    40     7    38    1
    41    19    39    1
    42    20    40    1
    43    21    41    1
    44    22    42    1
    45    24    43    1
