@<TRIPOS>MOLECULE
mol13_1_1
 31 33 0 0 0
SMALL
USER_CHARGES
****
VDW energy = -55.77
@<TRIPOS>ATOM
   1 C1        2.8832    -9.8059    -4.4252  C.3     1  <O>11      -0.0397
   2 C2        1.4617   -10.1611    -4.6036  C.ar    1  <O>11      -0.0487
   3 C3        0.8050   -10.8783    -3.6012  C.ar    1  <O>11      -0.0587
   4 C4       -0.5391   -11.2290    -3.7692  C.ar    1  <O>11      -0.0597
   5 C5       -1.2224   -10.8607    -4.9311  C.ar    1  <O>11      -0.0393
   6 C6       -0.5527   -10.1366    -5.9237  C.ar    1  <O>11       0.0483
   7 N1       -1.2620    -9.7580    -7.1200  N.pl3   1  <O>11      -0.2162
   8 S1       -2.0672    -8.3172    -7.1819  S.O2    1  <O>11       0.0745
   9 O1       -2.7867    -8.1479    -8.6695  O.2     1  <O>11      -0.1499
  10 O2       -0.9946    -7.0722    -6.9401  O.2     1  <O>11      -0.1499
  11 C7       -3.3070    -8.2810    -5.9194  C.ar    1  <O>11       0.1365
  12 C8       -3.2860    -7.2934    -4.9093  C.ar    1  <O>11      -0.0328
  13 C9       -4.2692    -7.2490    -3.8926  C.ar    1  <O>11      -0.0577
  14 C10      -5.3305    -8.1692    -3.8056  C.ar    1  <O>11      -0.0334
  15 C11      -5.3697    -9.1667    -4.8092  C.ar    1  <O>11       0.1018
  16 N2       -6.2877   -10.1396    -4.9183  N.ar    1  <O>11      -0.1907
  17 S2       -5.8685   -11.0277    -6.2595  S.2     1  <O>11       0.1165
  18 N3       -4.5051   -10.2191    -6.7616  N.ar    1  <O>11      -0.1888
  19 C12      -4.3221    -9.2156    -5.8927  C.ar    1  <O>11       0.1264
  20 C13       0.7874    -9.7806    -5.7650  C.ar    1  <O>11      -0.0364
  21 H1        3.2314    -9.2521    -5.2971  H       1  <O>11       0.0278
  22 H2        3.4736   -10.7152    -4.3128  H       1  <O>11       0.0278
  23 H3        2.9942    -9.1880    -3.5342  H       1  <O>11       0.0278
  24 H4       -1.2658   -10.3811    -7.9284  H       1  <O>11       0.1737
  25 H5        1.3082   -11.1481    -2.7415  H       1  <O>11       0.0620
  26 H6       -1.0275   -11.7615    -3.0324  H       1  <O>11       0.0618
  27 H7       -2.2132   -11.1207    -5.0562  H       1  <O>11       0.0636
  28 H8       -2.5342    -6.5863    -4.9131  H       1  <O>11       0.0638
  29 H9       -4.2049    -6.5053    -3.1799  H       1  <O>11       0.0619
  30 H10      -6.0375    -8.1196    -3.0554  H       1  <O>11       0.0640
  31 H11       1.2744    -9.2420    -6.4983  H       1  <O>11       0.0639
@<TRIPOS>BOND
     1     1     2    1
     2     2     3   ar
     3     3     4   ar
     4     4     5   ar
     5     5     6   ar
     6     6     7    1
     7     7     8    1
     8     8     9    2
     9     8    10    2
    10     8    11    1
    11    11    12   ar
    12    12    13   ar
    13    13    14   ar
    14    14    15   ar
    15    15    16   ar
    16    16    17   ar
    17    17    18   ar
    18    18    19   ar
    19    11    19   ar
    20    15    19   ar
    21     6    20   ar
    22     2    20   ar
    23     1    21    1
    24     1    22    1
    25     1    23    1
    26     7    24    1
    27     3    25    1
    28     4    26    1
    29     5    27    1
    30    12    28    1
    31    13    29    1
    32    14    30    1
    33    20    31    1
@<TRIPOS>MOLECULE
mol13_1_2
 31 33 0 0 0
SMALL
USER_CHARGES
****
VDW energy = -54.64
@<TRIPOS>ATOM
   1 C1        2.8832    -9.8059    -4.4252  C.3     1  <O>11      -0.0397
   2 C2        1.4617   -10.1611    -4.6036  C.ar    1  <O>11      -0.0487
   3 C3        0.8050   -10.8783    -3.6012  C.ar    1  <O>11      -0.0587
   4 C4       -0.5391   -11.2290    -3.7692  C.ar    1  <O>11      -0.0597
   5 C5       -1.2224   -10.8607    -4.9311  C.ar    1  <O>11      -0.0393
   6 C6       -0.5527   -10.1366    -5.9237  C.ar    1  <O>11       0.0483
   7 N1       -1.2620    -9.7580    -7.1200  N.pl3   1  <O>11      -0.2162
   8 S1       -1.7883   -10.9188    -8.1706  S.O2    1  <O>11       0.0745
   9 O1       -2.5663   -10.1976    -9.4489  O.2     1  <O>11      -0.1499
  10 O2       -2.8386   -11.9398    -7.3873  O.2     1  <O>11      -0.1499
  11 C7       -0.4028   -11.8434    -8.7687  C.ar    1  <O>11       0.1365
  12 C8       -0.3123   -13.2367    -8.5533  C.ar    1  <O>11      -0.0328
  13 C9        0.7877   -13.9918    -9.0248  C.ar    1  <O>11      -0.0577
  14 C10       1.8634   -13.4265    -9.7348  C.ar    1  <O>11      -0.0334
  15 C11       1.7912   -12.0311    -9.9615  C.ar    1  <O>11       0.1018
  16 N2        2.7015   -11.2899   -10.6121  N.ar    1  <O>11      -0.1907
  17 S2        2.1318    -9.7284   -10.5918  S.2     1  <O>11       0.1165
  18 N3        0.7066    -9.9218    -9.7576  N.ar    1  <O>11      -0.1888
  19 C12       0.6200   -11.2251    -9.4589  C.ar    1  <O>11       0.1264
  20 C13       0.7874    -9.7806    -5.7650  C.ar    1  <O>11      -0.0364
  21 H1        3.2314    -9.2521    -5.2971  H       1  <O>11       0.0278
  22 H2        3.4736   -10.7152    -4.3128  H       1  <O>11       0.0278
  23 H3        2.9942    -9.1880    -3.5342  H       1  <O>11       0.0278
  24 H4       -1.4386    -8.7722    -7.3168  H       1  <O>11       0.1737
  25 H5        1.3082   -11.1481    -2.7415  H       1  <O>11       0.0620
  26 H6       -1.0275   -11.7615    -3.0324  H       1  <O>11       0.0618
  27 H7       -2.2132   -11.1207    -5.0562  H       1  <O>11       0.0636
  28 H8       -1.0678   -13.7161    -8.0390  H       1  <O>11       0.0638
  29 H9        0.8018   -15.0069    -8.8390  H       1  <O>11       0.0619
  30 H10       2.6569   -13.9949   -10.0698  H       1  <O>11       0.0640
  31 H11       1.2744    -9.2420    -6.4983  H       1  <O>11       0.0639
@<TRIPOS>BOND
     1     1     2    1
     2     2     3   ar
     3     3     4   ar
     4     4     5   ar
     5     5     6   ar
     6     6     7    1
     7     7     8    1
     8     8     9    2
     9     8    10    2
    10     8    11    1
    11    11    12   ar
    12    12    13   ar
    13    13    14   ar
    14    14    15   ar
    15    15    16   ar
    16    16    17   ar
    17    17    18   ar
    18    18    19   ar
    19    11    19   ar
    20    15    19   ar
    21     6    20   ar
    22     2    20   ar
    23     1    21    1
    24     1    22    1
    25     1    23    1
    26     7    24    1
    27     3    25    1
    28     4    26    1
    29     5    27    1
    30    12    28    1
    31    13    29    1
    32    14    30    1
    33    20    31    1
@<TRIPOS>MOLECULE
mol13_1_3
 31 33 0 0 0
SMALL
USER_CHARGES
****
VDW energy = -53.07
@<TRIPOS>ATOM
   1 C1        2.8832    -9.8059    -4.4252  C.3     1  <O>11      -0.0397
   2 C2        1.4617   -10.1611    -4.6036  C.ar    1  <O>11      -0.0487
   3 C3        0.8050   -10.8783    -3.6012  C.ar    1  <O>11      -0.0587
   4 C4       -0.5391   -11.2290    -3.7692  C.ar    1  <O>11      -0.0597
   5 C5       -1.2224   -10.8607    -4.9311  C.ar    1  <O>11      -0.0393
   6 C6       -0.5527   -10.1366    -5.9237  C.ar    1  <O>11       0.0483
   7 N1       -1.2620    -9.7580    -7.1200  N.pl3   1  <O>11      -0.2162
   8 S1       -1.2697   -10.7648    -8.4293  S.O2    1  <O>11       0.0745
   9 O1       -1.9482   -12.2205    -8.0050  O.2     1  <O>11      -0.1499
  10 O2        0.2888   -11.0103    -8.9487  O.2     1  <O>11      -0.1499
  11 C7       -2.2165   -10.0299    -9.7316  C.ar    1  <O>11       0.1365
  12 C8       -3.3591   -10.6772   -10.2528  C.ar    1  <O>11      -0.0328
  13 C9       -4.1280   -10.1041   -11.2934  C.ar    1  <O>11      -0.0577
  14 C10      -3.8229    -8.8639   -11.8844  C.ar    1  <O>11      -0.0334
  15 C11      -2.6816    -8.1989   -11.3755  C.ar    1  <O>11       0.1018
  16 N2       -2.2102    -7.0125   -11.7898  N.ar    1  <O>11      -0.1907
  17 S2       -0.8632    -6.6984   -10.8678  S.2     1  <O>11       0.1165
  18 N3       -0.8171    -8.0517    -9.9028  N.ar    1  <O>11      -0.1888
  19 C12      -1.8609    -8.8087   -10.2672  C.ar    1  <O>11       0.1264
  20 C13       0.7874    -9.7806    -5.7650  C.ar    1  <O>11      -0.0364
  21 H1        3.2314    -9.2521    -5.2971  H       1  <O>11       0.0278
  22 H2        3.4736   -10.7152    -4.3128  H       1  <O>11       0.0278
  23 H3        2.9942    -9.1880    -3.5342  H       1  <O>11       0.0278
  24 H4       -1.7593    -8.8674    -7.1568  H       1  <O>11       0.1737
  25 H5        1.3082   -11.1481    -2.7415  H       1  <O>11       0.0620
  26 H6       -1.0275   -11.7615    -3.0324  H       1  <O>11       0.0618
  27 H7       -2.2132   -11.1207    -5.0562  H       1  <O>11       0.0636
  28 H8       -3.6401   -11.5912    -9.8647  H       1  <O>11       0.0638
  29 H9       -4.9530   -10.6211   -11.6357  H       1  <O>11       0.0619
  30 H10      -4.3966    -8.4634   -12.6430  H       1  <O>11       0.0640
  31 H11       1.2744    -9.2420    -6.4983  H       1  <O>11       0.0639
@<TRIPOS>BOND
     1     1     2    1
     2     2     3   ar
     3     3     4   ar
     4     4     5   ar
     5     5     6   ar
     6     6     7    1
     7     7     8    1
     8     8     9    2
     9     8    10    2
    10     8    11    1
    11    11    12   ar
    12    12    13   ar
    13    13    14   ar
    14    14    15   ar
    15    15    16   ar
    16    16    17   ar
    17    17    18   ar
    18    18    19   ar
    19    11    19   ar
    20    15    19   ar
    21     6    20   ar
    22     2    20   ar
    23     1    21    1
    24     1    22    1
    25     1    23    1
    26     7    24    1
    27     3    25    1
    28     4    26    1
    29     5    27    1
    30    12    28    1
    31    13    29    1
    32    14    30    1
    33    20    31    1
@<TRIPOS>MOLECULE
mol13_1_4
 31 33 0 0 0
SMALL
USER_CHARGES
****
VDW energy = -53.06
@<TRIPOS>ATOM
   1 C1        2.8832    -9.8059    -4.4252  C.3     1  <O>11      -0.0397
   2 C2        1.4617   -10.1611    -4.6036  C.ar    1  <O>11      -0.0487
   3 C3        0.8050   -10.8783    -3.6012  C.ar    1  <O>11      -0.0587
   4 C4       -0.5391   -11.2290    -3.7692  C.ar    1  <O>11      -0.0597
   5 C5       -1.2224   -10.8607    -4.9311  C.ar    1  <O>11      -0.0393
   6 C6       -0.5527   -10.1366    -5.9237  C.ar    1  <O>11       0.0483
   7 N1       -1.2620    -9.7580    -7.1200  N.pl3   1  <O>11      -0.2162
   8 S1       -2.0672    -8.3172    -7.1819  S.O2    1  <O>11       0.0745
   9 O1       -0.9944    -7.0720    -6.9411  O.2     1  <O>11      -0.1499
  10 O2       -3.2318    -8.2821    -5.9979  O.2     1  <O>11      -0.1499
  11 C7       -2.8327    -8.1382    -8.7675  C.ar    1  <O>11       0.1365
  12 C8       -4.2332    -7.9935    -8.8854  C.ar    1  <O>11      -0.0328
  13 C9       -4.8621    -7.8487   -10.1448  C.ar    1  <O>11      -0.0577
  14 C10      -4.1562    -7.8373   -11.3623  C.ar    1  <O>11      -0.0334
  15 C11      -2.7513    -7.9804   -11.2655  C.ar    1  <O>11       0.1018
  16 N2       -1.8878    -7.9972   -12.2929  N.ar    1  <O>11      -0.1907
  17 S2       -0.3762    -8.1886   -11.6283  S.2     1  <O>11       0.1165
  18 N3       -0.7485    -8.2589   -10.0093  N.ar    1  <O>11      -0.1888
  19 C12      -2.0799    -8.1356    -9.9242  C.ar    1  <O>11       0.1264
  20 C13       0.7874    -9.7806    -5.7650  C.ar    1  <O>11      -0.0364
  21 H1        3.2314    -9.2521    -5.2971  H       1  <O>11       0.0278
  22 H2        3.4736   -10.7152    -4.3128  H       1  <O>11       0.0278
  23 H3        2.9942    -9.1880    -3.5342  H       1  <O>11       0.0278
  24 H4       -1.2658   -10.3811    -7.9284  H       1  <O>11       0.1737
  25 H5        1.3082   -11.1481    -2.7415  H       1  <O>11       0.0620
  26 H6       -1.0275   -11.7615    -3.0324  H       1  <O>11       0.0618
  27 H7       -2.2132   -11.1207    -5.0562  H       1  <O>11       0.0636
  28 H8       -4.8123    -7.9934    -8.0312  H       1  <O>11       0.0638
  29 H9       -5.8887    -7.7466   -10.1717  H       1  <O>11       0.0619
  30 H10      -4.6341    -7.7310   -12.2708  H       1  <O>11       0.0640
  31 H11       1.2744    -9.2420    -6.4983  H       1  <O>11       0.0639
@<TRIPOS>BOND
     1     1     2    1
     2     2     3   ar
     3     3     4   ar
     4     4     5   ar
     5     5     6   ar
     6     6     7    1
     7     7     8    1
     8     8     9    2
     9     8    10    2
    10     8    11    1
    11    11    12   ar
    12    12    13   ar
    13    13    14   ar
    14    14    15   ar
    15    15    16   ar
    16    16    17   ar
    17    17    18   ar
    18    18    19   ar
    19    11    19   ar
    20    15    19   ar
    21     6    20   ar
    22     2    20   ar
    23     1    21    1
    24     1    22    1
    25     1    23    1
    26     7    24    1
    27     3    25    1
    28     4    26    1
    29     5    27    1
    30    12    28    1
    31    13    29    1
    32    14    30    1
    33    20    31    1
@<TRIPOS>MOLECULE
mol13_1_5
 31 33 0 0 0
SMALL
USER_CHARGES
****
VDW energy = -53.03
@<TRIPOS>ATOM
   1 C1        2.8832    -9.8059    -4.4252  C.3     1  <O>11      -0.0397
   2 C2        1.4617   -10.1611    -4.6036  C.ar    1  <O>11      -0.0487
   3 C3        0.8050   -10.8783    -3.6012  C.ar    1  <O>11      -0.0587
   4 C4       -0.5391   -11.2290    -3.7692  C.ar    1  <O>11      -0.0597
   5 C5       -1.2224   -10.8607    -4.9311  C.ar    1  <O>11      -0.0393
   6 C6       -0.5527   -10.1366    -5.9237  C.ar    1  <O>11       0.0483
   7 N1       -1.2620    -9.7580    -7.1200  N.pl3   1  <O>11      -0.2162
   8 S1       -1.2697   -10.7648    -8.4293  S.O2    1  <O>11       0.0745
   9 O1       -1.9482   -12.2205    -8.0050  O.2     1  <O>11      -0.1499
  10 O2        0.2888   -11.0103    -8.9487  O.2     1  <O>11      -0.1499
  11 C7       -2.2165   -10.0299    -9.7316  C.ar    1  <O>11       0.1365
  12 C8       -1.6280    -9.7412   -10.9831  C.ar    1  <O>11      -0.0328
  13 C9       -2.3699    -9.1543   -12.0356  C.ar    1  <O>11      -0.0577
  14 C10      -3.7313    -8.8158   -11.9239  C.ar    1  <O>11      -0.0334
  15 C11      -4.3398    -9.0978   -10.6773  C.ar    1  <O>11       0.1018
  16 N2       -5.6199    -8.8586   -10.3527  N.ar    1  <O>11      -0.1907
  17 S2       -5.8071    -9.3741    -8.7835  S.2     1  <O>11       0.1165
  18 N3       -4.2745    -9.9232    -8.4454  N.ar    1  <O>11      -0.1888
  19 C12      -3.5502    -9.7225    -9.5547  C.ar    1  <O>11       0.1264
  20 C13       0.7874    -9.7806    -5.7650  C.ar    1  <O>11      -0.0364
  21 H1        3.2314    -9.2521    -5.2971  H       1  <O>11       0.0278
  22 H2        3.4736   -10.7152    -4.3128  H       1  <O>11       0.0278
  23 H3        2.9942    -9.1880    -3.5342  H       1  <O>11       0.0278
  24 H4       -1.7593    -8.8674    -7.1568  H       1  <O>11       0.1737
  25 H5        1.3082   -11.1481    -2.7415  H       1  <O>11       0.0620
  26 H6       -1.0275   -11.7615    -3.0324  H       1  <O>11       0.0618
  27 H7       -2.2132   -11.1207    -5.0562  H       1  <O>11       0.0636
  28 H8       -0.6316    -9.9640   -11.1336  H       1  <O>11       0.0638
  29 H9       -1.8889    -8.9652   -12.9289  H       1  <O>11       0.0619
  30 H10      -4.2545    -8.3878   -12.7037  H       1  <O>11       0.0640
  31 H11       1.2744    -9.2420    -6.4983  H       1  <O>11       0.0639
@<TRIPOS>BOND
     1     1     2    1
     2     2     3   ar
     3     3     4   ar
     4     4     5   ar
     5     5     6   ar
     6     6     7    1
     7     7     8    1
     8     8     9    2
     9     8    10    2
    10     8    11    1
    11    11    12   ar
    12    12    13   ar
    13    13    14   ar
    14    14    15   ar
    15    15    16   ar
    16    16    17   ar
    17    17    18   ar
    18    18    19   ar
    19    11    19   ar
    20    15    19   ar
    21     6    20   ar
    22     2    20   ar
    23     1    21    1
    24     1    22    1
    25     1    23    1
    26     7    24    1
    27     3    25    1
    28     4    26    1
    29     5    27    1
    30    12    28    1
    31    13    29    1
    32    14    30    1
    33    20    31    1
@<TRIPOS>MOLECULE
mol13_1_6
 31 33 0 0 0
SMALL
USER_CHARGES
****
VDW energy = -51.84
@<TRIPOS>ATOM
   1 C1        2.8832    -9.8059    -4.4252  C.3     1  <O>11      -0.0397
   2 C2        1.4617   -10.1611    -4.6036  C.ar    1  <O>11      -0.0487
   3 C3        0.8050   -10.8783    -3.6012  C.ar    1  <O>11      -0.0587
   4 C4       -0.5391   -11.2290    -3.7692  C.ar    1  <O>11      -0.0597
   5 C5       -1.2224   -10.8607    -4.9311  C.ar    1  <O>11      -0.0393
   6 C6       -0.5527   -10.1366    -5.9237  C.ar    1  <O>11       0.0483
   7 N1       -1.2620    -9.7580    -7.1200  N.pl3   1  <O>11      -0.2162
   8 S1       -2.5157    -8.6863    -7.0327  S.O2    1  <O>11       0.0745
   9 O1       -1.9694    -7.2433    -6.4172  O.2     1  <O>11      -0.1499
  10 O2       -3.7000    -9.2985    -6.0419  O.2     1  <O>11      -0.1499
  11 C7       -3.1794    -8.4234    -8.6522  C.ar    1  <O>11       0.1365
  12 C8       -4.5290    -8.7251    -8.9415  C.ar    1  <O>11      -0.0328
  13 C9       -5.0764    -8.5208   -10.2303  C.ar    1  <O>11      -0.0577
  14 C10      -4.3342    -8.0092   -11.3111  C.ar    1  <O>11      -0.0334
  15 C11      -2.9795    -7.7000   -11.0415  C.ar    1  <O>11       0.1018
  16 N2       -2.0939    -7.2045   -11.9198  N.ar    1  <O>11      -0.1907
  17 S2       -0.6634    -7.0300   -11.0914  S.2     1  <O>11       0.1165
  18 N3       -1.1023    -7.5745    -9.5829  N.ar    1  <O>11      -0.1888
  19 C12      -2.3946    -7.9179    -9.6688  C.ar    1  <O>11       0.1264
  20 C13       0.7874    -9.7806    -5.7650  C.ar    1  <O>11      -0.0364
  21 H1        3.2314    -9.2521    -5.2971  H       1  <O>11       0.0278
  22 H2        3.4736   -10.7152    -4.3128  H       1  <O>11       0.0278
  23 H3        2.9942    -9.1880    -3.5342  H       1  <O>11       0.0278
  24 H4       -0.9885   -10.1528    -8.0206  H       1  <O>11       0.1737
  25 H5        1.3082   -11.1481    -2.7415  H       1  <O>11       0.0620
  26 H6       -1.0275   -11.7615    -3.0324  H       1  <O>11       0.0618
  27 H7       -2.2132   -11.1207    -5.0562  H       1  <O>11       0.0636
  28 H8       -5.1309    -9.1041    -8.1938  H       1  <O>11       0.0638
  29 H9       -6.0687    -8.7586   -10.3853  H       1  <O>11       0.0619
  30 H10      -4.7525    -7.8681   -12.2440  H       1  <O>11       0.0640
  31 H11       1.2744    -9.2420    -6.4983  H       1  <O>11       0.0639
@<TRIPOS>BOND
     1     1     2    1
     2     2     3   ar
     3     3     4   ar
     4     4     5   ar
     5     5     6   ar
     6     6     7    1
     7     7     8    1
     8     8     9    2
     9     8    10    2
    10     8    11    1
    11    11    12   ar
    12    12    13   ar
    13    13    14   ar
    14    14    15   ar
    15    15    16   ar
    16    16    17   ar
    17    17    18   ar
    18    18    19   ar
    19    11    19   ar
    20    15    19   ar
    21     6    20   ar
    22     2    20   ar
    23     1    21    1
    24     1    22    1
    25     1    23    1
    26     7    24    1
    27     3    25    1
    28     4    26    1
    29     5    27    1
    30    12    28    1
    31    13    29    1
    32    14    30    1
    33    20    31    1
@<TRIPOS>MOLECULE
mol13_1_7
 31 33 0 0 0
SMALL
USER_CHARGES
****
VDW energy = -51.81
@<TRIPOS>ATOM
   1 C1        2.8832    -9.8059    -4.4252  C.3     1  <O>11      -0.0397
   2 C2        1.4617   -10.1611    -4.6036  C.ar    1  <O>11      -0.0487
   3 C3        0.8050   -10.8783    -3.6012  C.ar    1  <O>11      -0.0587
   4 C4       -0.5391   -11.2290    -3.7692  C.ar    1  <O>11      -0.0597
   5 C5       -1.2224   -10.8607    -4.9311  C.ar    1  <O>11      -0.0393
   6 C6       -0.5527   -10.1366    -5.9237  C.ar    1  <O>11       0.0483
   7 N1       -1.2620    -9.7580    -7.1200  N.pl3   1  <O>11      -0.2162
   8 S1       -1.7883   -10.9188    -8.1706  S.O2    1  <O>11       0.0745
   9 O1       -2.8394   -11.9393    -7.3876  O.2     1  <O>11      -0.1499
  10 O2       -0.4888   -11.7869    -8.7334  O.2     1  <O>11      -0.1499
  11 C7       -2.6173   -10.1489    -9.5316  C.ar    1  <O>11       0.1365
  12 C8       -2.1527   -10.3192   -10.8549  C.ar    1  <O>11      -0.0328
  13 C9       -2.8033    -9.7116   -11.9550  C.ar    1  <O>11      -0.0577
  14 C10      -3.9467    -8.9017   -11.8234  C.ar    1  <O>11      -0.0334
  15 C11      -4.4284    -8.7192   -10.5049  C.ar    1  <O>11       0.1018
  16 N2       -5.4980    -7.9902   -10.1502  N.ar    1  <O>11      -0.1907
  17 S2       -5.6170    -8.1113    -8.4965  S.2     1  <O>11       0.1165
  18 N3       -4.3184    -9.0925    -8.1564  N.ar    1  <O>11      -0.1888
  19 C12      -3.7357    -9.3653    -9.3317  C.ar    1  <O>11       0.1264
  20 C13       0.7874    -9.7806    -5.7650  C.ar    1  <O>11      -0.0364
  21 H1        3.2314    -9.2521    -5.2971  H       1  <O>11       0.0278
  22 H2        3.4736   -10.7152    -4.3128  H       1  <O>11       0.0278
  23 H3        2.9942    -9.1880    -3.5342  H       1  <O>11       0.0278
  24 H4       -1.4386    -8.7722    -7.3168  H       1  <O>11       0.1737
  25 H5        1.3082   -11.1481    -2.7415  H       1  <O>11       0.0620
  26 H6       -1.0275   -11.7615    -3.0324  H       1  <O>11       0.0618
  27 H7       -2.2132   -11.1207    -5.0562  H       1  <O>11       0.0636
  28 H8       -1.3176   -10.9015   -11.0236  H       1  <O>11       0.0638
  29 H9       -2.4204    -9.8702   -12.9002  H       1  <O>11       0.0619
  30 H10      -4.4062    -8.4672   -12.6389  H       1  <O>11       0.0640
  31 H11       1.2744    -9.2420    -6.4983  H       1  <O>11       0.0639
@<TRIPOS>BOND
     1     1     2    1
     2     2     3   ar
     3     3     4   ar
     4     4     5   ar
     5     5     6   ar
     6     6     7    1
     7     7     8    1
     8     8     9    2
     9     8    10    2
    10     8    11    1
    11    11    12   ar
    12    12    13   ar
    13    13    14   ar
    14    14    15   ar
    15    15    16   ar
    16    16    17   ar
    17    17    18   ar
    18    18    19   ar
    19    11    19   ar
    20    15    19   ar
    21     6    20   ar
    22     2    20   ar
    23     1    21    1
    24     1    22    1
    25     1    23    1
    26     7    24    1
    27     3    25    1
    28     4    26    1
    29     5    27    1
    30    12    28    1
    31    13    29    1
    32    14    30    1
    33    20    31    1
@<TRIPOS>MOLECULE
mol13_1_8
 31 33 0 0 0
SMALL
USER_CHARGES
****
VDW energy = -51.80
@<TRIPOS>ATOM
   1 C1        2.8832    -9.8059    -4.4252  C.3     1  <O>11      -0.0397
   2 C2        1.4617   -10.1611    -4.6036  C.ar    1  <O>11      -0.0487
   3 C3        0.8050   -10.8783    -3.6012  C.ar    1  <O>11      -0.0587
   4 C4       -0.5391   -11.2290    -3.7692  C.ar    1  <O>11      -0.0597
   5 C5       -1.2224   -10.8607    -4.9311  C.ar    1  <O>11      -0.0393
   6 C6       -0.5527   -10.1366    -5.9237  C.ar    1  <O>11       0.0483
   7 N1       -1.2620    -9.7580    -7.1200  N.pl3   1  <O>11      -0.2162
   8 S1       -2.5157    -8.6863    -7.0327  S.O2    1  <O>11       0.0745
   9 O1       -1.9694    -7.2433    -6.4172  O.2     1  <O>11      -0.1499
  10 O2       -3.7000    -9.2985    -6.0419  O.2     1  <O>11      -0.1499
  11 C7       -3.1794    -8.4234    -8.6522  C.ar    1  <O>11       0.1365
  12 C8       -3.1897    -7.1352    -9.2323  C.ar    1  <O>11      -0.0328
  13 C9       -3.7158    -6.9067   -10.5259  C.ar    1  <O>11      -0.0577
  14 C10      -4.2625    -7.9264   -11.3271  C.ar    1  <O>11      -0.0334
  15 C11      -4.2610    -9.2251   -10.7639  C.ar    1  <O>11       0.1018
  16 N2       -4.7304   -10.3385   -11.3482  N.ar    1  <O>11      -0.1907
  17 S2       -4.4868   -11.5731   -10.2620  S.2     1  <O>11       0.1165
  18 N3       -3.7759   -10.7519    -9.0031  N.ar    1  <O>11      -0.1888
  19 C12      -3.7014    -9.4698    -9.3851  C.ar    1  <O>11       0.1264
  20 C13       0.7874    -9.7806    -5.7650  C.ar    1  <O>11      -0.0364
  21 H1        3.2314    -9.2521    -5.2971  H       1  <O>11       0.0278
  22 H2        3.4736   -10.7152    -4.3128  H       1  <O>11       0.0278
  23 H3        2.9942    -9.1880    -3.5342  H       1  <O>11       0.0278
  24 H4       -0.9885   -10.1528    -8.0206  H       1  <O>11       0.1737
  25 H5        1.3082   -11.1481    -2.7415  H       1  <O>11       0.0620
  26 H6       -1.0275   -11.7615    -3.0324  H       1  <O>11       0.0618
  27 H7       -2.2132   -11.1207    -5.0562  H       1  <O>11       0.0636
  28 H8       -2.8037    -6.3404    -8.6988  H       1  <O>11       0.0638
  29 H9       -3.6976    -5.9451   -10.9002  H       1  <O>11       0.0619
  30 H10      -4.6417    -7.7387   -12.2684  H       1  <O>11       0.0640
  31 H11       1.2744    -9.2420    -6.4983  H       1  <O>11       0.0639
@<TRIPOS>BOND
     1     1     2    1
     2     2     3   ar
     3     3     4   ar
     4     4     5   ar
     5     5     6   ar
     6     6     7    1
     7     7     8    1
     8     8     9    2
     9     8    10    2
    10     8    11    1
    11    11    12   ar
    12    12    13   ar
    13    13    14   ar
    14    14    15   ar
    15    15    16   ar
    16    16    17   ar
    17    17    18   ar
    18    18    19   ar
    19    11    19   ar
    20    15    19   ar
    21     6    20   ar
    22     2    20   ar
    23     1    21    1
    24     1    22    1
    25     1    23    1
    26     7    24    1
    27     3    25    1
    28     4    26    1
    29     5    27    1
    30    12    28    1
    31    13    29    1
    32    14    30    1
    33    20    31    1
@<TRIPOS>MOLECULE
mol13_1_9
 31 33 0 0 0
SMALL
USER_CHARGES
****
VDW energy = -50.90
@<TRIPOS>ATOM
   1 C1        2.8832    -9.8059    -4.4252  C.3     1  <O>11      -0.0397
   2 C2        1.4617   -10.1611    -4.6036  C.ar    1  <O>11      -0.0487
   3 C3        0.8050   -10.8783    -3.6012  C.ar    1  <O>11      -0.0587
   4 C4       -0.5391   -11.2290    -3.7692  C.ar    1  <O>11      -0.0597
   5 C5       -1.2224   -10.8607    -4.9311  C.ar    1  <O>11      -0.0393
   6 C6       -0.5527   -10.1366    -5.9237  C.ar    1  <O>11       0.0483
   7 N1       -1.2620    -9.7580    -7.1200  N.pl3   1  <O>11      -0.2162
   8 S1       -2.5157    -8.6863    -7.0327  S.O2    1  <O>11       0.0745
   9 O1       -3.6997    -9.2980    -6.0410  O.2     1  <O>11      -0.1499
  10 O2       -3.1392    -8.4381    -8.5522  O.2     1  <O>11      -0.1499
  11 C7       -1.9322    -7.1497    -6.3765  C.ar    1  <O>11       0.1365
  12 C8       -0.6007    -6.7281    -6.5898  C.ar    1  <O>11      -0.0328
  13 C9       -0.1173    -5.5026    -6.0731  C.ar    1  <O>11      -0.0577
  14 C10      -0.9095    -4.6184    -5.3173  C.ar    1  <O>11      -0.0334
  15 C11      -2.2475    -5.0226    -5.0929  C.ar    1  <O>11       0.1018
  16 N2       -3.1727    -4.3379    -4.4027  N.ar    1  <O>11      -0.1907
  17 S2       -4.5590    -5.2543    -4.4455  S.2     1  <O>11       0.1165
  18 N3       -4.0485    -6.5595    -5.3403  N.ar    1  <O>11      -0.1888
  19 C12      -2.7637    -6.3286    -5.6423  C.ar    1  <O>11       0.1264
  20 C13       0.7874    -9.7806    -5.7650  C.ar    1  <O>11      -0.0364
  21 H1        3.2314    -9.2521    -5.2971  H       1  <O>11       0.0278
  22 H2        3.4736   -10.7152    -4.3128  H       1  <O>11       0.0278
  23 H3        2.9942    -9.1880    -3.5342  H       1  <O>11       0.0278
  24 H4       -0.9885   -10.1528    -8.0206  H       1  <O>11       0.1737
  25 H5        1.3082   -11.1481    -2.7415  H       1  <O>11       0.0620
  26 H6       -1.0275   -11.7615    -3.0324  H       1  <O>11       0.0618
  27 H7       -2.2132   -11.1207    -5.0562  H       1  <O>11       0.0636
  28 H8        0.0357    -7.3292    -7.1364  H       1  <O>11       0.0638
  29 H9        0.8644    -5.2446    -6.2596  H       1  <O>11       0.0619
  30 H10      -0.5375    -3.7291    -4.9489  H       1  <O>11       0.0640
  31 H11       1.2744    -9.2420    -6.4983  H       1  <O>11       0.0639
@<TRIPOS>BOND
     1     1     2    1
     2     2     3   ar
     3     3     4   ar
     4     4     5   ar
     5     5     6   ar
     6     6     7    1
     7     7     8    1
     8     8     9    2
     9     8    10    2
    10     8    11    1
    11    11    12   ar
    12    12    13   ar
    13    13    14   ar
    14    14    15   ar
    15    15    16   ar
    16    16    17   ar
    17    17    18   ar
    18    18    19   ar
    19    11    19   ar
    20    15    19   ar
    21     6    20   ar
    22     2    20   ar
    23     1    21    1
    24     1    22    1
    25     1    23    1
    26     7    24    1
    27     3    25    1
    28     4    26    1
    29     5    27    1
    30    12    28    1
    31    13    29    1
    32    14    30    1
    33    20    31    1
@<TRIPOS>MOLECULE
mol13_1_10
 31 33 0 0 0
SMALL
USER_CHARGES
****
VDW energy = -50.26
@<TRIPOS>ATOM
   1 C1        2.8832    -9.8059    -4.4252  C.3     1  <O>11      -0.0397
   2 C2        1.4617   -10.1611    -4.6036  C.ar    1  <O>11      -0.0487
   3 C3        0.8050   -10.8783    -3.6012  C.ar    1  <O>11      -0.0587
   4 C4       -0.5391   -11.2290    -3.7692  C.ar    1  <O>11      -0.0597
   5 C5       -1.2224   -10.8607    -4.9311  C.ar    1  <O>11      -0.0393
   6 C6       -0.5527   -10.1366    -5.9237  C.ar    1  <O>11       0.0483
   7 N1       -1.2620    -9.7580    -7.1200  N.pl3   1  <O>11      -0.2162
   8 S1       -2.5157    -8.6863    -7.0327  S.O2    1  <O>11       0.0745
   9 O1       -1.9694    -7.2433    -6.4173  O.2     1  <O>11      -0.1499
  10 O2       -3.7000    -9.2985    -6.0419  O.2     1  <O>11      -0.1499
  11 C7       -3.1794    -8.4234    -8.6522  C.ar    1  <O>11       0.1365
  12 C8       -3.7712    -7.1893    -9.0028  C.ar    1  <O>11      -0.0328
  13 C9       -4.3063    -6.9615   -10.2929  C.ar    1  <O>11      -0.0577
  14 C10      -4.2933    -7.9290   -11.3149  C.ar    1  <O>11      -0.0334
  15 C11      -3.7040    -9.1726   -10.9836  C.ar    1  <O>11       0.1018
  16 N2       -3.5851   -10.2312   -11.8000  N.ar    1  <O>11      -0.1907
  17 S2       -2.8262   -11.4178   -10.9172  S.2     1  <O>11       0.1165
  18 N3       -2.6146   -10.6432    -9.4612  N.ar    1  <O>11      -0.1888
  19 C12      -3.1341    -9.4170    -9.6090  C.ar    1  <O>11       0.1264
  20 C13       0.7874    -9.7806    -5.7650  C.ar    1  <O>11      -0.0364
  21 H1        3.2314    -9.2521    -5.2971  H       1  <O>11       0.0278
  22 H2        3.4736   -10.7152    -4.3128  H       1  <O>11       0.0278
  23 H3        2.9942    -9.1880    -3.5342  H       1  <O>11       0.0278
  24 H4       -0.9885   -10.1528    -8.0206  H       1  <O>11       0.1737
  25 H5        1.3082   -11.1481    -2.7415  H       1  <O>11       0.0620
  26 H6       -1.0275   -11.7615    -3.0324  H       1  <O>11       0.0618
  27 H7       -2.2132   -11.1207    -5.0562  H       1  <O>11       0.0636
  28 H8       -3.8142    -6.4347    -8.3001  H       1  <O>11       0.0638
  29 H9       -4.7268    -6.0407   -10.4940  H       1  <O>11       0.0619
  30 H10      -4.6895    -7.7429   -12.2495  H       1  <O>11       0.0640
  31 H11       1.2744    -9.2420    -6.4983  H       1  <O>11       0.0639
@<TRIPOS>BOND
     1     1     2    1
     2     2     3   ar
     3     3     4   ar
     4     4     5   ar
     5     5     6   ar
     6     6     7    1
     7     7     8    1
     8     8     9    2
     9     8    10    2
    10     8    11    1
    11    11    12   ar
    12    12    13   ar
    13    13    14   ar
    14    14    15   ar
    15    15    16   ar
    16    16    17   ar
    17    17    18   ar
    18    18    19   ar
    19    11    19   ar
    20    15    19   ar
    21     6    20   ar
    22     2    20   ar
    23     1    21    1
    24     1    22    1
    25     1    23    1
    26     7    24    1
    27     3    25    1
    28     4    26    1
    29     5    27    1
    30    12    28    1
    31    13    29    1
    32    14    30    1
    33    20    31    1
@<TRIPOS>MOLECULE
mol13_1_11
 31 33 0 0 0
SMALL
USER_CHARGES
****
VDW energy = -49.40
@<TRIPOS>ATOM
   1 C1        2.8832    -9.8059    -4.4252  C.3     1  <O>11      -0.0397
   2 C2        1.4617   -10.1611    -4.6036  C.ar    1  <O>11      -0.0487
   3 C3        0.8050   -10.8783    -3.6012  C.ar    1  <O>11      -0.0587
   4 C4       -0.5391   -11.2290    -3.7692  C.ar    1  <O>11      -0.0597
   5 C5       -1.2224   -10.8607    -4.9311  C.ar    1  <O>11      -0.0393
   6 C6       -0.5527   -10.1366    -5.9237  C.ar    1  <O>11       0.0483
   7 N1       -1.2620    -9.7580    -7.1200  N.pl3   1  <O>11      -0.2162
   8 S1       -1.2697   -10.7648    -8.4293  S.O2    1  <O>11       0.0745
   9 O1       -1.9482   -12.2205    -8.0050  O.2     1  <O>11      -0.1499
  10 O2        0.2888   -11.0103    -8.9487  O.2     1  <O>11      -0.1499
  11 C7       -2.2165   -10.0299    -9.7316  C.ar    1  <O>11       0.1365
  12 C8       -2.8276    -8.7675    -9.5615  C.ar    1  <O>11      -0.0328
  13 C9       -3.5876    -8.1648   -10.5919  C.ar    1  <O>11      -0.0577
  14 C10      -3.7936    -8.7632   -11.8489  C.ar    1  <O>11      -0.0334
  15 C11      -3.1887   -10.0287   -12.0395  C.ar    1  <O>11       0.1018
  16 N2       -3.2549   -10.7746   -13.1533  N.ar    1  <O>11      -0.1907
  17 S2       -2.3788   -12.1530   -12.8440  S.2     1  <O>11       0.1165
  18 N3       -1.8767   -11.8662   -11.2851  N.ar    1  <O>11      -0.1888
  19 C12      -2.3793   -10.6725   -10.9421  C.ar    1  <O>11       0.1264
  20 C13       0.7874    -9.7806    -5.7650  C.ar    1  <O>11      -0.0364
  21 H1        3.2314    -9.2521    -5.2971  H       1  <O>11       0.0278
  22 H2        3.4736   -10.7152    -4.3128  H       1  <O>11       0.0278
  23 H3        2.9942    -9.1880    -3.5342  H       1  <O>11       0.0278
  24 H4       -1.7593    -8.8674    -7.1568  H       1  <O>11       0.1737
  25 H5        1.3082   -11.1481    -2.7415  H       1  <O>11       0.0620
  26 H6       -1.0275   -11.7615    -3.0324  H       1  <O>11       0.0618
  27 H7       -2.2132   -11.1207    -5.0562  H       1  <O>11       0.0636
  28 H8       -2.7169    -8.2723    -8.6629  H       1  <O>11       0.0638
  29 H9       -4.0116    -7.2411   -10.4127  H       1  <O>11       0.0619
  30 H10      -4.3519    -8.3069   -12.5872  H       1  <O>11       0.0640
  31 H11       1.2744    -9.2420    -6.4983  H       1  <O>11       0.0639
@<TRIPOS>BOND
     1     1     2    1
     2     2     3   ar
     3     3     4   ar
     4     4     5   ar
     5     5     6   ar
     6     6     7    1
     7     7     8    1
     8     8     9    2
     9     8    10    2
    10     8    11    1
    11    11    12   ar
    12    12    13   ar
    13    13    14   ar
    14    14    15   ar
    15    15    16   ar
    16    16    17   ar
    17    17    18   ar
    18    18    19   ar
    19    11    19   ar
    20    15    19   ar
    21     6    20   ar
    22     2    20   ar
    23     1    21    1
    24     1    22    1
    25     1    23    1
    26     7    24    1
    27     3    25    1
    28     4    26    1
    29     5    27    1
    30    12    28    1
    31    13    29    1
    32    14    30    1
    33    20    31    1
@<TRIPOS>MOLECULE
mol13_1_12
 31 33 0 0 0
SMALL
USER_CHARGES
****
VDW energy = -48.93
@<TRIPOS>ATOM
   1 C1        2.8832    -9.8059    -4.4252  C.3     1  <O>11      -0.0397
   2 C2        1.4617   -10.1611    -4.6036  C.ar    1  <O>11      -0.0487
   3 C3        0.8050   -10.8783    -3.6012  C.ar    1  <O>11      -0.0587
   4 C4       -0.5391   -11.2290    -3.7692  C.ar    1  <O>11      -0.0597
   5 C5       -1.2224   -10.8607    -4.9311  C.ar    1  <O>11      -0.0393
   6 C6       -0.5527   -10.1366    -5.9237  C.ar    1  <O>11       0.0483
   7 N1       -1.2620    -9.7580    -7.1200  N.pl3   1  <O>11      -0.2162
   8 S1       -2.5157    -8.6863    -7.0327  S.O2    1  <O>11       0.0745
   9 O1       -1.9694    -7.2433    -6.4172  O.2     1  <O>11      -0.1499
  10 O2       -3.7000    -9.2985    -6.0419  O.2     1  <O>11      -0.1499
  11 C7       -3.1794    -8.4234    -8.6522  C.ar    1  <O>11       0.1365
  12 C8       -3.1321    -9.4418    -9.6303  C.ar    1  <O>11      -0.0328
  13 C9       -3.6582    -9.2493   -10.9298  C.ar    1  <O>11      -0.0577
  14 C10      -4.2612    -8.0482   -11.3474  C.ar    1  <O>11      -0.0334
  15 C11      -4.3189    -7.0151   -10.3814  C.ar    1  <O>11       0.1018
  16 N2       -4.8467    -5.7946   -10.5629  N.ar    1  <O>11      -0.1907
  17 S2       -4.6542    -4.9848    -9.1240  S.2     1  <O>11       0.1165
  18 N3       -3.8933    -6.1446    -8.2070  N.ar    1  <O>11      -0.1888
  19 C12      -3.7580    -7.2186    -8.9965  C.ar    1  <O>11       0.1264
  20 C13       0.7874    -9.7806    -5.7650  C.ar    1  <O>11      -0.0364
  21 H1        3.2314    -9.2521    -5.2971  H       1  <O>11       0.0278
  22 H2        3.4736   -10.7152    -4.3128  H       1  <O>11       0.0278
  23 H3        2.9942    -9.1880    -3.5342  H       1  <O>11       0.0278
  24 H4       -0.9885   -10.1528    -8.0206  H       1  <O>11       0.1737
  25 H5        1.3082   -11.1481    -2.7415  H       1  <O>11       0.0620
  26 H6       -1.0275   -11.7615    -3.0324  H       1  <O>11       0.0618
  27 H7       -2.2132   -11.1207    -5.0562  H       1  <O>11       0.0636
  28 H8       -2.7030   -10.3493    -9.3909  H       1  <O>11       0.0638
  29 H9       -3.5966   -10.0279   -11.6044  H       1  <O>11       0.0619
  30 H10      -4.6385    -7.9279   -12.3004  H       1  <O>11       0.0640
  31 H11       1.2744    -9.2420    -6.4983  H       1  <O>11       0.0639
@<TRIPOS>BOND
     1     1     2    1
     2     2     3   ar
     3     3     4   ar
     4     4     5   ar
     5     5     6   ar
     6     6     7    1
     7     7     8    1
     8     8     9    2
     9     8    10    2
    10     8    11    1
    11    11    12   ar
    12    12    13   ar
    13    13    14   ar
    14    14    15   ar
    15    15    16   ar
    16    16    17   ar
    17    17    18   ar
    18    18    19   ar
    19    11    19   ar
    20    15    19   ar
    21     6    20   ar
    22     2    20   ar
    23     1    21    1
    24     1    22    1
    25     1    23    1
    26     7    24    1
    27     3    25    1
    28     4    26    1
    29     5    27    1
    30    12    28    1
    31    13    29    1
    32    14    30    1
    33    20    31    1
@<TRIPOS>MOLECULE
mol13_1_13
 31 33 0 0 0
SMALL
USER_CHARGES
****
VDW energy = -48.92
@<TRIPOS>ATOM
   1 C1        2.8832    -9.8059    -4.4252  C.3     1  <O>11      -0.0397
   2 C2        1.4617   -10.1611    -4.6036  C.ar    1  <O>11      -0.0487
   3 C3        0.8050   -10.8783    -3.6012  C.ar    1  <O>11      -0.0587
   4 C4       -0.5391   -11.2290    -3.7692  C.ar    1  <O>11      -0.0597
   5 C5       -1.2224   -10.8607    -4.9311  C.ar    1  <O>11      -0.0393
   6 C6       -0.5527   -10.1366    -5.9237  C.ar    1  <O>11       0.0483
   7 N1       -1.2620    -9.7580    -7.1200  N.pl3   1  <O>11      -0.2162
   8 S1       -1.7883   -10.9188    -8.1706  S.O2    1  <O>11       0.0745
   9 O1       -2.8394   -11.9393    -7.3876  O.2     1  <O>11      -0.1499
  10 O2       -0.4888   -11.7870    -8.7333  O.2     1  <O>11      -0.1499
  11 C7       -2.6172   -10.1489    -9.5316  C.ar    1  <O>11       0.1365
  12 C8       -2.2510    -8.8558    -9.9673  C.ar    1  <O>11      -0.0328
  13 C9       -2.9023    -8.2252   -11.0538  C.ar    1  <O>11      -0.0577
  14 C10      -3.9506    -8.8242   -11.7772  C.ar    1  <O>11      -0.0334
  15 C11      -4.3322   -10.1207   -11.3564  C.ar    1  <O>11       0.1018
  16 N2       -5.3021   -10.8724   -11.8999  N.ar    1  <O>11      -0.1907
  17 S2       -5.3339   -12.2905   -11.0331  S.2     1  <O>11       0.1165
  18 N3       -4.1202   -12.0151    -9.9304  N.ar    1  <O>11      -0.1888
  19 C12      -3.6394   -10.7935   -10.1982  C.ar    1  <O>11       0.1264
  20 C13       0.7874    -9.7806    -5.7650  C.ar    1  <O>11      -0.0364
  21 H1        3.2314    -9.2521    -5.2971  H       1  <O>11       0.0278
  22 H2        3.4736   -10.7152    -4.3128  H       1  <O>11       0.0278
  23 H3        2.9942    -9.1880    -3.5342  H       1  <O>11       0.0278
  24 H4       -1.4386    -8.7722    -7.3168  H       1  <O>11       0.1737
  25 H5        1.3082   -11.1481    -2.7415  H       1  <O>11       0.0620
  26 H6       -1.0275   -11.7615    -3.0324  H       1  <O>11       0.0618
  27 H7       -2.2132   -11.1207    -5.0562  H       1  <O>11       0.0636
  28 H8       -1.4888    -8.3583    -9.4806  H       1  <O>11       0.0638
  29 H9       -2.5936    -7.2798   -11.3293  H       1  <O>11       0.0619
  30 H10      -4.4130    -8.3469   -12.5667  H       1  <O>11       0.0640
  31 H11       1.2744    -9.2420    -6.4983  H       1  <O>11       0.0639
@<TRIPOS>BOND
     1     1     2    1
     2     2     3   ar
     3     3     4   ar
     4     4     5   ar
     5     5     6   ar
     6     6     7    1
     7     7     8    1
     8     8     9    2
     9     8    10    2
    10     8    11    1
    11    11    12   ar
    12    12    13   ar
    13    13    14   ar
    14    14    15   ar
    15    15    16   ar
    16    16    17   ar
    17    17    18   ar
    18    18    19   ar
    19    11    19   ar
    20    15    19   ar
    21     6    20   ar
    22     2    20   ar
    23     1    21    1
    24     1    22    1
    25     1    23    1
    26     7    24    1
    27     3    25    1
    28     4    26    1
    29     5    27    1
    30    12    28    1
    31    13    29    1
    32    14    30    1
    33    20    31    1
@<TRIPOS>MOLECULE
mol13_1_14
 31 33 0 0 0
SMALL
USER_CHARGES
****
VDW energy = -48.32
@<TRIPOS>ATOM
   1 C1        2.8832    -9.8059    -4.4252  C.3     1  <O>11      -0.0397
   2 C2        1.4617   -10.1611    -4.6036  C.ar    1  <O>11      -0.0487
   3 C3        0.8050   -10.8783    -3.6012  C.ar    1  <O>11      -0.0587
   4 C4       -0.5391   -11.2290    -3.7692  C.ar    1  <O>11      -0.0597
   5 C5       -1.2224   -10.8607    -4.9311  C.ar    1  <O>11      -0.0393
   6 C6       -0.5527   -10.1366    -5.9237  C.ar    1  <O>11       0.0483
   7 N1       -1.2620    -9.7580    -7.1200  N.pl3   1  <O>11      -0.2162
   8 S1       -2.5157    -8.6863    -7.0327  S.O2    1  <O>11       0.0745
   9 O1       -3.6997    -9.2980    -6.0410  O.2     1  <O>11      -0.1499
  10 O2       -3.1392    -8.4381    -8.5522  O.2     1  <O>11      -0.1499
  11 C7       -1.9322    -7.1497    -6.3765  C.ar    1  <O>11       0.1365
  12 C8       -2.0347    -5.9553    -7.1242  C.ar    1  <O>11      -0.0328
  13 C9       -1.5739    -4.7179    -6.6151  C.ar    1  <O>11      -0.0577
  14 C10      -0.9857    -4.5779    -5.3443  C.ar    1  <O>11      -0.0334
  15 C11      -0.8743    -5.7635    -4.5790  C.ar    1  <O>11       0.1018
  16 N2       -0.3487    -5.8608    -3.3479  N.ar    1  <O>11      -0.1907
  17 S2       -0.4639    -7.4622    -2.9171  S.2     1  <O>11       0.1165
  18 N3       -1.1849    -8.1036    -4.2712  N.ar    1  <O>11      -0.1888
  19 C12      -1.3642    -7.0829    -5.1205  C.ar    1  <O>11       0.1264
  20 C13       0.7874    -9.7806    -5.7650  C.ar    1  <O>11      -0.0364
  21 H1        3.2314    -9.2521    -5.2971  H       1  <O>11       0.0278
  22 H2        3.4736   -10.7152    -4.3128  H       1  <O>11       0.0278
  23 H3        2.9942    -9.1880    -3.5342  H       1  <O>11       0.0278
  24 H4       -0.9885   -10.1528    -8.0206  H       1  <O>11       0.1737
  25 H5        1.3082   -11.1481    -2.7415  H       1  <O>11       0.0620
  26 H6       -1.0275   -11.7615    -3.0324  H       1  <O>11       0.0618
  27 H7       -2.2132   -11.1207    -5.0562  H       1  <O>11       0.0636
  28 H8       -2.4565    -5.9860    -8.0656  H       1  <O>11       0.0638
  29 H9       -1.6741    -3.8769    -7.2048  H       1  <O>11       0.0619
  30 H10      -0.6556    -3.6660    -4.9916  H       1  <O>11       0.0640
  31 H11       1.2744    -9.2420    -6.4983  H       1  <O>11       0.0639
@<TRIPOS>BOND
     1     1     2    1
     2     2     3   ar
     3     3     4   ar
     4     4     5   ar
     5     5     6   ar
     6     6     7    1
     7     7     8    1
     8     8     9    2
     9     8    10    2
    10     8    11    1
    11    11    12   ar
    12    12    13   ar
    13    13    14   ar
    14    14    15   ar
    15    15    16   ar
    16    16    17   ar
    17    17    18   ar
    18    18    19   ar
    19    11    19   ar
    20    15    19   ar
    21     6    20   ar
    22     2    20   ar
    23     1    21    1
    24     1    22    1
    25     1    23    1
    26     7    24    1
    27     3    25    1
    28     4    26    1
    29     5    27    1
    30    12    28    1
    31    13    29    1
    32    14    30    1
    33    20    31    1
@<TRIPOS>MOLECULE
mol13_1_15
 31 33 0 0 0
SMALL
USER_CHARGES
****
VDW energy = -48.16
@<TRIPOS>ATOM
   1 C1        2.8832    -9.8059    -4.4252  C.3     1  <O>11      -0.0397
   2 C2        1.4617   -10.1611    -4.6036  C.ar    1  <O>11      -0.0487
   3 C3        0.8050   -10.8783    -3.6012  C.ar    1  <O>11      -0.0587
   4 C4       -0.5391   -11.2290    -3.7692  C.ar    1  <O>11      -0.0597
   5 C5       -1.2224   -10.8607    -4.9311  C.ar    1  <O>11      -0.0393
   6 C6       -0.5527   -10.1366    -5.9237  C.ar    1  <O>11       0.0483
   7 N1       -1.2620    -9.7580    -7.1200  N.pl3   1  <O>11      -0.2162
   8 S1       -2.5157    -8.6863    -7.0327  S.O2    1  <O>11       0.0745
   9 O1       -1.9694    -7.2433    -6.4172  O.2     1  <O>11      -0.1499
  10 O2       -3.7000    -9.2985    -6.0419  O.2     1  <O>11      -0.1499
  11 C7       -3.1794    -8.4234    -8.6522  C.ar    1  <O>11       0.1365
  12 C8       -2.6363    -9.0859    -9.7757  C.ar    1  <O>11      -0.0328
  13 C9       -3.1546    -8.8881   -11.0776  C.ar    1  <O>11      -0.0577
  14 C10      -4.2348    -8.0298   -11.3552  C.ar    1  <O>11      -0.0334
  15 C11      -4.7936    -7.3568   -10.2423  C.ar    1  <O>11       0.1018
  16 N2       -5.8230    -6.4964   -10.2767  N.ar    1  <O>11      -0.1907
  17 S2       -6.0699    -6.0021    -8.7089  S.2     1  <O>11       0.1165
  18 N3       -4.8833    -6.8561    -7.9168  N.ar    1  <O>11      -0.1888
  19 C12      -4.2418    -7.5660    -8.8547  C.ar    1  <O>11       0.1264
  20 C13       0.7874    -9.7806    -5.7650  C.ar    1  <O>11      -0.0364
  21 H1        3.2314    -9.2521    -5.2971  H       1  <O>11       0.0278
  22 H2        3.4736   -10.7152    -4.3128  H       1  <O>11       0.0278
  23 H3        2.9942    -9.1880    -3.5342  H       1  <O>11       0.0278
  24 H4       -0.9885   -10.1528    -8.0206  H       1  <O>11       0.1737
  25 H5        1.3082   -11.1481    -2.7415  H       1  <O>11       0.0620
  26 H6       -1.0275   -11.7615    -3.0324  H       1  <O>11       0.0618
  27 H7       -2.2132   -11.1207    -5.0562  H       1  <O>11       0.0636
  28 H8       -1.8414    -9.7307    -9.6435  H       1  <O>11       0.0638
  29 H9       -2.7189    -9.3982   -11.8618  H       1  <O>11       0.0619
  30 H10      -4.5977    -7.8991   -12.3125  H       1  <O>11       0.0640
  31 H11       1.2744    -9.2420    -6.4983  H       1  <O>11       0.0639
@<TRIPOS>BOND
     1     1     2    1
     2     2     3   ar
     3     3     4   ar
     4     4     5   ar
     5     5     6   ar
     6     6     7    1
     7     7     8    1
     8     8     9    2
     9     8    10    2
    10     8    11    1
    11    11    12   ar
    12    12    13   ar
    13    13    14   ar
    14    14    15   ar
    15    15    16   ar
    16    16    17   ar
    17    17    18   ar
    18    18    19   ar
    19    11    19   ar
    20    15    19   ar
    21     6    20   ar
    22     2    20   ar
    23     1    21    1
    24     1    22    1
    25     1    23    1
    26     7    24    1
    27     3    25    1
    28     4    26    1
    29     5    27    1
    30    12    28    1
    31    13    29    1
    32    14    30    1
    33    20    31    1
@<TRIPOS>MOLECULE
mol13_1_16
 31 33 0 0 0
SMALL
USER_CHARGES
****
VDW energy = -48.13
@<TRIPOS>ATOM
   1 C1        2.8832    -9.8059    -4.4252  C.3     1  <O>11      -0.0397
   2 C2        1.4617   -10.1611    -4.6036  C.ar    1  <O>11      -0.0487
   3 C3        0.8050   -10.8783    -3.6012  C.ar    1  <O>11      -0.0587
   4 C4       -0.5391   -11.2290    -3.7692  C.ar    1  <O>11      -0.0597
   5 C5       -1.2224   -10.8607    -4.9311  C.ar    1  <O>11      -0.0393
   6 C6       -0.5527   -10.1366    -5.9237  C.ar    1  <O>11       0.0483
   7 N1       -1.2620    -9.7580    -7.1200  N.pl3   1  <O>11      -0.2162
   8 S1       -0.4890    -8.9031    -8.3031  S.O2    1  <O>11       0.0745
   9 O1        0.0492    -7.4595    -7.6820  O.2     1  <O>11      -0.1499
  10 O2       -1.5426    -8.6101    -9.5533  O.2     1  <O>11      -0.1499
  11 C7        0.8894    -9.8388    -8.9005  C.ar    1  <O>11       0.1365
  12 C8        2.0430    -9.1939    -9.3999  C.ar    1  <O>11      -0.0328
  13 C9        3.1543    -9.9259    -9.8811  C.ar    1  <O>11      -0.0577
  14 C10       3.2008   -11.3324    -9.9014  C.ar    1  <O>11      -0.0334
  15 C11       2.0544   -11.9976    -9.4045  C.ar    1  <O>11       0.1018
  16 N2        1.8840   -13.3269    -9.3311  N.ar    1  <O>11      -0.1907
  17 S2        0.3747   -13.5680    -8.6775  S.2     1  <O>11       0.1165
  18 N3       -0.1301   -11.9989    -8.4584  N.ar    1  <O>11      -0.1888
  19 C12       0.8691   -11.2188    -8.8922  C.ar    1  <O>11       0.1264
  20 C13       0.7874    -9.7806    -5.7650  C.ar    1  <O>11      -0.0364
  21 H1        3.2314    -9.2521    -5.2971  H       1  <O>11       0.0278
  22 H2        3.4736   -10.7152    -4.3128  H       1  <O>11       0.0278
  23 H3        2.9942    -9.1880    -3.5342  H       1  <O>11       0.0278
  24 H4       -2.2420   -10.0189    -7.2350  H       1  <O>11       0.1737
  25 H5        1.3082   -11.1481    -2.7415  H       1  <O>11       0.0620
  26 H6       -1.0275   -11.7615    -3.0324  H       1  <O>11       0.0618
  27 H7       -2.2132   -11.1207    -5.0562  H       1  <O>11       0.0636
  28 H8        2.0759    -8.1624    -9.4141  H       1  <O>11       0.0638
  29 H9        3.9707    -9.4028   -10.2344  H       1  <O>11       0.0619
  30 H10       4.0212   -11.8476   -10.2571  H       1  <O>11       0.0640
  31 H11       1.2744    -9.2420    -6.4983  H       1  <O>11       0.0639
@<TRIPOS>BOND
     1     1     2    1
     2     2     3   ar
     3     3     4   ar
     4     4     5   ar
     5     5     6   ar
     6     6     7    1
     7     7     8    1
     8     8     9    2
     9     8    10    2
    10     8    11    1
    11    11    12   ar
    12    12    13   ar
    13    13    14   ar
    14    14    15   ar
    15    15    16   ar
    16    16    17   ar
    17    17    18   ar
    18    18    19   ar
    19    11    19   ar
    20    15    19   ar
    21     6    20   ar
    22     2    20   ar
    23     1    21    1
    24     1    22    1
    25     1    23    1
    26     7    24    1
    27     3    25    1
    28     4    26    1
    29     5    27    1
    30    12    28    1
    31    13    29    1
    32    14    30    1
    33    20    31    1
@<TRIPOS>MOLECULE
mol13_1_17
 31 33 0 0 0
SMALL
USER_CHARGES
****
VDW energy = -47.51
@<TRIPOS>ATOM
   1 C1        2.8832    -9.8059    -4.4252  C.3     1  <O>11      -0.0397
   2 C2        1.4617   -10.1611    -4.6036  C.ar    1  <O>11      -0.0487
   3 C3        0.8050   -10.8783    -3.6012  C.ar    1  <O>11      -0.0587
   4 C4       -0.5391   -11.2290    -3.7692  C.ar    1  <O>11      -0.0597
   5 C5       -1.2224   -10.8607    -4.9311  C.ar    1  <O>11      -0.0393
   6 C6       -0.5527   -10.1366    -5.9237  C.ar    1  <O>11       0.0483
   7 N1       -1.2620    -9.7580    -7.1200  N.pl3   1  <O>11      -0.2162
   8 S1       -2.5157    -8.6863    -7.0327  S.O2    1  <O>11       0.0745
   9 O1       -3.6997    -9.2980    -6.0410  O.2     1  <O>11      -0.1499
  10 O2       -3.1392    -8.4381    -8.5522  O.2     1  <O>11      -0.1499
  11 C7       -1.9322    -7.1497    -6.3765  C.ar    1  <O>11       0.1365
  12 C8       -2.7849    -6.3106    -5.6249  C.ar    1  <O>11      -0.0328
  13 C9       -2.3352    -5.0791    -5.0924  C.ar    1  <O>11      -0.0577
  14 C10      -1.0242    -4.5973    -5.2648  C.ar    1  <O>11      -0.0334
  15 C11      -0.1537    -5.4240    -6.0148  C.ar    1  <O>11       0.1018
  16 N2        1.1311    -5.1618    -6.3007  N.ar    1  <O>11      -0.1907
  17 S2        1.6808    -6.4482    -7.1986  S.2     1  <O>11       0.1165
  18 N3        0.3153    -7.3946    -7.2653  N.ar    1  <O>11      -0.1888
  19 C12      -0.6318    -6.7362    -6.5836  C.ar    1  <O>11       0.1264
  20 C13       0.7874    -9.7806    -5.7650  C.ar    1  <O>11      -0.0364
  21 H1        3.2314    -9.2521    -5.2971  H       1  <O>11       0.0278
  22 H2        3.4736   -10.7152    -4.3128  H       1  <O>11       0.0278
  23 H3        2.9942    -9.1880    -3.5342  H       1  <O>11       0.0278
  24 H4       -0.9885   -10.1528    -8.0206  H       1  <O>11       0.1737
  25 H5        1.3082   -11.1481    -2.7415  H       1  <O>11       0.0620
  26 H6       -1.0275   -11.7615    -3.0324  H       1  <O>11       0.0618
  27 H7       -2.2132   -11.1207    -5.0562  H       1  <O>11       0.0636
  28 H8       -3.7607    -6.6034    -5.4601  H       1  <O>11       0.0638
  29 H9       -3.0013    -4.5062    -4.5510  H       1  <O>11       0.0619
  30 H10      -0.7160    -3.6956    -4.8684  H       1  <O>11       0.0640
  31 H11       1.2744    -9.2420    -6.4983  H       1  <O>11       0.0639
@<TRIPOS>BOND
     1     1     2    1
     2     2     3   ar
     3     3     4   ar
     4     4     5   ar
     5     5     6   ar
     6     6     7    1
     7     7     8    1
     8     8     9    2
     9     8    10    2
    10     8    11    1
    11    11    12   ar
    12    12    13   ar
    13    13    14   ar
    14    14    15   ar
    15    15    16   ar
    16    16    17   ar
    17    17    18   ar
    18    18    19   ar
    19    11    19   ar
    20    15    19   ar
    21     6    20   ar
    22     2    20   ar
    23     1    21    1
    24     1    22    1
    25     1    23    1
    26     7    24    1
    27     3    25    1
    28     4    26    1
    29     5    27    1
    30    12    28    1
    31    13    29    1
    32    14    30    1
    33    20    31    1
@<TRIPOS>MOLECULE
mol13_1_18
 31 33 0 0 0
SMALL
USER_CHARGES
****
VDW energy = -46.89
@<TRIPOS>ATOM
   1 C1        2.8832    -9.8059    -4.4252  C.3     1  <O>11      -0.0397
   2 C2        1.4617   -10.1611    -4.6036  C.ar    1  <O>11      -0.0487
   3 C3        0.8050   -10.8783    -3.6012  C.ar    1  <O>11      -0.0587
   4 C4       -0.5391   -11.2290    -3.7692  C.ar    1  <O>11      -0.0597
   5 C5       -1.2224   -10.8607    -4.9311  C.ar    1  <O>11      -0.0393
   6 C6       -0.5527   -10.1366    -5.9237  C.ar    1  <O>11       0.0483
   7 N1       -1.2620    -9.7580    -7.1200  N.pl3   1  <O>11      -0.2162
   8 S1       -2.0672    -8.3172    -7.1819  S.O2    1  <O>11       0.0745
   9 O1       -3.2311    -8.2816    -5.9972  O.2     1  <O>11      -0.1499
  10 O2       -2.7858    -8.1476    -8.6698  O.2     1  <O>11      -0.1499
  11 C7       -0.9230    -6.9917    -6.9249  C.ar    1  <O>11       0.1365
  12 C8        0.4278    -7.1117    -7.3210  C.ar    1  <O>11      -0.0328
  13 C9        1.3562    -6.0621    -7.1238  C.ar    1  <O>11      -0.0577
  14 C10       1.0160    -4.8337    -6.5271  C.ar    1  <O>11      -0.0334
  15 C11      -0.3335    -4.6935    -6.1236  C.ar    1  <O>11       0.1018
  16 N2       -0.8729    -3.6135    -5.5370  N.ar    1  <O>11      -0.1907
  17 S2       -2.4743    -3.9754    -5.2768  S.2     1  <O>11       0.1165
  18 N3       -2.5555    -5.5166    -5.8955  N.ar    1  <O>11      -0.1888
  19 C12      -1.3237    -5.8114    -6.3324  C.ar    1  <O>11       0.1264
  20 C13       0.7874    -9.7806    -5.7650  C.ar    1  <O>11      -0.0364
  21 H1        3.2314    -9.2521    -5.2971  H       1  <O>11       0.0278
  22 H2        3.4736   -10.7152    -4.3128  H       1  <O>11       0.0278
  23 H3        2.9942    -9.1880    -3.5342  H       1  <O>11       0.0278
  24 H4       -1.2658   -10.3811    -7.9284  H       1  <O>11       0.1737
  25 H5        1.3082   -11.1481    -2.7415  H       1  <O>11       0.0620
  26 H6       -1.0275   -11.7615    -3.0324  H       1  <O>11       0.0618
  27 H7       -2.2132   -11.1207    -5.0562  H       1  <O>11       0.0636
  28 H8        0.7456    -7.9872    -7.7655  H       1  <O>11       0.0638
  29 H9        2.3306    -6.2044    -7.4327  H       1  <O>11       0.0619
  30 H10       1.7086    -4.0807    -6.3919  H       1  <O>11       0.0640
  31 H11       1.2744    -9.2420    -6.4983  H       1  <O>11       0.0639
@<TRIPOS>BOND
     1     1     2    1
     2     2     3   ar
     3     3     4   ar
     4     4     5   ar
     5     5     6   ar
     6     6     7    1
     7     7     8    1
     8     8     9    2
     9     8    10    2
    10     8    11    1
    11    11    12   ar
    12    12    13   ar
    13    13    14   ar
    14    14    15   ar
    15    15    16   ar
    16    16    17   ar
    17    17    18   ar
    18    18    19   ar
    19    11    19   ar
    20    15    19   ar
    21     6    20   ar
    22     2    20   ar
    23     1    21    1
    24     1    22    1
    25     1    23    1
    26     7    24    1
    27     3    25    1
    28     4    26    1
    29     5    27    1
    30    12    28    1
    31    13    29    1
    32    14    30    1
    33    20    31    1
@<TRIPOS>MOLECULE
mol13_1_19
 31 33 0 0 0
SMALL
USER_CHARGES
****
VDW energy = -46.47
@<TRIPOS>ATOM
   1 C1        2.8832    -9.8059    -4.4252  C.3     1  <O>11      -0.0397
   2 C2        1.4617   -10.1611    -4.6036  C.ar    1  <O>11      -0.0487
   3 C3        0.8050   -10.8783    -3.6012  C.ar    1  <O>11      -0.0587
   4 C4       -0.5391   -11.2290    -3.7692  C.ar    1  <O>11      -0.0597
   5 C5       -1.2224   -10.8607    -4.9311  C.ar    1  <O>11      -0.0393
   6 C6       -0.5527   -10.1366    -5.9237  C.ar    1  <O>11       0.0483
   7 N1       -1.2620    -9.7580    -7.1200  N.pl3   1  <O>11      -0.2162
   8 S1       -0.4890    -8.9030    -8.3030  S.O2    1  <O>11       0.0745
   9 O1        0.8050    -9.7800    -8.8650  O.2     1  <O>11      -0.1499
  10 O2        0.0480    -7.4590    -7.6820  O.2     1  <O>11      -0.1499
  11 C7       -1.6130    -8.5910    -9.6340  C.ar    1  <O>11       0.1365
  12 C8       -1.9300    -7.2700   -10.0220  C.ar    1  <O>11      -0.0328
  13 C9       -2.8260    -7.0020   -11.0840  C.ar    1  <O>11      -0.0577
  14 C10      -3.4640    -8.0120   -11.8280  C.ar    1  <O>11      -0.0334
  15 C11      -3.1590    -9.3430   -11.4550  C.ar    1  <O>11       0.1018
  16 N2       -3.6510   -10.4540   -12.0250  N.ar    1  <O>11      -0.1907
  17 S2       -2.9730   -11.7350   -11.2110  S.2     1  <O>11       0.1165
  18 N3       -2.0260   -10.9390   -10.1000  N.ar    1  <O>11      -0.1888
  19 C12      -2.2050    -9.6300   -10.3230  C.ar    1  <O>11       0.1264
  20 C13       0.7874    -9.7806    -5.7650  C.ar    1  <O>11      -0.0364
  21 H1        3.2314    -9.2521    -5.2971  H       1  <O>11       0.0278
  22 H2        3.4736   -10.7152    -4.3128  H       1  <O>11       0.0278
  23 H3        2.9942    -9.1880    -3.5342  H       1  <O>11       0.0278
  24 H4       -2.2420   -10.0190    -7.2350  H       1  <O>11       0.1737
  25 H5        1.3082   -11.1481    -2.7415  H       1  <O>11       0.0620
  26 H6       -1.0275   -11.7615    -3.0324  H       1  <O>11       0.0618
  27 H7       -2.2132   -11.1207    -5.0562  H       1  <O>11       0.0636
  28 H8       -1.4970    -6.4803    -9.5180  H       1  <O>11       0.0638
  29 H9       -3.0212    -6.0176   -11.3247  H       1  <O>11       0.0619
  30 H10      -4.1149    -7.7953   -12.5990  H       1  <O>11       0.0640
  31 H11       1.2744    -9.2420    -6.4983  H       1  <O>11       0.0639
@<TRIPOS>BOND
     1     1     2    1
     2     2     3   ar
     3     3     4   ar
     4     4     5   ar
     5     5     6   ar
     6     6     7    1
     7     7     8    1
     8     8     9    2
     9     8    10    2
    10     8    11    1
    11    11    12   ar
    12    12    13   ar
    13    13    14   ar
    14    14    15   ar
    15    15    16   ar
    16    16    17   ar
    17    17    18   ar
    18    18    19   ar
    19    11    19   ar
    20    15    19   ar
    21     6    20   ar
    22     2    20   ar
    23     1    21    1
    24     1    22    1
    25     1    23    1
    26     7    24    1
    27     3    25    1
    28     4    26    1
    29     5    27    1
    30    12    28    1
    31    13    29    1
    32    14    30    1
    33    20    31    1
@<TRIPOS>MOLECULE
mol13_1_20
 31 33 0 0 0
SMALL
USER_CHARGES
****
VDW energy = -46.39
@<TRIPOS>ATOM
   1 C1        2.8832    -9.8059    -4.4252  C.3     1  <O>11      -0.0397
   2 C2        1.4617   -10.1611    -4.6036  C.ar    1  <O>11      -0.0487
   3 C3        0.8050   -10.8783    -3.6012  C.ar    1  <O>11      -0.0587
   4 C4       -0.5391   -11.2290    -3.7692  C.ar    1  <O>11      -0.0597
   5 C5       -1.2224   -10.8607    -4.9311  C.ar    1  <O>11      -0.0393
   6 C6       -0.5527   -10.1366    -5.9237  C.ar    1  <O>11       0.0483
   7 N1       -1.2620    -9.7580    -7.1200  N.pl3   1  <O>11      -0.2162
   8 S1       -1.2697   -10.7648    -8.4293  S.O2    1  <O>11       0.0745
   9 O1        0.2890   -11.0112    -8.9481  O.2     1  <O>11      -0.1499
  10 O2       -2.1585   -10.0766    -9.6522  O.2     1  <O>11      -0.1499
  11 C7       -1.9926   -12.3153    -7.9755  C.ar    1  <O>11       0.1365
  12 C8       -2.9817   -12.3884    -6.9694  C.ar    1  <O>11      -0.0328
  13 C9       -3.5707   -13.6191    -6.5942  C.ar    1  <O>11      -0.0577
  14 C10      -3.2254   -14.8502    -7.1823  C.ar    1  <O>11      -0.0334
  15 C11      -2.2361   -14.7982    -8.1934  C.ar    1  <O>11       0.1018
  16 N2       -1.7580   -15.8454    -8.8833  N.ar    1  <O>11      -0.1907
  17 S2       -0.6261   -15.2330    -9.9354  S.2     1  <O>11       0.1165
  18 N3       -0.6912   -13.6137    -9.5634  N.ar    1  <O>11      -0.1888
  19 C12      -1.6071   -13.4875    -8.5936  C.ar    1  <O>11       0.1264
  20 C13       0.7874    -9.7806    -5.7650  C.ar    1  <O>11      -0.0364
  21 H1        3.2314    -9.2521    -5.2971  H       1  <O>11       0.0278
  22 H2        3.4736   -10.7152    -4.3128  H       1  <O>11       0.0278
  23 H3        2.9942    -9.1880    -3.5342  H       1  <O>11       0.0278
  24 H4       -1.7593    -8.8674    -7.1568  H       1  <O>11       0.1737
  25 H5        1.3082   -11.1481    -2.7415  H       1  <O>11       0.0620
  26 H6       -1.0275   -11.7615    -3.0324  H       1  <O>11       0.0618
  27 H7       -2.2132   -11.1207    -5.0562  H       1  <O>11       0.0636
  28 H8       -3.2824   -11.5220    -6.4960  H       1  <O>11       0.0638
  29 H9       -4.2887   -13.6137    -5.8529  H       1  <O>11       0.0619
  30 H10      -3.6668   -15.7373    -6.8938  H       1  <O>11       0.0640
  31 H11       1.2744    -9.2420    -6.4983  H       1  <O>11       0.0639
@<TRIPOS>BOND
     1     1     2    1
     2     2     3   ar
     3     3     4   ar
     4     4     5   ar
     5     5     6   ar
     6     6     7    1
     7     7     8    1
     8     8     9    2
     9     8    10    2
    10     8    11    1
    11    11    12   ar
    12    12    13   ar
    13    13    14   ar
    14    14    15   ar
    15    15    16   ar
    16    16    17   ar
    17    17    18   ar
    18    18    19   ar
    19    11    19   ar
    20    15    19   ar
    21     6    20   ar
    22     2    20   ar
    23     1    21    1
    24     1    22    1
    25     1    23    1
    26     7    24    1
    27     3    25    1
    28     4    26    1
    29     5    27    1
    30    12    28    1
    31    13    29    1
    32    14    30    1
    33    20    31    1
@<TRIPOS>MOLECULE
mol13_1_21
 31 33 0 0 0
SMALL
USER_CHARGES
****
VDW energy = -46.32
@<TRIPOS>ATOM
   1 C1        2.8832    -9.8059    -4.4252  C.3     1  <O>11      -0.0397
   2 C2        1.4617   -10.1611    -4.6036  C.ar    1  <O>11      -0.0487
   3 C3        0.8050   -10.8783    -3.6012  C.ar    1  <O>11      -0.0587
   4 C4       -0.5391   -11.2290    -3.7692  C.ar    1  <O>11      -0.0597
   5 C5       -1.2224   -10.8607    -4.9311  C.ar    1  <O>11      -0.0393
   6 C6       -0.5527   -10.1366    -5.9237  C.ar    1  <O>11       0.0483
   7 N1       -1.2620    -9.7580    -7.1200  N.pl3   1  <O>11      -0.2162
   8 S1       -0.4890    -8.9031    -8.3031  S.O2    1  <O>11       0.0745
   9 O1        0.0492    -7.4595    -7.6820  O.2     1  <O>11      -0.1499
  10 O2       -1.5426    -8.6101    -9.5533  O.2     1  <O>11      -0.1499
  11 C7        0.8894    -9.8388    -8.9005  C.ar    1  <O>11       0.1365
  12 C8        0.8666   -11.2514    -8.8913  C.ar    1  <O>11      -0.0328
  13 C9        1.9593   -12.0155    -9.3655  C.ar    1  <O>11      -0.0577
  14 C10       3.1380   -11.4409    -9.8763  C.ar    1  <O>11      -0.0334
  15 C11       3.1803   -10.0261    -9.8946  C.ar    1  <O>11       0.1018
  16 N2        4.2001    -9.2734   -10.3361  N.ar    1  <O>11      -0.1907
  17 S2        3.7334    -7.6909   -10.1332  S.2     1  <O>11       0.1165
  18 N3        2.2185    -7.8890    -9.4769  N.ar    1  <O>11      -0.1888
  19 C12       2.0170    -9.2107    -9.3889  C.ar    1  <O>11       0.1264
  20 C13       0.7874    -9.7806    -5.7650  C.ar    1  <O>11      -0.0364
  21 H1        3.2314    -9.2521    -5.2971  H       1  <O>11       0.0278
  22 H2        3.4736   -10.7152    -4.3128  H       1  <O>11       0.0278
  23 H3        2.9942    -9.1880    -3.5342  H       1  <O>11       0.0278
  24 H4       -2.2420   -10.0189    -7.2350  H       1  <O>11       0.1737
  25 H5        1.3082   -11.1481    -2.7415  H       1  <O>11       0.0620
  26 H6       -1.0275   -11.7615    -3.0324  H       1  <O>11       0.0618
  27 H7       -2.2132   -11.1207    -5.0562  H       1  <O>11       0.0636
  28 H8        0.0318   -11.7385    -8.5295  H       1  <O>11       0.0638
  29 H9        1.8882   -13.0447    -9.3352  H       1  <O>11       0.0619
  30 H10       3.9242   -12.0162   -10.2169  H       1  <O>11       0.0640
  31 H11       1.2744    -9.2420    -6.4983  H       1  <O>11       0.0639
@<TRIPOS>BOND
     1     1     2    1
     2     2     3   ar
     3     3     4   ar
     4     4     5   ar
     5     5     6   ar
     6     6     7    1
     7     7     8    1
     8     8     9    2
     9     8    10    2
    10     8    11    1
    11    11    12   ar
    12    12    13   ar
    13    13    14   ar
    14    14    15   ar
    15    15    16   ar
    16    16    17   ar
    17    17    18   ar
    18    18    19   ar
    19    11    19   ar
    20    15    19   ar
    21     6    20   ar
    22     2    20   ar
    23     1    21    1
    24     1    22    1
    25     1    23    1
    26     7    24    1
    27     3    25    1
    28     4    26    1
    29     5    27    1
    30    12    28    1
    31    13    29    1
    32    14    30    1
    33    20    31    1
@<TRIPOS>MOLECULE
mol13_1_22
 31 33 0 0 0
SMALL
USER_CHARGES
****
VDW energy = -44.92
@<TRIPOS>ATOM
   1 C1        2.8832    -9.8059    -4.4252  C.3     1  <O>11      -0.0397
   2 C2        1.4617   -10.1611    -4.6036  C.ar    1  <O>11      -0.0487
   3 C3        0.8050   -10.8783    -3.6012  C.ar    1  <O>11      -0.0587
   4 C4       -0.5391   -11.2290    -3.7692  C.ar    1  <O>11      -0.0597
   5 C5       -1.2224   -10.8607    -4.9311  C.ar    1  <O>11      -0.0393
   6 C6       -0.5527   -10.1366    -5.9237  C.ar    1  <O>11       0.0483
   7 N1       -1.2620    -9.7580    -7.1200  N.pl3   1  <O>11      -0.2162
   8 S1       -0.4890    -8.9030    -8.3030  S.O2    1  <O>11       0.0745
   9 O1        0.8050    -9.7800    -8.8650  O.2     1  <O>11      -0.1499
  10 O2        0.0480    -7.4590    -7.6820  O.2     1  <O>11      -0.1499
  11 C7       -1.6130    -8.5910    -9.6340  C.ar    1  <O>11       0.1365
  12 C8       -1.1490    -8.4705   -10.9630  C.ar    1  <O>11      -0.0328
  13 C9       -2.0333    -8.2217   -12.0394  C.ar    1  <O>11      -0.0577
  14 C10      -3.4236    -8.0762   -11.8771  C.ar    1  <O>11      -0.0334
  15 C11      -3.9087    -8.1942   -10.5526  C.ar    1  <O>11       0.1018
  16 N2       -5.1911    -8.0905   -10.1704  N.ar    1  <O>11      -0.1907
  17 S2       -5.2054    -8.3076    -8.5224  S.2     1  <O>11       0.1165
  18 N3       -3.5874    -8.5423    -8.2197  N.ar    1  <O>11      -0.1888
  19 C12      -2.9674    -8.4585    -9.4045  C.ar    1  <O>11       0.1264
  20 C13       0.7874    -9.7806    -5.7650  C.ar    1  <O>11      -0.0364
  21 H1        3.2314    -9.2521    -5.2971  H       1  <O>11       0.0278
  22 H2        3.4736   -10.7152    -4.3128  H       1  <O>11       0.0278
  23 H3        2.9942    -9.1880    -3.5342  H       1  <O>11       0.0278
  24 H4       -2.2420   -10.0190    -7.2350  H       1  <O>11       0.1737
  25 H5        1.3082   -11.1481    -2.7415  H       1  <O>11       0.0620
  26 H6       -1.0275   -11.7615    -3.0324  H       1  <O>11       0.0618
  27 H7       -2.2132   -11.1207    -5.0562  H       1  <O>11       0.0636
  28 H8       -0.1392    -8.5665   -11.1536  H       1  <O>11       0.0638
  29 H9       -1.6392    -8.1430   -12.9900  H       1  <O>11       0.0619
  30 H10      -4.0516    -7.8945   -12.6757  H       1  <O>11       0.0640
  31 H11       1.2744    -9.2420    -6.4983  H       1  <O>11       0.0639
@<TRIPOS>BOND
     1     1     2    1
     2     2     3   ar
     3     3     4   ar
     4     4     5   ar
     5     5     6   ar
     6     6     7    1
     7     7     8    1
     8     8     9    2
     9     8    10    2
    10     8    11    1
    11    11    12   ar
    12    12    13   ar
    13    13    14   ar
    14    14    15   ar
    15    15    16   ar
    16    16    17   ar
    17    17    18   ar
    18    18    19   ar
    19    11    19   ar
    20    15    19   ar
    21     6    20   ar
    22     2    20   ar
    23     1    21    1
    24     1    22    1
    25     1    23    1
    26     7    24    1
    27     3    25    1
    28     4    26    1
    29     5    27    1
    30    12    28    1
    31    13    29    1
    32    14    30    1
    33    20    31    1
@<TRIPOS>MOLECULE
mol13_1_23
 31 33 0 0 0
SMALL
USER_CHARGES
****
VDW energy = -43.60
@<TRIPOS>ATOM
   1 C1        2.8832    -9.8059    -4.4252  C.3     1  <O>11      -0.0397
   2 C2        1.4617   -10.1611    -4.6036  C.ar    1  <O>11      -0.0487
   3 C3        0.8050   -10.8783    -3.6012  C.ar    1  <O>11      -0.0587
   4 C4       -0.5391   -11.2290    -3.7692  C.ar    1  <O>11      -0.0597
   5 C5       -1.2224   -10.8607    -4.9311  C.ar    1  <O>11      -0.0393
   6 C6       -0.5527   -10.1366    -5.9237  C.ar    1  <O>11       0.0483
   7 N1       -1.2620    -9.7580    -7.1200  N.pl3   1  <O>11      -0.2162
   8 S1       -0.4890    -8.9030    -8.3030  S.O2    1  <O>11       0.0745
   9 O1        0.8050    -9.7800    -8.8650  O.2     1  <O>11      -0.1499
  10 O2        0.0480    -7.4590    -7.6820  O.2     1  <O>11      -0.1499
  11 C7       -1.6130    -8.5910    -9.6340  C.ar    1  <O>11       0.1365
  12 C8       -2.9992    -8.4555    -9.3970  C.ar    1  <O>11      -0.0328
  13 C9       -3.9122    -8.2054   -10.4489  C.ar    1  <O>11      -0.0577
  14 C10      -3.5210    -8.0736   -11.7943  C.ar    1  <O>11      -0.0334
  15 C11      -2.1355    -8.2055   -12.0527  C.ar    1  <O>11       0.1018
  16 N2       -1.5457    -8.1169   -13.2550  N.ar    1  <O>11      -0.1907
  17 S2        0.0799    -8.3472   -12.9949  S.2     1  <O>11       0.1165
  18 N3        0.1088    -8.5696   -11.3474  N.ar    1  <O>11      -0.1888
  19 C12      -1.1616    -8.4728   -10.9328  C.ar    1  <O>11       0.1264
  20 C13       0.7874    -9.7806    -5.7650  C.ar    1  <O>11      -0.0364
  21 H1        3.2314    -9.2521    -5.2971  H       1  <O>11       0.0278
  22 H2        3.4736   -10.7152    -4.3128  H       1  <O>11       0.0278
  23 H3        2.9942    -9.1880    -3.5342  H       1  <O>11       0.0278
  24 H4       -2.2420   -10.0190    -7.2350  H       1  <O>11       0.1737
  25 H5        1.3082   -11.1481    -2.7415  H       1  <O>11       0.0620
  26 H6       -1.0275   -11.7615    -3.0324  H       1  <O>11       0.0618
  27 H7       -2.2132   -11.1207    -5.0562  H       1  <O>11       0.0636
  28 H8       -3.3550    -8.5411    -8.4320  H       1  <O>11       0.0638
  29 H9       -4.9140    -8.1154   -10.2180  H       1  <O>11       0.0619
  30 H10      -4.2031    -7.8916   -12.5471  H       1  <O>11       0.0640
  31 H11       1.2744    -9.2420    -6.4983  H       1  <O>11       0.0639
@<TRIPOS>BOND
     1     1     2    1
     2     2     3   ar
     3     3     4   ar
     4     4     5   ar
     5     5     6   ar
     6     6     7    1
     7     7     8    1
     8     8     9    2
     9     8    10    2
    10     8    11    1
    11    11    12   ar
    12    12    13   ar
    13    13    14   ar
    14    14    15   ar
    15    15    16   ar
    16    16    17   ar
    17    17    18   ar
    18    18    19   ar
    19    11    19   ar
    20    15    19   ar
    21     6    20   ar
    22     2    20   ar
    23     1    21    1
    24     1    22    1
    25     1    23    1
    26     7    24    1
    27     3    25    1
    28     4    26    1
    29     5    27    1
    30    12    28    1
    31    13    29    1
    32    14    30    1
    33    20    31    1
@<TRIPOS>MOLECULE
mol13_1_24
 31 33 0 0 0
SMALL
USER_CHARGES
****
VDW energy = -42.84
@<TRIPOS>ATOM
   1 C1        2.8832    -9.8059    -4.4252  C.3     1  <O>11      -0.0397
   2 C2        1.4617   -10.1611    -4.6036  C.ar    1  <O>11      -0.0487
   3 C3        0.8050   -10.8783    -3.6012  C.ar    1  <O>11      -0.0587
   4 C4       -0.5391   -11.2290    -3.7692  C.ar    1  <O>11      -0.0597
   5 C5       -1.2224   -10.8607    -4.9311  C.ar    1  <O>11      -0.0393
   6 C6       -0.5527   -10.1366    -5.9237  C.ar    1  <O>11       0.0483
   7 N1       -1.2620    -9.7580    -7.1200  N.pl3   1  <O>11      -0.2162
   8 S1       -0.4890    -8.9030    -8.3030  S.O2    1  <O>11       0.0745
   9 O1        0.8050    -9.7800    -8.8650  O.2     1  <O>11      -0.1499
  10 O2        0.0480    -7.4590    -7.6820  O.2     1  <O>11      -0.1499
  11 C7       -1.6130    -8.5910    -9.6340  C.ar    1  <O>11       0.1365
  12 C8       -2.9471    -9.0530    -9.5810  C.ar    1  <O>11      -0.0328
  13 C9       -3.8595    -8.8123   -10.6356  C.ar    1  <O>11      -0.0577
  14 C10      -3.5186    -8.1052   -11.8037  C.ar    1  <O>11      -0.0334
  15 C11      -2.1860    -7.6332   -11.8759  C.ar    1  <O>11       0.1018
  16 N2       -1.6490    -6.9400   -12.8919  N.ar    1  <O>11      -0.1907
  17 S2       -0.0696    -6.6407   -12.4687  S.2     1  <O>11       0.1165
  18 N3        0.0042    -7.3762   -10.9793  N.ar    1  <O>11      -0.1888
  19 C12      -1.2126    -7.8897   -10.7532  C.ar    1  <O>11       0.1264
  20 C13       0.7874    -9.7806    -5.7650  C.ar    1  <O>11      -0.0364
  21 H1        3.2314    -9.2521    -5.2971  H       1  <O>11       0.0278
  22 H2        3.4736   -10.7152    -4.3128  H       1  <O>11       0.0278
  23 H3        2.9942    -9.1880    -3.5342  H       1  <O>11       0.0278
  24 H4       -2.2420   -10.0190    -7.2350  H       1  <O>11       0.1737
  25 H5        1.3082   -11.1481    -2.7415  H       1  <O>11       0.0620
  26 H6       -1.0275   -11.7615    -3.0324  H       1  <O>11       0.0618
  27 H7       -2.2132   -11.1207    -5.0562  H       1  <O>11       0.0636
  28 H8       -3.2643    -9.5795    -8.7520  H       1  <O>11       0.0638
  29 H9       -4.8220    -9.1731   -10.5436  H       1  <O>11       0.0619
  30 H10      -4.1991    -7.9407   -12.5619  H       1  <O>11       0.0640
  31 H11       1.2744    -9.2420    -6.4983  H       1  <O>11       0.0639
@<TRIPOS>BOND
     1     1     2    1
     2     2     3   ar
     3     3     4   ar
     4     4     5   ar
     5     5     6   ar
     6     6     7    1
     7     7     8    1
     8     8     9    2
     9     8    10    2
    10     8    11    1
    11    11    12   ar
    12    12    13   ar
    13    13    14   ar
    14    14    15   ar
    15    15    16   ar
    16    16    17   ar
    17    17    18   ar
    18    18    19   ar
    19    11    19   ar
    20    15    19   ar
    21     6    20   ar
    22     2    20   ar
    23     1    21    1
    24     1    22    1
    25     1    23    1
    26     7    24    1
    27     3    25    1
    28     4    26    1
    29     5    27    1
    30    12    28    1
    31    13    29    1
    32    14    30    1
    33    20    31    1
@<TRIPOS>MOLECULE
mol13_1_25
 31 33 0 0 0
SMALL
USER_CHARGES
****
VDW energy = -40.73
@<TRIPOS>ATOM
   1 C1        2.8832    -9.8059    -4.4252  C.3     1  <O>11      -0.0397
   2 C2        1.4617   -10.1611    -4.6036  C.ar    1  <O>11      -0.0487
   3 C3        0.8050   -10.8783    -3.6012  C.ar    1  <O>11      -0.0587
   4 C4       -0.5391   -11.2290    -3.7692  C.ar    1  <O>11      -0.0597
   5 C5       -1.2224   -10.8607    -4.9311  C.ar    1  <O>11      -0.0393
   6 C6       -0.5527   -10.1366    -5.9237  C.ar    1  <O>11       0.0483
   7 N1       -1.2620    -9.7580    -7.1200  N.pl3   1  <O>11      -0.2162
   8 S1       -0.4890    -8.9031    -8.3031  S.O2    1  <O>11       0.0745
   9 O1        0.0492    -7.4595    -7.6820  O.2     1  <O>11      -0.1499
  10 O2       -1.5426    -8.6101    -9.5533  O.2     1  <O>11      -0.1499
  11 C7        0.8894    -9.8388    -8.9005  C.ar    1  <O>11       0.1365
  12 C8        1.1863   -11.1139    -8.3693  C.ar    1  <O>11      -0.0328
  13 C9        2.2838   -11.8760    -8.8352  C.ar    1  <O>11      -0.0577
  14 C10       3.1547   -11.4340    -9.8485  C.ar    1  <O>11      -0.0334
  15 C11       2.8737   -10.1586   -10.3944  C.ar    1  <O>11       0.1018
  16 N2        3.5700    -9.5452   -11.3641  N.ar    1  <O>11      -0.1907
  17 S2        2.8200    -8.0846   -11.6239  S.2     1  <O>11       0.1165
  18 N3        1.5797    -8.1644   -10.5193  N.ar    1  <O>11      -0.1888
  19 C12       1.7050    -9.3450    -9.8983  C.ar    1  <O>11       0.1264
  20 C13       0.7874    -9.7806    -5.7650  C.ar    1  <O>11      -0.0364
  21 H1        3.2314    -9.2521    -5.2971  H       1  <O>11       0.0278
  22 H2        3.4736   -10.7152    -4.3128  H       1  <O>11       0.0278
  23 H3        2.9942    -9.1880    -3.5342  H       1  <O>11       0.0278
  24 H4       -2.2420   -10.0189    -7.2350  H       1  <O>11       0.1737
  25 H5        1.3082   -11.1481    -2.7415  H       1  <O>11       0.0620
  26 H6       -1.0275   -11.7615    -3.0324  H       1  <O>11       0.0618
  27 H7       -2.2132   -11.1207    -5.0562  H       1  <O>11       0.0636
  28 H8        0.5874   -11.4992    -7.6223  H       1  <O>11       0.0638
  29 H9        2.4539   -12.8014    -8.4111  H       1  <O>11       0.0619
  30 H10       3.9502   -12.0053   -10.1740  H       1  <O>11       0.0640
  31 H11       1.2744    -9.2420    -6.4983  H       1  <O>11       0.0639
@<TRIPOS>BOND
     1     1     2    1
     2     2     3   ar
     3     3     4   ar
     4     4     5   ar
     5     5     6   ar
     6     6     7    1
     7     7     8    1
     8     8     9    2
     9     8    10    2
    10     8    11    1
    11    11    12   ar
    12    12    13   ar
    13    13    14   ar
    14    14    15   ar
    15    15    16   ar
    16    16    17   ar
    17    17    18   ar
    18    18    19   ar
    19    11    19   ar
    20    15    19   ar
    21     6    20   ar
    22     2    20   ar
    23     1    21    1
    24     1    22    1
    25     1    23    1
    26     7    24    1
    27     3    25    1
    28     4    26    1
    29     5    27    1
    30    12    28    1
    31    13    29    1
    32    14    30    1
    33    20    31    1
@<TRIPOS>MOLECULE
mol13_1_26
 31 33 0 0 0
SMALL
USER_CHARGES
****
VDW energy = -39.70
@<TRIPOS>ATOM
   1 C1        2.8832    -9.8059    -4.4252  C.3     1  <O>11      -0.0397
   2 C2        1.4617   -10.1611    -4.6036  C.ar    1  <O>11      -0.0487
   3 C3        0.8050   -10.8783    -3.6012  C.ar    1  <O>11      -0.0587
   4 C4       -0.5391   -11.2290    -3.7692  C.ar    1  <O>11      -0.0597
   5 C5       -1.2224   -10.8607    -4.9311  C.ar    1  <O>11      -0.0393
   6 C6       -0.5527   -10.1366    -5.9237  C.ar    1  <O>11       0.0483
   7 N1       -1.2620    -9.7580    -7.1200  N.pl3   1  <O>11      -0.2162
   8 S1       -1.2697   -10.7648    -8.4293  S.O2    1  <O>11       0.0745
   9 O1        0.2890   -11.0112    -8.9481  O.2     1  <O>11      -0.1499
  10 O2       -2.1585   -10.0766    -9.6522  O.2     1  <O>11      -0.1499
  11 C7       -1.9926   -12.3153    -7.9755  C.ar    1  <O>11       0.1365
  12 C8       -3.1514   -12.7942    -8.6264  C.ar    1  <O>11      -0.0328
  13 C9       -3.7424   -14.0316    -8.2770  C.ar    1  <O>11      -0.0577
  14 C10      -3.2332   -14.8722    -7.2696  C.ar    1  <O>11      -0.0334
  15 C11      -2.0715   -14.4102    -6.6056  C.ar    1  <O>11       0.1018
  16 N2       -1.4216   -15.0469    -5.6189  N.ar    1  <O>11      -0.1907
  17 S2       -0.1391   -14.0747    -5.2024  S.2     1  <O>11       0.1165
  18 N3       -0.3504   -12.8038    -6.2535  N.ar    1  <O>11      -0.1888
  19 C12      -1.4412   -13.0915    -6.9764  C.ar    1  <O>11       0.1264
  20 C13       0.7874    -9.7806    -5.7650  C.ar    1  <O>11      -0.0364
  21 H1        3.2314    -9.2521    -5.2971  H       1  <O>11       0.0278
  22 H2        3.4736   -10.7152    -4.3128  H       1  <O>11       0.0278
  23 H3        2.9942    -9.1880    -3.5342  H       1  <O>11       0.0278
  24 H4       -1.7593    -8.8674    -7.1568  H       1  <O>11       0.1737
  25 H5        1.3082   -11.1481    -2.7415  H       1  <O>11       0.0620
  26 H6       -1.0275   -11.7615    -3.0324  H       1  <O>11       0.0618
  27 H7       -2.2132   -11.1207    -5.0562  H       1  <O>11       0.0636
  28 H8       -3.5778   -12.2272    -9.3759  H       1  <O>11       0.0638
  29 H9       -4.5885   -14.3323    -8.7858  H       1  <O>11       0.0619
  30 H10      -3.6797   -15.7711    -7.0296  H       1  <O>11       0.0640
  31 H11       1.2744    -9.2420    -6.4983  H       1  <O>11       0.0639
@<TRIPOS>BOND
     1     1     2    1
     2     2     3   ar
     3     3     4   ar
     4     4     5   ar
     5     5     6   ar
     6     6     7    1
     7     7     8    1
     8     8     9    2
     9     8    10    2
    10     8    11    1
    11    11    12   ar
    12    12    13   ar
    13    13    14   ar
    14    14    15   ar
    15    15    16   ar
    16    16    17   ar
    17    17    18   ar
    18    18    19   ar
    19    11    19   ar
    20    15    19   ar
    21     6    20   ar
    22     2    20   ar
    23     1    21    1
    24     1    22    1
    25     1    23    1
    26     7    24    1
    27     3    25    1
    28     4    26    1
    29     5    27    1
    30    12    28    1
    31    13    29    1
    32    14    30    1
    33    20    31    1
@<TRIPOS>MOLECULE
mol13_1_27
 31 33 0 0 0
SMALL
USER_CHARGES
****
VDW energy = -38.44
@<TRIPOS>ATOM
   1 C1        2.8832    -9.8059    -4.4252  C.3     1  <O>11      -0.0397
   2 C2        1.4617   -10.1611    -4.6036  C.ar    1  <O>11      -0.0487
   3 C3        0.8050   -10.8783    -3.6012  C.ar    1  <O>11      -0.0587
   4 C4       -0.5391   -11.2290    -3.7692  C.ar    1  <O>11      -0.0597
   5 C5       -1.2224   -10.8607    -4.9311  C.ar    1  <O>11      -0.0393
   6 C6       -0.5527   -10.1366    -5.9237  C.ar    1  <O>11       0.0483
   7 N1       -1.2620    -9.7580    -7.1200  N.pl3   1  <O>11      -0.2162
   8 S1       -1.2697   -10.7648    -8.4293  S.O2    1  <O>11       0.0745
   9 O1       -2.1577   -10.0761    -9.6527  O.2     1  <O>11      -0.1499
  10 O2       -1.9473   -12.2207    -8.0046  O.2     1  <O>11      -0.1499
  11 C7        0.3915   -11.0260    -8.9810  C.ar    1  <O>11       0.1365
  12 C8        0.7879   -10.6636   -10.2878  C.ar    1  <O>11      -0.0328
  13 C9        2.1118   -10.8647   -10.7455  C.ar    1  <O>11      -0.0577
  14 C10       3.1247   -11.4325    -9.9503  C.ar    1  <O>11      -0.0334
  15 C11       2.7476   -11.8020    -8.6369  C.ar    1  <O>11       0.1018
  16 N2        3.5478   -12.3575    -7.7137  N.ar    1  <O>11      -0.1907
  17 S2        2.6096   -12.5864    -6.3607  S.2     1  <O>11       0.1165
  18 N3        1.1477   -11.9920    -6.8844  N.ar    1  <O>11      -0.1888
  19 C12       1.3370   -11.5890    -8.1482  C.ar    1  <O>11       0.1264
  20 C13       0.7874    -9.7806    -5.7650  C.ar    1  <O>11      -0.0364
  21 H1        3.2314    -9.2521    -5.2971  H       1  <O>11       0.0278
  22 H2        3.4736   -10.7152    -4.3128  H       1  <O>11       0.0278
  23 H3        2.9942    -9.1880    -3.5342  H       1  <O>11       0.0278
  24 H4       -1.7593    -8.8674    -7.1568  H       1  <O>11       0.1737
  25 H5        1.3082   -11.1481    -2.7415  H       1  <O>11       0.0620
  26 H6       -1.0275   -11.7615    -3.0324  H       1  <O>11       0.0618
  27 H7       -2.2132   -11.1207    -5.0562  H       1  <O>11       0.0636
  28 H8        0.0943   -10.2414   -10.9247  H       1  <O>11       0.0638
  29 H9        2.3459   -10.5810   -11.7098  H       1  <O>11       0.0619
  30 H10       4.0844   -11.5711   -10.3035  H       1  <O>11       0.0640
  31 H11       1.2744    -9.2420    -6.4983  H       1  <O>11       0.0639
@<TRIPOS>BOND
     1     1     2    1
     2     2     3   ar
     3     3     4   ar
     4     4     5   ar
     5     5     6   ar
     6     6     7    1
     7     7     8    1
     8     8     9    2
     9     8    10    2
    10     8    11    1
    11    11    12   ar
    12    12    13   ar
    13    13    14   ar
    14    14    15   ar
    15    15    16   ar
    16    16    17   ar
    17    17    18   ar
    18    18    19   ar
    19    11    19   ar
    20    15    19   ar
    21     6    20   ar
    22     2    20   ar
    23     1    21    1
    24     1    22    1
    25     1    23    1
    26     7    24    1
    27     3    25    1
    28     4    26    1
    29     5    27    1
    30    12    28    1
    31    13    29    1
    32    14    30    1
    33    20    31    1
@<TRIPOS>MOLECULE
mol13_1_28
 31 33 0 0 0
SMALL
USER_CHARGES
****
VDW energy = -34.23
@<TRIPOS>ATOM
   1 C1        2.8832    -9.8059    -4.4252  C.3     1  <O>11      -0.0397
   2 C2        1.4617   -10.1611    -4.6036  C.ar    1  <O>11      -0.0487
   3 C3        0.8050   -10.8783    -3.6012  C.ar    1  <O>11      -0.0587
   4 C4       -0.5391   -11.2290    -3.7692  C.ar    1  <O>11      -0.0597
   5 C5       -1.2224   -10.8607    -4.9311  C.ar    1  <O>11      -0.0393
   6 C6       -0.5527   -10.1366    -5.9237  C.ar    1  <O>11       0.0483
   7 N1       -1.2620    -9.7580    -7.1200  N.pl3   1  <O>11      -0.2162
   8 S1       -1.7883   -10.9188    -8.1706  S.O2    1  <O>11       0.0745
   9 O1       -0.4889   -11.7877    -8.7326  O.2     1  <O>11      -0.1499
  10 O2       -2.5671   -10.1976    -9.4482  O.2     1  <O>11      -0.1499
  11 C7       -2.9077   -12.0054    -7.3348  C.ar    1  <O>11       0.1365
  12 C8       -3.7106   -11.5411    -6.2691  C.ar    1  <O>11      -0.0328
  13 C9       -4.6113   -12.3955    -5.5900  C.ar    1  <O>11      -0.0577
  14 C10      -4.7782   -13.7547    -5.9149  C.ar    1  <O>11      -0.0334
  15 C11      -3.9829   -14.2393    -6.9808  C.ar    1  <O>11       0.1018
  16 N2       -3.9801   -15.4949    -7.4549  N.ar    1  <O>11      -0.1907
  17 S2       -2.8731   -15.5226    -8.6947  S.2     1  <O>11       0.1165
  18 N3       -2.3480   -13.9450    -8.6859  N.ar    1  <O>11      -0.1888
  19 C12      -3.0221   -13.3301    -7.7048  C.ar    1  <O>11       0.1264
  20 C13       0.7874    -9.7806    -5.7650  C.ar    1  <O>11      -0.0364
  21 H1        3.2314    -9.2521    -5.2971  H       1  <O>11       0.0278
  22 H2        3.4736   -10.7152    -4.3128  H       1  <O>11       0.0278
  23 H3        2.9942    -9.1880    -3.5342  H       1  <O>11       0.0278
  24 H4       -1.4386    -8.7722    -7.3168  H       1  <O>11       0.1737
  25 H5        1.3082   -11.1481    -2.7415  H       1  <O>11       0.0620
  26 H6       -1.0275   -11.7615    -3.0324  H       1  <O>11       0.0618
  27 H7       -2.2132   -11.1207    -5.0562  H       1  <O>11       0.0636
  28 H8       -3.6384   -10.5534    -5.9784  H       1  <O>11       0.0638
  29 H9       -5.1732   -12.0027    -4.8186  H       1  <O>11       0.0619
  30 H10      -5.4406   -14.3613    -5.4066  H       1  <O>11       0.0640
  31 H11       1.2744    -9.2420    -6.4983  H       1  <O>11       0.0639
@<TRIPOS>BOND
     1     1     2    1
     2     2     3   ar
     3     3     4   ar
     4     4     5   ar
     5     5     6   ar
     6     6     7    1
     7     7     8    1
     8     8     9    2
     9     8    10    2
    10     8    11    1
    11    11    12   ar
    12    12    13   ar
    13    13    14   ar
    14    14    15   ar
    15    15    16   ar
    16    16    17   ar
    17    17    18   ar
    18    18    19   ar
    19    11    19   ar
    20    15    19   ar
    21     6    20   ar
    22     2    20   ar
    23     1    21    1
    24     1    22    1
    25     1    23    1
    26     7    24    1
    27     3    25    1
    28     4    26    1
    29     5    27    1
    30    12    28    1
    31    13    29    1
    32    14    30    1
    33    20    31    1
@<TRIPOS>MOLECULE
mol13_1_29
 31 33 0 0 0
SMALL
USER_CHARGES
****
VDW energy = -27.41
@<TRIPOS>ATOM
   1 C1        2.8832    -9.8059    -4.4252  C.3     1  <O>11      -0.0397
   2 C2        1.4617   -10.1611    -4.6036  C.ar    1  <O>11      -0.0487
   3 C3        0.8050   -10.8783    -3.6012  C.ar    1  <O>11      -0.0587
   4 C4       -0.5391   -11.2290    -3.7692  C.ar    1  <O>11      -0.0597
   5 C5       -1.2224   -10.8607    -4.9311  C.ar    1  <O>11      -0.0393
   6 C6       -0.5527   -10.1366    -5.9237  C.ar    1  <O>11       0.0483
   7 N1       -1.2620    -9.7580    -7.1200  N.pl3   1  <O>11      -0.2162
   8 S1       -1.2697   -10.7648    -8.4293  S.O2    1  <O>11       0.0745
   9 O1        0.2890   -11.0112    -8.9481  O.2     1  <O>11      -0.1499
  10 O2       -2.1585   -10.0766    -9.6522  O.2     1  <O>11      -0.1499
  11 C7       -1.9926   -12.3153    -7.9755  C.ar    1  <O>11       0.1365
  12 C8       -1.5964   -13.5142    -8.6094  C.ar    1  <O>11      -0.0328
  13 C9       -2.1631   -14.7626    -8.2590  C.ar    1  <O>11      -0.0577
  14 C10      -3.1510   -14.9098    -7.2675  C.ar    1  <O>11      -0.0334
  15 C11      -3.5613   -13.7199    -6.6199  C.ar    1  <O>11       0.1018
  16 N2       -4.4848   -13.6280    -5.6503  N.ar    1  <O>11      -0.1907
  17 S2       -4.5806   -12.0178    -5.2488  S.2     1  <O>11       0.1165
  18 N3       -3.4563   -11.3652    -6.2857  N.ar    1  <O>11      -0.1888
  19 C12      -2.9588   -12.3888    -6.9928  C.ar    1  <O>11       0.1264
  20 C13       0.7874    -9.7806    -5.7650  C.ar    1  <O>11      -0.0364
  21 H1        3.2314    -9.2521    -5.2971  H       1  <O>11       0.0278
  22 H2        3.4736   -10.7152    -4.3128  H       1  <O>11       0.0278
  23 H3        2.9942    -9.1880    -3.5342  H       1  <O>11       0.0278
  24 H4       -1.7593    -8.8674    -7.1568  H       1  <O>11       0.1737
  25 H5        1.3082   -11.1481    -2.7415  H       1  <O>11       0.0620
  26 H6       -1.0275   -11.7615    -3.0324  H       1  <O>11       0.0618
  27 H7       -2.2132   -11.1207    -5.0562  H       1  <O>11       0.0636
  28 H8       -0.8752   -13.4786    -9.3468  H       1  <O>11       0.0638
  29 H9       -1.8360   -15.6065    -8.7549  H       1  <O>11       0.0619
  30 H10      -3.5521   -15.8298    -7.0270  H       1  <O>11       0.0640
  31 H11       1.2744    -9.2420    -6.4983  H       1  <O>11       0.0639
@<TRIPOS>BOND
     1     1     2    1
     2     2     3   ar
     3     3     4   ar
     4     4     5   ar
     5     5     6   ar
     6     6     7    1
     7     7     8    1
     8     8     9    2
     9     8    10    2
    10     8    11    1
    11    11    12   ar
    12    12    13   ar
    13    13    14   ar
    14    14    15   ar
    15    15    16   ar
    16    16    17   ar
    17    17    18   ar
    18    18    19   ar
    19    11    19   ar
    20    15    19   ar
    21     6    20   ar
    22     2    20   ar
    23     1    21    1
    24     1    22    1
    25     1    23    1
    26     7    24    1
    27     3    25    1
    28     4    26    1
    29     5    27    1
    30    12    28    1
    31    13    29    1
    32    14    30    1
    33    20    31    1
@<TRIPOS>MOLECULE
mol13_1_30
 31 33 0 0 0
SMALL
USER_CHARGES
****
VDW energy = -23.96
@<TRIPOS>ATOM
   1 C1        2.8832    -9.8059    -4.4252  C.3     1  <O>11      -0.0397
   2 C2        1.4617   -10.1611    -4.6036  C.ar    1  <O>11      -0.0487
   3 C3        0.8050   -10.8783    -3.6012  C.ar    1  <O>11      -0.0587
   4 C4       -0.5391   -11.2290    -3.7692  C.ar    1  <O>11      -0.0597
   5 C5       -1.2224   -10.8607    -4.9311  C.ar    1  <O>11      -0.0393
   6 C6       -0.5527   -10.1366    -5.9237  C.ar    1  <O>11       0.0483
   7 N1       -1.2620    -9.7580    -7.1200  N.pl3   1  <O>11      -0.2162
   8 S1       -1.7883   -10.9188    -8.1706  S.O2    1  <O>11       0.0745
   9 O1       -0.4889   -11.7877    -8.7326  O.2     1  <O>11      -0.1499
  10 O2       -2.5671   -10.1976    -9.4482  O.2     1  <O>11      -0.1499
  11 C7       -2.9077   -12.0054    -7.3348  C.ar    1  <O>11       0.1365
  12 C8       -3.0232   -13.3612    -7.7150  C.ar    1  <O>11      -0.0328
  13 C9       -3.9125   -14.2442    -7.0577  C.ar    1  <O>11      -0.0577
  14 C10      -4.7406   -13.8511    -5.9899  C.ar    1  <O>11      -0.0334
  15 C11      -4.6393   -12.4960    -5.5934  C.ar    1  <O>11       0.1018
  16 N2       -5.3319   -11.9100    -4.6044  N.ar    1  <O>11      -0.1907
  17 S2       -4.8341   -10.3245    -4.5626  S.2     1  <O>11       0.1165
  18 N3       -3.7190   -10.3099    -5.7960  N.ar    1  <O>11      -0.1888
  19 C12      -3.6927   -11.5538    -6.2934  C.ar    1  <O>11       0.1264
  20 C13       0.7874    -9.7806    -5.7650  C.ar    1  <O>11      -0.0364
  21 H1        3.2314    -9.2521    -5.2971  H       1  <O>11       0.0278
  22 H2        3.4736   -10.7152    -4.3128  H       1  <O>11       0.0278
  23 H3        2.9942    -9.1880    -3.5342  H       1  <O>11       0.0278
  24 H4       -1.4386    -8.7722    -7.3168  H       1  <O>11       0.1737
  25 H5        1.3082   -11.1481    -2.7415  H       1  <O>11       0.0620
  26 H6       -1.0275   -11.7615    -3.0324  H       1  <O>11       0.0618
  27 H7       -2.2132   -11.1207    -5.0562  H       1  <O>11       0.0636
  28 H8       -2.4442   -13.7167    -8.4918  H       1  <O>11       0.0638
  29 H9       -3.9558   -15.2246    -7.3772  H       1  <O>11       0.0619
  30 H10      -5.3830   -14.5109    -5.5240  H       1  <O>11       0.0640
  31 H11       1.2744    -9.2420    -6.4983  H       1  <O>11       0.0639
@<TRIPOS>BOND
     1     1     2    1
     2     2     3   ar
     3     3     4   ar
     4     4     5   ar
     5     5     6   ar
     6     6     7    1
     7     7     8    1
     8     8     9    2
     9     8    10    2
    10     8    11    1
    11    11    12   ar
    12    12    13   ar
    13    13    14   ar
    14    14    15   ar
    15    15    16   ar
    16    16    17   ar
    17    17    18   ar
    18    18    19   ar
    19    11    19   ar
    20    15    19   ar
    21     6    20   ar
    22     2    20   ar
    23     1    21    1
    24     1    22    1
    25     1    23    1
    26     7    24    1
    27     3    25    1
    28     4    26    1
    29     5    27    1
    30    12    28    1
    31    13    29    1
    32    14    30    1
    33    20    31    1
@<TRIPOS>MOLECULE
mol13_2_1
 31 33 0 0 0
SMALL
USER_CHARGES
****
VDW energy = -61.88
@<TRIPOS>ATOM
   1 C1        2.8832    -9.8059    -4.4252  C.3     1  <O>11      -0.0397
   2 C2        1.4617   -10.1611    -4.6036  C.ar    1  <O>11      -0.0487
   3 C3        0.8050   -10.8783    -3.6012  C.ar    1  <O>11      -0.0587
   4 C4       -0.5391   -11.2290    -3.7692  C.ar    1  <O>11      -0.0597
   5 C5       -1.2224   -10.8607    -4.9311  C.ar    1  <O>11      -0.0393
   6 C6       -0.5527   -10.1366    -5.9237  C.ar    1  <O>11       0.0483
   7 N1       -1.2620    -9.7580    -7.1200  N.pl3   1  <O>11      -0.2162
   8 S1       -1.2697   -10.7648    -8.4293  S.O2    1  <O>11       0.0745
   9 O1       -2.1577   -10.0761    -9.6527  O.2     1  <O>11      -0.1499
  10 O2       -1.9473   -12.2207    -8.0046  O.2     1  <O>11      -0.1499
  11 C7        0.3915   -11.0260    -8.9810  C.ar    1  <O>11       0.1365
  12 C8        0.9489   -12.3233    -9.0128  C.ar    1  <O>11      -0.0328
  13 C9        2.2777   -12.5506    -9.4520  C.ar    1  <O>11      -0.0577
  14 C10       3.1313   -11.5210    -9.8839  C.ar    1  <O>11      -0.0334
  15 C11       2.5923   -10.2131    -9.8584  C.ar    1  <O>11       0.1018
  16 N2        3.2269    -9.0897   -10.2268  N.ar    1  <O>11      -0.1907
  17 S2        2.1443    -7.8467   -10.0028  S.2     1  <O>11       0.1165
  18 N3        0.8225    -8.6774    -9.4324  N.ar    1  <O>11      -0.1888
  19 C12       1.1777    -9.9716    -9.3927  C.ar    1  <O>11       0.1264
  20 C13       0.7874    -9.7806    -5.7650  C.ar    1  <O>11      -0.0364
  21 H1        3.2314    -9.2521    -5.2971  H       1  <O>11       0.0278
  22 H2        3.4736   -10.7152    -4.3128  H       1  <O>11       0.0278
  23 H3        2.9942    -9.1880    -3.5342  H       1  <O>11       0.0278
  24 H4       -1.7593    -8.8674    -7.1568  H       1  <O>11       0.1737
  25 H5        1.3082   -11.1481    -2.7415  H       1  <O>11       0.0620
  26 H6       -1.0275   -11.7615    -3.0324  H       1  <O>11       0.0618
  27 H7       -2.2132   -11.1207    -5.0562  H       1  <O>11       0.0636
  28 H8        0.3751   -13.1254    -8.7088  H       1  <O>11       0.0638
  29 H9        2.6353   -13.5187    -9.4548  H       1  <O>11       0.0619
  30 H10       4.0953   -11.7081   -10.2013  H       1  <O>11       0.0640
  31 H11       1.2744    -9.2420    -6.4983  H       1  <O>11       0.0639
@<TRIPOS>BOND
     1     1     2    1
     2     2     3   ar
     3     3     4   ar
     4     4     5   ar
     5     5     6   ar
     6     6     7    1
     7     7     8    1
     8     8     9    2
     9     8    10    2
    10     8    11    1
    11    11    12   ar
    12    12    13   ar
    13    13    14   ar
    14    14    15   ar
    15    15    16   ar
    16    16    17   ar
    17    17    18   ar
    18    18    19   ar
    19    11    19   ar
    20    15    19   ar
    21     6    20   ar
    22     2    20   ar
    23     1    21    1
    24     1    22    1
    25     1    23    1
    26     7    24    1
    27     3    25    1
    28     4    26    1
    29     5    27    1
    30    12    28    1
    31    13    29    1
    32    14    30    1
    33    20    31    1
@<TRIPOS>MOLECULE
mol13_2_2
 31 33 0 0 0
SMALL
USER_CHARGES
****
VDW energy = -61.76
@<TRIPOS>ATOM
   1 C1        2.8832    -9.8059    -4.4252  C.3     1  <O>11      -0.0397
   2 C2        1.4617   -10.1611    -4.6036  C.ar    1  <O>11      -0.0487
   3 C3        0.8050   -10.8783    -3.6012  C.ar    1  <O>11      -0.0587
   4 C4       -0.5391   -11.2290    -3.7692  C.ar    1  <O>11      -0.0597
   5 C5       -1.2224   -10.8607    -4.9311  C.ar    1  <O>11      -0.0393
   6 C6       -0.5527   -10.1366    -5.9237  C.ar    1  <O>11       0.0483
   7 N1       -1.2620    -9.7580    -7.1200  N.pl3   1  <O>11      -0.2162
   8 S1       -2.0672    -8.3172    -7.1819  S.O2    1  <O>11       0.0745
   9 O1       -2.7867    -8.1479    -8.6695  O.2     1  <O>11      -0.1499
  10 O2       -0.9946    -7.0722    -6.9401  O.2     1  <O>11      -0.1499
  11 C7       -3.3070    -8.2810    -5.9194  C.ar    1  <O>11       0.1365
  12 C8       -3.2851    -7.2930    -4.9104  C.ar    1  <O>11      -0.0328
  13 C9       -4.2704    -7.2490    -3.8918  C.ar    1  <O>11      -0.0577
  14 C10      -5.3295    -8.1689    -3.8066  C.ar    1  <O>11      -0.0334
  15 C11      -5.3688    -9.1682    -4.8075  C.ar    1  <O>11       0.1018
  16 N2       -6.2874   -10.1399    -4.9180  N.ar    1  <O>11      -0.1907
  17 S2       -5.8674   -11.0293    -6.2597  S.2     1  <O>11       0.1165
  18 N3       -4.5051   -10.2202    -6.7618  N.ar    1  <O>11      -0.1888
  19 C12      -4.3213    -9.2137    -5.8924  C.ar    1  <O>11       0.1264
  20 C13       0.7874    -9.7806    -5.7650  C.ar    1  <O>11      -0.0364
  21 H1        3.2314    -9.2521    -5.2971  H       1  <O>11       0.0278
  22 H2        3.4736   -10.7152    -4.3128  H       1  <O>11       0.0278
  23 H3        2.9942    -9.1880    -3.5342  H       1  <O>11       0.0278
  24 H4       -1.2658   -10.3811    -7.9284  H       1  <O>11       0.1737
  25 H5        1.3082   -11.1481    -2.7415  H       1  <O>11       0.0620
  26 H6       -1.0275   -11.7615    -3.0324  H       1  <O>11       0.0618
  27 H7       -2.2132   -11.1207    -5.0562  H       1  <O>11       0.0636
  28 H8       -2.5335    -6.5858    -4.9146  H       1  <O>11       0.0638
  29 H9       -4.2068    -6.5058    -3.1786  H       1  <O>11       0.0619
  30 H10      -6.0375    -8.1185    -3.0574  H       1  <O>11       0.0640
  31 H11       1.2744    -9.2420    -6.4983  H       1  <O>11       0.0639
@<TRIPOS>BOND
     1     1     2    1
     2     2     3   ar
     3     3     4   ar
     4     4     5   ar
     5     5     6   ar
     6     6     7    1
     7     7     8    1
     8     8     9    2
     9     8    10    2
    10     8    11    1
    11    11    12   ar
    12    12    13   ar
    13    13    14   ar
    14    14    15   ar
    15    15    16   ar
    16    16    17   ar
    17    17    18   ar
    18    18    19   ar
    19    11    19   ar
    20    15    19   ar
    21     6    20   ar
    22     2    20   ar
    23     1    21    1
    24     1    22    1
    25     1    23    1
    26     7    24    1
    27     3    25    1
    28     4    26    1
    29     5    27    1
    30    12    28    1
    31    13    29    1
    32    14    30    1
    33    20    31    1
@<TRIPOS>MOLECULE
mol13_2_3
 31 33 0 0 0
SMALL
USER_CHARGES
****
VDW energy = -60.64
@<TRIPOS>ATOM
   1 C1        2.8832    -9.8059    -4.4252  C.3     1  <O>11      -0.0397
   2 C2        1.4617   -10.1611    -4.6036  C.ar    1  <O>11      -0.0487
   3 C3        0.8050   -10.8783    -3.6012  C.ar    1  <O>11      -0.0587
   4 C4       -0.5391   -11.2290    -3.7692  C.ar    1  <O>11      -0.0597
   5 C5       -1.2224   -10.8607    -4.9311  C.ar    1  <O>11      -0.0393
   6 C6       -0.5527   -10.1366    -5.9237  C.ar    1  <O>11       0.0483
   7 N1       -1.2620    -9.7580    -7.1200  N.pl3   1  <O>11      -0.2162
   8 S1       -1.7883   -10.9188    -8.1706  S.O2    1  <O>11       0.0745
   9 O1       -2.5663   -10.1976    -9.4489  O.2     1  <O>11      -0.1499
  10 O2       -2.8386   -11.9398    -7.3873  O.2     1  <O>11      -0.1499
  11 C7       -0.4028   -11.8434    -8.7687  C.ar    1  <O>11       0.1365
  12 C8       -0.3137   -13.2363    -8.5531  C.ar    1  <O>11      -0.0328
  13 C9        0.7888   -13.9924    -9.0255  C.ar    1  <O>11      -0.0577
  14 C10       1.8621   -13.4260    -9.7343  C.ar    1  <O>11      -0.0334
  15 C11       1.7928   -12.0309    -9.9596  C.ar    1  <O>11       0.1018
  16 N2        2.7017   -11.2898   -10.6117  N.ar    1  <O>11      -0.1907
  17 S2        2.1321    -9.7269   -10.5906  S.2     1  <O>11       0.1165
  18 N3        0.7071    -9.9208    -9.7574  N.ar    1  <O>11      -0.1888
  19 C12       0.6187   -11.2268    -9.4585  C.ar    1  <O>11       0.1264
  20 C13       0.7874    -9.7806    -5.7650  C.ar    1  <O>11      -0.0364
  21 H1        3.2314    -9.2521    -5.2971  H       1  <O>11       0.0278
  22 H2        3.4736   -10.7152    -4.3128  H       1  <O>11       0.0278
  23 H3        2.9942    -9.1880    -3.5342  H       1  <O>11       0.0278
  24 H4       -1.4386    -8.7722    -7.3168  H       1  <O>11       0.1737
  25 H5        1.3082   -11.1481    -2.7415  H       1  <O>11       0.0620
  26 H6       -1.0275   -11.7615    -3.0324  H       1  <O>11       0.0618
  27 H7       -2.2132   -11.1207    -5.0562  H       1  <O>11       0.0636
  28 H8       -1.0694   -13.7155    -8.0391  H       1  <O>11       0.0638
  29 H9        0.8038   -15.0074    -8.8400  H       1  <O>11       0.0619
  30 H10       2.6548   -13.9946   -10.0709  H       1  <O>11       0.0640
  31 H11       1.2744    -9.2420    -6.4983  H       1  <O>11       0.0639
@<TRIPOS>BOND
     1     1     2    1
     2     2     3   ar
     3     3     4   ar
     4     4     5   ar
     5     5     6   ar
     6     6     7    1
     7     7     8    1
     8     8     9    2
     9     8    10    2
    10     8    11    1
    11    11    12   ar
    12    12    13   ar
    13    13    14   ar
    14    14    15   ar
    15    15    16   ar
    16    16    17   ar
    17    17    18   ar
    18    18    19   ar
    19    11    19   ar
    20    15    19   ar
    21     6    20   ar
    22     2    20   ar
    23     1    21    1
    24     1    22    1
    25     1    23    1
    26     7    24    1
    27     3    25    1
    28     4    26    1
    29     5    27    1
    30    12    28    1
    31    13    29    1
    32    14    30    1
    33    20    31    1
@<TRIPOS>MOLECULE
mol13_2_4
 31 33 0 0 0
SMALL
USER_CHARGES
****
VDW energy = -59.13
@<TRIPOS>ATOM
   1 C1        2.8832    -9.8059    -4.4252  C.3     1  <O>11      -0.0397
   2 C2        1.4617   -10.1611    -4.6036  C.ar    1  <O>11      -0.0487
   3 C3        0.8050   -10.8783    -3.6012  C.ar    1  <O>11      -0.0587
   4 C4       -0.5391   -11.2290    -3.7692  C.ar    1  <O>11      -0.0597
   5 C5       -1.2224   -10.8607    -4.9311  C.ar    1  <O>11      -0.0393
   6 C6       -0.5527   -10.1366    -5.9237  C.ar    1  <O>11       0.0483
   7 N1       -1.2620    -9.7580    -7.1200  N.pl3   1  <O>11      -0.2162
   8 S1       -2.5157    -8.6863    -7.0327  S.O2    1  <O>11       0.0745
   9 O1       -3.1400    -8.4388    -8.5521  O.2     1  <O>11      -0.1499
  10 O2       -1.9696    -7.2437    -6.4163  O.2     1  <O>11      -0.1499
  11 C7       -3.7763    -9.3396    -5.9762  C.ar    1  <O>11       0.1365
  12 C8       -4.1754    -8.6482    -4.8111  C.ar    1  <O>11      -0.0328
  13 C9       -5.1837    -9.1569    -3.9538  C.ar    1  <O>11      -0.0577
  14 C10      -5.8552   -10.3685    -4.1910  C.ar    1  <O>11      -0.0334
  15 C11      -5.4688   -11.0777    -5.3527  C.ar    1  <O>11       0.1018
  16 N2       -5.9769   -12.2475    -5.7697  N.ar    1  <O>11      -0.1907
  17 S2       -5.1760   -12.6295    -7.1769  S.2     1  <O>11       0.1165
  18 N3       -4.1527   -11.3278    -7.3218  N.ar    1  <O>11      -0.1888
  19 C12      -4.3972   -10.5353    -6.2659  C.ar    1  <O>11       0.1264
  20 C13       0.7874    -9.7806    -5.7650  C.ar    1  <O>11      -0.0364
  21 H1        3.2314    -9.2521    -5.2971  H       1  <O>11       0.0278
  22 H2        3.4736   -10.7152    -4.3128  H       1  <O>11       0.0278
  23 H3        2.9942    -9.1880    -3.5342  H       1  <O>11       0.0278
  24 H4       -0.9885   -10.1528    -8.0206  H       1  <O>11       0.1737
  25 H5        1.3082   -11.1481    -2.7415  H       1  <O>11       0.0620
  26 H6       -1.0275   -11.7615    -3.0324  H       1  <O>11       0.0618
  27 H7       -2.2132   -11.1207    -5.0562  H       1  <O>11       0.0636
  28 H8       -3.7221    -7.7508    -4.5781  H       1  <O>11       0.0638
  29 H9       -5.4367    -8.6111    -3.1152  H       1  <O>11       0.0619
  30 H10      -6.5875   -10.7204    -3.5548  H       1  <O>11       0.0640
  31 H11       1.2744    -9.2420    -6.4983  H       1  <O>11       0.0639
@<TRIPOS>BOND
     1     1     2    1
     2     2     3   ar
     3     3     4   ar
     4     4     5   ar
     5     5     6   ar
     6     6     7    1
     7     7     8    1
     8     8     9    2
     9     8    10    2
    10     8    11    1
    11    11    12   ar
    12    12    13   ar
    13    13    14   ar
    14    14    15   ar
    15    15    16   ar
    16    16    17   ar
    17    17    18   ar
    18    18    19   ar
    19    11    19   ar
    20    15    19   ar
    21     6    20   ar
    22     2    20   ar
    23     1    21    1
    24     1    22    1
    25     1    23    1
    26     7    24    1
    27     3    25    1
    28     4    26    1
    29     5    27    1
    30    12    28    1
    31    13    29    1
    32    14    30    1
    33    20    31    1
@<TRIPOS>MOLECULE
mol13_2_5
 31 33 0 0 0
SMALL
USER_CHARGES
****
VDW energy = -59.05
@<TRIPOS>ATOM
   1 C1        2.8832    -9.8059    -4.4252  C.3     1  <O>11      -0.0397
   2 C2        1.4617   -10.1611    -4.6036  C.ar    1  <O>11      -0.0487
   3 C3        0.8050   -10.8783    -3.6012  C.ar    1  <O>11      -0.0587
   4 C4       -0.5391   -11.2290    -3.7692  C.ar    1  <O>11      -0.0597
   5 C5       -1.2224   -10.8607    -4.9311  C.ar    1  <O>11      -0.0393
   6 C6       -0.5527   -10.1366    -5.9237  C.ar    1  <O>11       0.0483
   7 N1       -1.2620    -9.7580    -7.1200  N.pl3   1  <O>11      -0.2162
   8 S1       -2.0672    -8.3172    -7.1819  S.O2    1  <O>11       0.0745
   9 O1       -0.9944    -7.0720    -6.9411  O.2     1  <O>11      -0.1499
  10 O2       -3.2318    -8.2821    -5.9979  O.2     1  <O>11      -0.1499
  11 C7       -2.8327    -8.1382    -8.7675  C.ar    1  <O>11       0.1365
  12 C8       -4.2328    -7.9933    -8.8840  C.ar    1  <O>11      -0.0328
  13 C9       -4.8624    -7.8485   -10.1461  C.ar    1  <O>11      -0.0577
  14 C10      -4.1558    -7.8373   -11.3609  C.ar    1  <O>11      -0.0334
  15 C11      -2.7516    -7.9828   -11.2662  C.ar    1  <O>11       0.1018
  16 N2       -1.8879    -7.9977   -12.2929  N.ar    1  <O>11      -0.1907
  17 S2       -0.3752    -8.1902   -11.6279  S.2     1  <O>11       0.1165
  18 N3       -0.7476    -8.2595   -10.0096  N.ar    1  <O>11      -0.1888
  19 C12      -2.0816    -8.1350    -9.9230  C.ar    1  <O>11       0.1264
  20 C13       0.7874    -9.7806    -5.7650  C.ar    1  <O>11      -0.0364
  21 H1        3.2314    -9.2521    -5.2971  H       1  <O>11       0.0278
  22 H2        3.4736   -10.7152    -4.3128  H       1  <O>11       0.0278
  23 H3        2.9942    -9.1880    -3.5342  H       1  <O>11       0.0278
  24 H4       -1.2658   -10.3811    -7.9284  H       1  <O>11       0.1737
  25 H5        1.3082   -11.1481    -2.7415  H       1  <O>11       0.0620
  26 H6       -1.0275   -11.7615    -3.0324  H       1  <O>11       0.0618
  27 H7       -2.2132   -11.1207    -5.0562  H       1  <O>11       0.0636
  28 H8       -4.8116    -7.9928    -8.0296  H       1  <O>11       0.0638
  29 H9       -5.8890    -7.7463   -10.1740  H       1  <O>11       0.0619
  30 H10      -4.6335    -7.7293   -12.2693  H       1  <O>11       0.0640
  31 H11       1.2744    -9.2420    -6.4983  H       1  <O>11       0.0639
@<TRIPOS>BOND
     1     1     2    1
     2     2     3   ar
     3     3     4   ar
     4     4     5   ar
     5     5     6   ar
     6     6     7    1
     7     7     8    1
     8     8     9    2
     9     8    10    2
    10     8    11    1
    11    11    12   ar
    12    12    13   ar
    13    13    14   ar
    14    14    15   ar
    15    15    16   ar
    16    16    17   ar
    17    17    18   ar
    18    18    19   ar
    19    11    19   ar
    20    15    19   ar
    21     6    20   ar
    22     2    20   ar
    23     1    21    1
    24     1    22    1
    25     1    23    1
    26     7    24    1
    27     3    25    1
    28     4    26    1
    29     5    27    1
    30    12    28    1
    31    13    29    1
    32    14    30    1
    33    20    31    1
@<TRIPOS>MOLECULE
mol13_2_6
 31 33 0 0 0
SMALL
USER_CHARGES
****
VDW energy = -59.02
@<TRIPOS>ATOM
   1 C1        2.8832    -9.8059    -4.4252  C.3     1  <O>11      -0.0397
   2 C2        1.4617   -10.1611    -4.6036  C.ar    1  <O>11      -0.0487
   3 C3        0.8050   -10.8783    -3.6012  C.ar    1  <O>11      -0.0587
   4 C4       -0.5391   -11.2290    -3.7692  C.ar    1  <O>11      -0.0597
   5 C5       -1.2224   -10.8607    -4.9311  C.ar    1  <O>11      -0.0393
   6 C6       -0.5527   -10.1366    -5.9237  C.ar    1  <O>11       0.0483
   7 N1       -1.2620    -9.7580    -7.1200  N.pl3   1  <O>11      -0.2162
   8 S1       -1.2697   -10.7648    -8.4293  S.O2    1  <O>11       0.0745
   9 O1       -1.9482   -12.2205    -8.0050  O.2     1  <O>11      -0.1499
  10 O2        0.2888   -11.0103    -8.9487  O.2     1  <O>11      -0.1499
  11 C7       -2.2165   -10.0299    -9.7316  C.ar    1  <O>11       0.1365
  12 C8       -1.6272    -9.7421   -10.9824  C.ar    1  <O>11      -0.0328
  13 C9       -2.3709    -9.1539   -12.0365  C.ar    1  <O>11      -0.0577
  14 C10      -3.7304    -8.8165   -11.9230  C.ar    1  <O>11      -0.0334
  15 C11      -4.3396    -9.0954   -10.6768  C.ar    1  <O>11       0.1018
  16 N2       -5.6198    -8.8582   -10.3525  N.ar    1  <O>11      -0.1907
  17 S2       -5.8069    -9.3733    -8.7818  S.2     1  <O>11       0.1165
  18 N3       -4.2750    -9.9228    -8.4445  N.ar    1  <O>11      -0.1888
  19 C12      -3.5485    -9.7231    -9.5558  C.ar    1  <O>11       0.1264
  20 C13       0.7874    -9.7806    -5.7650  C.ar    1  <O>11      -0.0364
  21 H1        3.2314    -9.2521    -5.2971  H       1  <O>11       0.0278
  22 H2        3.4736   -10.7152    -4.3128  H       1  <O>11       0.0278
  23 H3        2.9942    -9.1880    -3.5342  H       1  <O>11       0.0278
  24 H4       -1.7593    -8.8674    -7.1568  H       1  <O>11       0.1737
  25 H5        1.3082   -11.1481    -2.7415  H       1  <O>11       0.0620
  26 H6       -1.0275   -11.7615    -3.0324  H       1  <O>11       0.0618
  27 H7       -2.2132   -11.1207    -5.0562  H       1  <O>11       0.0636
  28 H8       -0.6309    -9.9654   -11.1327  H       1  <O>11       0.0638
  29 H9       -1.8907    -8.9644   -12.9301  H       1  <O>11       0.0619
  30 H10      -4.2541    -8.3901   -12.7034  H       1  <O>11       0.0640
  31 H11       1.2744    -9.2420    -6.4983  H       1  <O>11       0.0639
@<TRIPOS>BOND
     1     1     2    1
     2     2     3   ar
     3     3     4   ar
     4     4     5   ar
     5     5     6   ar
     6     6     7    1
     7     7     8    1
     8     8     9    2
     9     8    10    2
    10     8    11    1
    11    11    12   ar
    12    12    13   ar
    13    13    14   ar
    14    14    15   ar
    15    15    16   ar
    16    16    17   ar
    17    17    18   ar
    18    18    19   ar
    19    11    19   ar
    20    15    19   ar
    21     6    20   ar
    22     2    20   ar
    23     1    21    1
    24     1    22    1
    25     1    23    1
    26     7    24    1
    27     3    25    1
    28     4    26    1
    29     5    27    1
    30    12    28    1
    31    13    29    1
    32    14    30    1
    33    20    31    1
@<TRIPOS>MOLECULE
mol13_2_7
 31 33 0 0 0
SMALL
USER_CHARGES
****
VDW energy = -57.80
@<TRIPOS>ATOM
   1 C1        2.8832    -9.8059    -4.4252  C.3     1  <O>11      -0.0397
   2 C2        1.4617   -10.1611    -4.6036  C.ar    1  <O>11      -0.0487
   3 C3        0.8050   -10.8783    -3.6012  C.ar    1  <O>11      -0.0587
   4 C4       -0.5391   -11.2290    -3.7692  C.ar    1  <O>11      -0.0597
   5 C5       -1.2224   -10.8607    -4.9311  C.ar    1  <O>11      -0.0393
   6 C6       -0.5527   -10.1366    -5.9237  C.ar    1  <O>11       0.0483
   7 N1       -1.2620    -9.7580    -7.1200  N.pl3   1  <O>11      -0.2162
   8 S1       -1.7883   -10.9188    -8.1706  S.O2    1  <O>11       0.0745
   9 O1       -2.8394   -11.9393    -7.3876  O.2     1  <O>11      -0.1499
  10 O2       -0.4888   -11.7869    -8.7334  O.2     1  <O>11      -0.1499
  11 C7       -2.6173   -10.1489    -9.5316  C.ar    1  <O>11       0.1365
  12 C8       -2.1521   -10.3202   -10.8541  C.ar    1  <O>11      -0.0328
  13 C9       -2.8042    -9.7110   -11.9559  C.ar    1  <O>11      -0.0577
  14 C10      -3.9460    -8.9025   -11.8225  C.ar    1  <O>11      -0.0334
  15 C11      -4.4273    -8.7169   -10.5050  C.ar    1  <O>11       0.1018
  16 N2       -5.4977    -7.9898   -10.1501  N.ar    1  <O>11      -0.1907
  17 S2       -5.6163    -8.1102    -8.4951  S.2     1  <O>11       0.1165
  18 N3       -4.3187    -9.0918    -8.1556  N.ar    1  <O>11      -0.1888
  19 C12      -3.7345    -9.3667    -9.3328  C.ar    1  <O>11       0.1264
  20 C13       0.7874    -9.7806    -5.7650  C.ar    1  <O>11      -0.0364
  21 H1        3.2314    -9.2521    -5.2971  H       1  <O>11       0.0278
  22 H2        3.4736   -10.7152    -4.3128  H       1  <O>11       0.0278
  23 H3        2.9942    -9.1880    -3.5342  H       1  <O>11       0.0278
  24 H4       -1.4386    -8.7722    -7.3168  H       1  <O>11       0.1737
  25 H5        1.3082   -11.1481    -2.7415  H       1  <O>11       0.0620
  26 H6       -1.0275   -11.7615    -3.0324  H       1  <O>11       0.0618
  27 H7       -2.2132   -11.1207    -5.0562  H       1  <O>11       0.0636
  28 H8       -1.3172   -10.9029   -11.0225  H       1  <O>11       0.0638
  29 H9       -2.4219    -9.8690   -12.9014  H       1  <O>11       0.0619
  30 H10      -4.4065    -8.4693   -12.6381  H       1  <O>11       0.0640
  31 H11       1.2744    -9.2420    -6.4983  H       1  <O>11       0.0639
@<TRIPOS>BOND
     1     1     2    1
     2     2     3   ar
     3     3     4   ar
     4     4     5   ar
     5     5     6   ar
     6     6     7    1
     7     7     8    1
     8     8     9    2
     9     8    10    2
    10     8    11    1
    11    11    12   ar
    12    12    13   ar
    13    13    14   ar
    14    14    15   ar
    15    15    16   ar
    16    16    17   ar
    17    17    18   ar
    18    18    19   ar
    19    11    19   ar
    20    15    19   ar
    21     6    20   ar
    22     2    20   ar
    23     1    21    1
    24     1    22    1
    25     1    23    1
    26     7    24    1
    27     3    25    1
    28     4    26    1
    29     5    27    1
    30    12    28    1
    31    13    29    1
    32    14    30    1
    33    20    31    1
@<TRIPOS>MOLECULE
mol13_2_8
 31 33 0 0 0
SMALL
USER_CHARGES
****
VDW energy = -57.51
@<TRIPOS>ATOM
   1 C1        2.8832    -9.8059    -4.4252  C.3     1  <O>11      -0.0397
   2 C2        1.4617   -10.1611    -4.6036  C.ar    1  <O>11      -0.0487
   3 C3        0.8050   -10.8783    -3.6012  C.ar    1  <O>11      -0.0587
   4 C4       -0.5391   -11.2290    -3.7692  C.ar    1  <O>11      -0.0597
   5 C5       -1.2224   -10.8607    -4.9311  C.ar    1  <O>11      -0.0393
   6 C6       -0.5527   -10.1366    -5.9237  C.ar    1  <O>11       0.0483
   7 N1       -1.2620    -9.7580    -7.1200  N.pl3   1  <O>11      -0.2162
   8 S1       -1.2697   -10.7648    -8.4293  S.O2    1  <O>11       0.0745
   9 O1       -1.9482   -12.2205    -8.0050  O.2     1  <O>11      -0.1499
  10 O2        0.2888   -11.0103    -8.9487  O.2     1  <O>11      -0.1499
  11 C7       -2.2165   -10.0299    -9.7316  C.ar    1  <O>11       0.1365
  12 C8       -2.9117   -10.8318   -10.6634  C.ar    1  <O>11      -0.0328
  13 C9       -3.6750   -10.2598   -11.7125  C.ar    1  <O>11      -0.0577
  14 C10      -3.7990    -8.8732   -11.9052  C.ar    1  <O>11      -0.0334
  15 C11      -3.1086    -8.0519   -10.9829  C.ar    1  <O>11       0.1018
  16 N2       -3.0907    -6.7102   -10.9790  N.ar    1  <O>11      -0.1907
  17 S2       -2.1384    -6.2594    -9.6917  S.2     1  <O>11       0.1165
  18 N3       -1.7095    -7.7443    -9.0803  N.ar    1  <O>11      -0.1888
  19 C12      -2.2979    -8.6607    -9.8656  C.ar    1  <O>11       0.1264
  20 C13       0.7874    -9.7806    -5.7650  C.ar    1  <O>11      -0.0364
  21 H1        3.2314    -9.2521    -5.2971  H       1  <O>11       0.0278
  22 H2        3.4736   -10.7152    -4.3128  H       1  <O>11       0.0278
  23 H3        2.9942    -9.1880    -3.5342  H       1  <O>11       0.0278
  24 H4       -1.7593    -8.8674    -7.1568  H       1  <O>11       0.1737
  25 H5        1.3082   -11.1481    -2.7415  H       1  <O>11       0.0620
  26 H6       -1.0275   -11.7615    -3.0324  H       1  <O>11       0.0618
  27 H7       -2.2132   -11.1207    -5.0562  H       1  <O>11       0.0636
  28 H8       -2.8630   -11.8592   -10.5787  H       1  <O>11       0.0638
  29 H9       -4.1631   -10.8921   -12.3660  H       1  <O>11       0.0619
  30 H10      -4.3610    -8.4771   -12.6748  H       1  <O>11       0.0640
  31 H11       1.2744    -9.2420    -6.4983  H       1  <O>11       0.0639
@<TRIPOS>BOND
     1     1     2    1
     2     2     3   ar
     3     3     4   ar
     4     4     5   ar
     5     5     6   ar
     6     6     7    1
     7     7     8    1
     8     8     9    2
     9     8    10    2
    10     8    11    1
    11    11    12   ar
    12    12    13   ar
    13    13    14   ar
    14    14    15   ar
    15    15    16   ar
    16    16    17   ar
    17    17    18   ar
    18    18    19   ar
    19    11    19   ar
    20    15    19   ar
    21     6    20   ar
    22     2    20   ar
    23     1    21    1
    24     1    22    1
    25     1    23    1
    26     7    24    1
    27     3    25    1
    28     4    26    1
    29     5    27    1
    30    12    28    1
    31    13    29    1
    32    14    30    1
    33    20    31    1
@<TRIPOS>MOLECULE
mol13_2_9
 31 33 0 0 0
SMALL
USER_CHARGES
****
VDW energy = -57.48
@<TRIPOS>ATOM
   1 C1        2.8832    -9.8059    -4.4252  C.3     1  <O>11      -0.0397
   2 C2        1.4617   -10.1611    -4.6036  C.ar    1  <O>11      -0.0487
   3 C3        0.8050   -10.8783    -3.6012  C.ar    1  <O>11      -0.0587
   4 C4       -0.5391   -11.2290    -3.7692  C.ar    1  <O>11      -0.0597
   5 C5       -1.2224   -10.8607    -4.9311  C.ar    1  <O>11      -0.0393
   6 C6       -0.5527   -10.1366    -5.9237  C.ar    1  <O>11       0.0483
   7 N1       -1.2620    -9.7580    -7.1200  N.pl3   1  <O>11      -0.2162
   8 S1       -2.0672    -8.3172    -7.1819  S.O2    1  <O>11       0.0745
   9 O1       -0.9944    -7.0720    -6.9411  O.2     1  <O>11      -0.1499
  10 O2       -3.2318    -8.2821    -5.9979  O.2     1  <O>11      -0.1499
  11 C7       -2.8327    -8.1382    -8.7675  C.ar    1  <O>11       0.1365
  12 C8       -3.0281    -6.8609    -9.3377  C.ar    1  <O>11      -0.0328
  13 C9       -3.6393    -6.6993   -10.6068  C.ar    1  <O>11      -0.0577
  14 C10      -4.0913    -7.7785   -11.3855  C.ar    1  <O>11      -0.0334
  15 C11      -3.9062    -9.0671   -10.8312  C.ar    1  <O>11       0.1018
  16 N2       -4.2591   -10.2299   -11.4002  N.ar    1  <O>11      -0.1907
  17 S2       -3.8151   -11.4260   -10.3326  S.2     1  <O>11       0.1165
  18 N3       -3.1530   -10.5235    -9.1039  N.ar    1  <O>11      -0.1888
  19 C12      -3.2542    -9.2390    -9.4816  C.ar    1  <O>11       0.1264
  20 C13       0.7874    -9.7806    -5.7650  C.ar    1  <O>11      -0.0364
  21 H1        3.2314    -9.2521    -5.2971  H       1  <O>11       0.0278
  22 H2        3.4736   -10.7152    -4.3128  H       1  <O>11       0.0278
  23 H3        2.9942    -9.1880    -3.5342  H       1  <O>11       0.0278
  24 H4       -1.2658   -10.3811    -7.9284  H       1  <O>11       0.1737
  25 H5        1.3082   -11.1481    -2.7415  H       1  <O>11       0.0620
  26 H6       -1.0275   -11.7615    -3.0324  H       1  <O>11       0.0618
  27 H7       -2.2132   -11.1207    -5.0562  H       1  <O>11       0.0636
  28 H8       -2.7185    -6.0249    -8.8179  H       1  <O>11       0.0638
  29 H9       -3.7580    -5.7431   -10.9766  H       1  <O>11       0.0619
  30 H10      -4.5325    -7.6391   -12.3079  H       1  <O>11       0.0640
  31 H11       1.2744    -9.2420    -6.4983  H       1  <O>11       0.0639
@<TRIPOS>BOND
     1     1     2    1
     2     2     3   ar
     3     3     4   ar
     4     4     5   ar
     5     5     6   ar
     6     6     7    1
     7     7     8    1
     8     8     9    2
     9     8    10    2
    10     8    11    1
    11    11    12   ar
    12    12    13   ar
    13    13    14   ar
    14    14    15   ar
    15    15    16   ar
    16    16    17   ar
    17    17    18   ar
    18    18    19   ar
    19    11    19   ar
    20    15    19   ar
    21     6    20   ar
    22     2    20   ar
    23     1    21    1
    24     1    22    1
    25     1    23    1
    26     7    24    1
    27     3    25    1
    28     4    26    1
    29     5    27    1
    30    12    28    1
    31    13    29    1
    32    14    30    1
    33    20    31    1
@<TRIPOS>MOLECULE
mol13_2_10
 31 33 0 0 0
SMALL
USER_CHARGES
****
VDW energy = -56.26
@<TRIPOS>ATOM
   1 C1        2.8832    -9.8059    -4.4252  C.3     1  <O>11      -0.0397
   2 C2        1.4617   -10.1611    -4.6036  C.ar    1  <O>11      -0.0487
   3 C3        0.8050   -10.8783    -3.6012  C.ar    1  <O>11      -0.0587
   4 C4       -0.5391   -11.2290    -3.7692  C.ar    1  <O>11      -0.0597
   5 C5       -1.2224   -10.8607    -4.9311  C.ar    1  <O>11      -0.0393
   6 C6       -0.5527   -10.1366    -5.9237  C.ar    1  <O>11       0.0483
   7 N1       -1.2620    -9.7580    -7.1200  N.pl3   1  <O>11      -0.2162
   8 S1       -2.5157    -8.6863    -7.0327  S.O2    1  <O>11       0.0745
   9 O1       -1.9694    -7.2433    -6.4172  O.2     1  <O>11      -0.1499
  10 O2       -3.7000    -9.2985    -6.0419  O.2     1  <O>11      -0.1499
  11 C7       -3.1794    -8.4234    -8.6522  C.ar    1  <O>11       0.1365
  12 C8       -3.7699    -7.1889    -9.0017  C.ar    1  <O>11      -0.0328
  13 C9       -4.3061    -6.9612   -10.2944  C.ar    1  <O>11      -0.0577
  14 C10      -4.2926    -7.9287   -11.3136  C.ar    1  <O>11      -0.0334
  15 C11      -3.7066    -9.1735   -10.9832  C.ar    1  <O>11       0.1018
  16 N2       -3.5864   -10.2315   -11.7996  N.ar    1  <O>11      -0.1907
  17 S2       -2.8281   -11.4195   -10.9158  S.2     1  <O>11       0.1165
  18 N3       -2.6156   -10.6446    -9.4609  N.ar    1  <O>11      -0.1888
  19 C12      -3.1345    -9.4150    -9.6083  C.ar    1  <O>11       0.1264
  20 C13       0.7874    -9.7806    -5.7650  C.ar    1  <O>11      -0.0364
  21 H1        3.2314    -9.2521    -5.2971  H       1  <O>11       0.0278
  22 H2        3.4736   -10.7152    -4.3128  H       1  <O>11       0.0278
  23 H3        2.9942    -9.1880    -3.5342  H       1  <O>11       0.0278
  24 H4       -0.9885   -10.1528    -8.0206  H       1  <O>11       0.1737
  25 H5        1.3082   -11.1481    -2.7415  H       1  <O>11       0.0620
  26 H6       -1.0275   -11.7615    -3.0324  H       1  <O>11       0.0618
  27 H7       -2.2132   -11.1207    -5.0562  H       1  <O>11       0.0636
  28 H8       -3.8121    -6.4342    -8.2991  H       1  <O>11       0.0638
  29 H9       -4.7265    -6.0406   -10.4965  H       1  <O>11       0.0619
  30 H10      -4.6872    -7.7421   -12.2488  H       1  <O>11       0.0640
  31 H11       1.2744    -9.2420    -6.4983  H       1  <O>11       0.0639
@<TRIPOS>BOND
     1     1     2    1
     2     2     3   ar
     3     3     4   ar
     4     4     5   ar
     5     5     6   ar
     6     6     7    1
     7     7     8    1
     8     8     9    2
     9     8    10    2
    10     8    11    1
    11    11    12   ar
    12    12    13   ar
    13    13    14   ar
    14    14    15   ar
    15    15    16   ar
    16    16    17   ar
    17    17    18   ar
    18    18    19   ar
    19    11    19   ar
    20    15    19   ar
    21     6    20   ar
    22     2    20   ar
    23     1    21    1
    24     1    22    1
    25     1    23    1
    26     7    24    1
    27     3    25    1
    28     4    26    1
    29     5    27    1
    30    12    28    1
    31    13    29    1
    32    14    30    1
    33    20    31    1
@<TRIPOS>MOLECULE
mol13_2_11
 31 33 0 0 0
SMALL
USER_CHARGES
****
VDW energy = -56.15
@<TRIPOS>ATOM
   1 C1        2.8832    -9.8059    -4.4252  C.3     1  <O>11      -0.0397
   2 C2        1.4617   -10.1611    -4.6036  C.ar    1  <O>11      -0.0487
   3 C3        0.8050   -10.8783    -3.6012  C.ar    1  <O>11      -0.0587
   4 C4       -0.5391   -11.2290    -3.7692  C.ar    1  <O>11      -0.0597
   5 C5       -1.2224   -10.8607    -4.9311  C.ar    1  <O>11      -0.0393
   6 C6       -0.5527   -10.1366    -5.9237  C.ar    1  <O>11       0.0483
   7 N1       -1.2620    -9.7580    -7.1200  N.pl3   1  <O>11      -0.2162
   8 S1       -1.2697   -10.7648    -8.4293  S.O2    1  <O>11       0.0745
   9 O1       -1.9482   -12.2205    -8.0050  O.2     1  <O>11      -0.1499
  10 O2        0.2888   -11.0103    -8.9487  O.2     1  <O>11      -0.1499
  11 C7       -2.2165   -10.0299    -9.7316  C.ar    1  <O>11       0.1365
  12 C8       -2.2965    -8.6263    -9.8661  C.ar    1  <O>11      -0.0328
  13 C9       -3.0500    -8.0209   -10.9034  C.ar    1  <O>11      -0.0577
  14 C10      -3.7647    -8.7565   -11.8642  C.ar    1  <O>11      -0.0334
  15 C11      -3.6988   -10.1649   -11.7462  C.ar    1  <O>11       0.1018
  16 N2       -4.2995   -11.0542   -12.5517  N.ar    1  <O>11      -0.1907
  17 S2       -3.8935   -12.5593   -11.9708  S.2     1  <O>11       0.1165
  18 N3       -2.9360   -12.1506   -10.6752  N.ar    1  <O>11      -0.1888
  19 C12      -2.8954   -10.8090   -10.6434  C.ar    1  <O>11       0.1264
  20 C13       0.7874    -9.7806    -5.7650  C.ar    1  <O>11      -0.0364
  21 H1        3.2314    -9.2521    -5.2971  H       1  <O>11       0.0278
  22 H2        3.4736   -10.7152    -4.3128  H       1  <O>11       0.0278
  23 H3        2.9942    -9.1880    -3.5342  H       1  <O>11       0.0278
  24 H4       -1.7593    -8.8674    -7.1568  H       1  <O>11       0.1737
  25 H5        1.3082   -11.1481    -2.7415  H       1  <O>11       0.0620
  26 H6       -1.0275   -11.7615    -3.0324  H       1  <O>11       0.0618
  27 H7       -2.2132   -11.1207    -5.0562  H       1  <O>11       0.0636
  28 H8       -1.7943    -8.0266    -9.1929  H       1  <O>11       0.0638
  29 H9       -3.0749    -6.9905   -10.9553  H       1  <O>11       0.0619
  30 H10      -4.3062    -8.2961   -12.6125  H       1  <O>11       0.0640
  31 H11       1.2744    -9.2420    -6.4983  H       1  <O>11       0.0639
@<TRIPOS>BOND
     1     1     2    1
     2     2     3   ar
     3     3     4   ar
     4     4     5   ar
     5     5     6   ar
     6     6     7    1
     7     7     8    1
     8     8     9    2
     9     8    10    2
    10     8    11    1
    11    11    12   ar
    12    12    13   ar
    13    13    14   ar
    14    14    15   ar
    15    15    16   ar
    16    16    17   ar
    17    17    18   ar
    18    18    19   ar
    19    11    19   ar
    20    15    19   ar
    21     6    20   ar
    22     2    20   ar
    23     1    21    1
    24     1    22    1
    25     1    23    1
    26     7    24    1
    27     3    25    1
    28     4    26    1
    29     5    27    1
    30    12    28    1
    31    13    29    1
    32    14    30    1
    33    20    31    1
@<TRIPOS>MOLECULE
mol13_2_12
 31 33 0 0 0
SMALL
USER_CHARGES
****
VDW energy = -55.37
@<TRIPOS>ATOM
   1 C1        2.8832    -9.8059    -4.4252  C.3     1  <O>11      -0.0397
   2 C2        1.4617   -10.1611    -4.6036  C.ar    1  <O>11      -0.0487
   3 C3        0.8050   -10.8783    -3.6012  C.ar    1  <O>11      -0.0587
   4 C4       -0.5391   -11.2290    -3.7692  C.ar    1  <O>11      -0.0597
   5 C5       -1.2224   -10.8607    -4.9311  C.ar    1  <O>11      -0.0393
   6 C6       -0.5527   -10.1366    -5.9237  C.ar    1  <O>11       0.0483
   7 N1       -1.2620    -9.7580    -7.1200  N.pl3   1  <O>11      -0.2162
   8 S1       -1.2697   -10.7648    -8.4293  S.O2    1  <O>11       0.0745
   9 O1       -1.9482   -12.2205    -8.0050  O.2     1  <O>11      -0.1499
  10 O2        0.2888   -11.0103    -8.9487  O.2     1  <O>11      -0.1499
  11 C7       -2.2165   -10.0299    -9.7316  C.ar    1  <O>11       0.1365
  12 C8       -2.8262    -8.7675    -9.5607  C.ar    1  <O>11      -0.0328
  13 C9       -3.5878    -8.1641   -10.5933  C.ar    1  <O>11      -0.0577
  14 C10      -3.7928    -8.7635   -11.8478  C.ar    1  <O>11      -0.0334
  15 C11      -3.1914   -10.0299   -12.0389  C.ar    1  <O>11       0.1018
  16 N2       -3.2561   -10.7752   -13.1528  N.ar    1  <O>11      -0.1907
  17 S2       -2.3805   -12.1553   -12.8429  S.2     1  <O>11       0.1165
  18 N3       -1.8777   -11.8678   -11.2850  N.ar    1  <O>11      -0.1888
  19 C12      -2.3795   -10.6709   -10.9407  C.ar    1  <O>11       0.1264
  20 C13       0.7874    -9.7806    -5.7650  C.ar    1  <O>11      -0.0364
  21 H1        3.2314    -9.2521    -5.2971  H       1  <O>11       0.0278
  22 H2        3.4736   -10.7152    -4.3128  H       1  <O>11       0.0278
  23 H3        2.9942    -9.1880    -3.5342  H       1  <O>11       0.0278
  24 H4       -1.7593    -8.8674    -7.1568  H       1  <O>11       0.1737
  25 H5        1.3082   -11.1481    -2.7415  H       1  <O>11       0.0620
  26 H6       -1.0275   -11.7615    -3.0324  H       1  <O>11       0.0618
  27 H7       -2.2132   -11.1207    -5.0562  H       1  <O>11       0.0636
  28 H8       -2.7147    -8.2721    -8.6622  H       1  <O>11       0.0638
  29 H9       -4.0119    -7.2403   -10.4151  H       1  <O>11       0.0619
  30 H10      -4.3496    -8.3065   -12.5868  H       1  <O>11       0.0640
  31 H11       1.2744    -9.2420    -6.4983  H       1  <O>11       0.0639
@<TRIPOS>BOND
     1     1     2    1
     2     2     3   ar
     3     3     4   ar
     4     4     5   ar
     5     5     6   ar
     6     6     7    1
     7     7     8    1
     8     8     9    2
     9     8    10    2
    10     8    11    1
    11    11    12   ar
    12    12    13   ar
    13    13    14   ar
    14    14    15   ar
    15    15    16   ar
    16    16    17   ar
    17    17    18   ar
    18    18    19   ar
    19    11    19   ar
    20    15    19   ar
    21     6    20   ar
    22     2    20   ar
    23     1    21    1
    24     1    22    1
    25     1    23    1
    26     7    24    1
    27     3    25    1
    28     4    26    1
    29     5    27    1
    30    12    28    1
    31    13    29    1
    32    14    30    1
    33    20    31    1
@<TRIPOS>MOLECULE
mol13_2_13
 31 33 0 0 0
SMALL
USER_CHARGES
****
VDW energy = -55.36
@<TRIPOS>ATOM
   1 C1        2.8832    -9.8059    -4.4252  C.3     1  <O>11      -0.0397
   2 C2        1.4617   -10.1611    -4.6036  C.ar    1  <O>11      -0.0487
   3 C3        0.8050   -10.8783    -3.6012  C.ar    1  <O>11      -0.0587
   4 C4       -0.5391   -11.2290    -3.7692  C.ar    1  <O>11      -0.0597
   5 C5       -1.2224   -10.8607    -4.9311  C.ar    1  <O>11      -0.0393
   6 C6       -0.5527   -10.1366    -5.9237  C.ar    1  <O>11       0.0483
   7 N1       -1.2620    -9.7580    -7.1200  N.pl3   1  <O>11      -0.2162
   8 S1       -2.0672    -8.3172    -7.1819  S.O2    1  <O>11       0.0745
   9 O1       -0.9944    -7.0720    -6.9411  O.2     1  <O>11      -0.1499
  10 O2       -3.2318    -8.2821    -5.9979  O.2     1  <O>11      -0.1499
  11 C7       -2.8327    -8.1382    -8.7675  C.ar    1  <O>11       0.1365
  12 C8       -2.7051    -9.1433    -9.7514  C.ar    1  <O>11      -0.0328
  13 C9       -3.3118    -9.0163   -11.0266  C.ar    1  <O>11      -0.0577
  14 C10      -4.0760    -7.8997   -11.4065  C.ar    1  <O>11      -0.0334
  15 C11      -4.2148    -6.8802   -10.4353  C.ar    1  <O>11       0.1018
  16 N2       -4.8986    -5.7353   -10.5839  N.ar    1  <O>11      -0.1907
  17 S2       -4.7402    -4.9071    -9.1499  S.2     1  <O>11       0.1165
  18 N3       -3.8012    -5.9642    -8.2762  N.ar    1  <O>11      -0.1888
  19 C12      -3.5706    -7.0163    -9.0778  C.ar    1  <O>11       0.1264
  20 C13       0.7874    -9.7806    -5.7650  C.ar    1  <O>11      -0.0364
  21 H1        3.2314    -9.2521    -5.2971  H       1  <O>11       0.0278
  22 H2        3.4736   -10.7152    -4.3128  H       1  <O>11       0.0278
  23 H3        2.9942    -9.1880    -3.5342  H       1  <O>11       0.0278
  24 H4       -1.2658   -10.3811    -7.9284  H       1  <O>11       0.1737
  25 H5        1.3082   -11.1481    -2.7415  H       1  <O>11       0.0620
  26 H6       -1.0275   -11.7615    -3.0324  H       1  <O>11       0.0618
  27 H7       -2.2132   -11.1207    -5.0562  H       1  <O>11       0.0636
  28 H8       -2.1567    -9.9909    -9.5370  H       1  <O>11       0.0638
  29 H9       -3.1864    -9.7807   -11.7085  H       1  <O>11       0.0619
  30 H10      -4.5105    -7.8275   -12.3398  H       1  <O>11       0.0640
  31 H11       1.2744    -9.2420    -6.4983  H       1  <O>11       0.0639
@<TRIPOS>BOND
     1     1     2    1
     2     2     3   ar
     3     3     4   ar
     4     4     5   ar
     5     5     6   ar
     6     6     7    1
     7     7     8    1
     8     8     9    2
     9     8    10    2
    10     8    11    1
    11    11    12   ar
    12    12    13   ar
    13    13    14   ar
    14    14    15   ar
    15    15    16   ar
    16    16    17   ar
    17    17    18   ar
    18    18    19   ar
    19    11    19   ar
    20    15    19   ar
    21     6    20   ar
    22     2    20   ar
    23     1    21    1
    24     1    22    1
    25     1    23    1
    26     7    24    1
    27     3    25    1
    28     4    26    1
    29     5    27    1
    30    12    28    1
    31    13    29    1
    32    14    30    1
    33    20    31    1
@<TRIPOS>MOLECULE
mol13_2_14
 31 33 0 0 0
SMALL
USER_CHARGES
****
VDW energy = -54.91
@<TRIPOS>ATOM
   1 C1        2.8832    -9.8059    -4.4252  C.3     1  <O>11      -0.0397
   2 C2        1.4617   -10.1611    -4.6036  C.ar    1  <O>11      -0.0487
   3 C3        0.8050   -10.8783    -3.6012  C.ar    1  <O>11      -0.0587
   4 C4       -0.5391   -11.2290    -3.7692  C.ar    1  <O>11      -0.0597
   5 C5       -1.2224   -10.8607    -4.9311  C.ar    1  <O>11      -0.0393
   6 C6       -0.5527   -10.1366    -5.9237  C.ar    1  <O>11       0.0483
   7 N1       -1.2620    -9.7580    -7.1200  N.pl3   1  <O>11      -0.2162
   8 S1       -1.7883   -10.9188    -8.1706  S.O2    1  <O>11       0.0745
   9 O1       -2.8394   -11.9393    -7.3876  O.2     1  <O>11      -0.1499
  10 O2       -0.4888   -11.7869    -8.7334  O.2     1  <O>11      -0.1499
  11 C7       -2.6173   -10.1489    -9.5316  C.ar    1  <O>11       0.1365
  12 C8       -2.2497    -8.8565    -9.9667  C.ar    1  <O>11      -0.0328
  13 C9       -2.9029    -8.2251   -11.0553  C.ar    1  <O>11      -0.0577
  14 C10      -3.9498    -8.8247   -11.7761  C.ar    1  <O>11      -0.0334
  15 C11      -4.3345   -10.1195   -11.3549  C.ar    1  <O>11       0.1018
  16 N2       -5.3032   -10.8719   -11.8989  N.ar    1  <O>11      -0.1907
  17 S2       -5.3359   -12.2905   -11.0306  S.2     1  <O>11       0.1165
  18 N3       -4.1218   -12.0154    -9.9293  N.ar    1  <O>11      -0.1888
  19 C12      -3.6381   -10.7919   -10.1977  C.ar    1  <O>11       0.1264
  20 C13       0.7874    -9.7806    -5.7650  C.ar    1  <O>11      -0.0364
  21 H1        3.2314    -9.2521    -5.2971  H       1  <O>11       0.0278
  22 H2        3.4736   -10.7152    -4.3128  H       1  <O>11       0.0278
  23 H3        2.9942    -9.1880    -3.5342  H       1  <O>11       0.0278
  24 H4       -1.4386    -8.7722    -7.3168  H       1  <O>11       0.1737
  25 H5        1.3082   -11.1481    -2.7415  H       1  <O>11       0.0620
  26 H6       -1.0275   -11.7615    -3.0324  H       1  <O>11       0.0618
  27 H7       -2.2132   -11.1207    -5.0562  H       1  <O>11       0.0636
  28 H8       -1.4870    -8.3596    -9.4804  H       1  <O>11       0.0638
  29 H9       -2.5946    -7.2798   -11.3316  H       1  <O>11       0.0619
  30 H10      -4.4112    -8.3482   -12.5667  H       1  <O>11       0.0640
  31 H11       1.2744    -9.2420    -6.4983  H       1  <O>11       0.0639
@<TRIPOS>BOND
     1     1     2    1
     2     2     3   ar
     3     3     4   ar
     4     4     5   ar
     5     5     6   ar
     6     6     7    1
     7     7     8    1
     8     8     9    2
     9     8    10    2
    10     8    11    1
    11    11    12   ar
    12    12    13   ar
    13    13    14   ar
    14    14    15   ar
    15    15    16   ar
    16    16    17   ar
    17    17    18   ar
    18    18    19   ar
    19    11    19   ar
    20    15    19   ar
    21     6    20   ar
    22     2    20   ar
    23     1    21    1
    24     1    22    1
    25     1    23    1
    26     7    24    1
    27     3    25    1
    28     4    26    1
    29     5    27    1
    30    12    28    1
    31    13    29    1
    32    14    30    1
    33    20    31    1
@<TRIPOS>MOLECULE
mol13_2_15
 31 33 0 0 0
SMALL
USER_CHARGES
****
VDW energy = -54.30
@<TRIPOS>ATOM
   1 C1        2.8832    -9.8059    -4.4252  C.3     1  <O>11      -0.0397
   2 C2        1.4617   -10.1611    -4.6036  C.ar    1  <O>11      -0.0487
   3 C3        0.8050   -10.8783    -3.6012  C.ar    1  <O>11      -0.0587
   4 C4       -0.5391   -11.2290    -3.7692  C.ar    1  <O>11      -0.0597
   5 C5       -1.2224   -10.8607    -4.9311  C.ar    1  <O>11      -0.0393
   6 C6       -0.5527   -10.1366    -5.9237  C.ar    1  <O>11       0.0483
   7 N1       -1.2620    -9.7580    -7.1200  N.pl3   1  <O>11      -0.2162
   8 S1       -2.5157    -8.6863    -7.0327  S.O2    1  <O>11       0.0745
   9 O1       -3.6997    -9.2980    -6.0410  O.2     1  <O>11      -0.1499
  10 O2       -3.1392    -8.4381    -8.5522  O.2     1  <O>11      -0.1499
  11 C7       -1.9322    -7.1497    -6.3765  C.ar    1  <O>11       0.1365
  12 C8       -2.0353    -5.9563    -7.1248  C.ar    1  <O>11      -0.0328
  13 C9       -1.5733    -4.7168    -6.6145  C.ar    1  <O>11      -0.0577
  14 C10      -0.9864    -4.5790    -5.3450  C.ar    1  <O>11      -0.0334
  15 C11      -0.8722    -5.7635    -4.5795  C.ar    1  <O>11       0.1018
  16 N2       -0.3487    -5.8608    -3.3479  N.ar    1  <O>11      -0.1907
  17 S2       -0.4634    -7.4635    -2.9169  S.2     1  <O>11       0.1165
  18 N3       -1.1847    -8.1042    -4.2704  N.ar    1  <O>11      -0.1888
  19 C12      -1.3656    -7.0820    -5.1220  C.ar    1  <O>11       0.1264
  20 C13       0.7874    -9.7806    -5.7650  C.ar    1  <O>11      -0.0364
  21 H1        3.2314    -9.2521    -5.2971  H       1  <O>11       0.0278
  22 H2        3.4736   -10.7152    -4.3128  H       1  <O>11       0.0278
  23 H3        2.9942    -9.1880    -3.5342  H       1  <O>11       0.0278
  24 H4       -0.9885   -10.1528    -8.0206  H       1  <O>11       0.1737
  25 H5        1.3082   -11.1481    -2.7415  H       1  <O>11       0.0620
  26 H6       -1.0275   -11.7615    -3.0324  H       1  <O>11       0.0618
  27 H7       -2.2132   -11.1207    -5.0562  H       1  <O>11       0.0636
  28 H8       -2.4573    -5.9873    -8.0661  H       1  <O>11       0.0638
  29 H9       -1.6728    -3.8753    -7.2036  H       1  <O>11       0.0619
  30 H10      -0.6577    -3.6668    -4.9915  H       1  <O>11       0.0640
  31 H11       1.2744    -9.2420    -6.4983  H       1  <O>11       0.0639
@<TRIPOS>BOND
     1     1     2    1
     2     2     3   ar
     3     3     4   ar
     4     4     5   ar
     5     5     6   ar
     6     6     7    1
     7     7     8    1
     8     8     9    2
     9     8    10    2
    10     8    11    1
    11    11    12   ar
    12    12    13   ar
    13    13    14   ar
    14    14    15   ar
    15    15    16   ar
    16    16    17   ar
    17    17    18   ar
    18    18    19   ar
    19    11    19   ar
    20    15    19   ar
    21     6    20   ar
    22     2    20   ar
    23     1    21    1
    24     1    22    1
    25     1    23    1
    26     7    24    1
    27     3    25    1
    28     4    26    1
    29     5    27    1
    30    12    28    1
    31    13    29    1
    32    14    30    1
    33    20    31    1
@<TRIPOS>MOLECULE
mol13_2_16
 31 33 0 0 0
SMALL
USER_CHARGES
****
VDW energy = -54.14
@<TRIPOS>ATOM
   1 C1        2.8832    -9.8059    -4.4252  C.3     1  <O>11      -0.0397
   2 C2        1.4617   -10.1611    -4.6036  C.ar    1  <O>11      -0.0487
   3 C3        0.8050   -10.8783    -3.6012  C.ar    1  <O>11      -0.0587
   4 C4       -0.5391   -11.2290    -3.7692  C.ar    1  <O>11      -0.0597
   5 C5       -1.2224   -10.8607    -4.9311  C.ar    1  <O>11      -0.0393
   6 C6       -0.5527   -10.1366    -5.9237  C.ar    1  <O>11       0.0483
   7 N1       -1.2620    -9.7580    -7.1200  N.pl3   1  <O>11      -0.2162
   8 S1       -1.7883   -10.9188    -8.1706  S.O2    1  <O>11       0.0745
   9 O1       -2.8394   -11.9393    -7.3876  O.2     1  <O>11      -0.1499
  10 O2       -0.4888   -11.7869    -8.7334  O.2     1  <O>11      -0.1499
  11 C7       -2.6173   -10.1489    -9.5316  C.ar    1  <O>11       0.1365
  12 C8       -2.7467    -8.7442    -9.6004  C.ar    1  <O>11      -0.0328
  13 C9       -3.4073    -8.1109   -10.6834  C.ar    1  <O>11      -0.0577
  14 C10      -3.9759    -8.8182   -11.7566  C.ar    1  <O>11      -0.0334
  15 C11      -3.8585   -10.2273   -11.7059  C.ar    1  <O>11       0.1018
  16 N2       -4.3240   -11.0923   -12.6200  N.ar    1  <O>11      -0.1907
  17 S2       -3.9160   -12.6107   -12.0766  S.2     1  <O>11       0.1165
  18 N3       -3.1285   -12.2391   -10.6609  N.ar    1  <O>11      -0.1888
  19 C12      -3.1538   -10.9009   -10.5543  C.ar    1  <O>11       0.1264
  20 C13       0.7874    -9.7806    -5.7650  C.ar    1  <O>11      -0.0364
  21 H1        3.2314    -9.2521    -5.2971  H       1  <O>11       0.0278
  22 H2        3.4736   -10.7152    -4.3128  H       1  <O>11       0.0278
  23 H3        2.9942    -9.1880    -3.5342  H       1  <O>11       0.0278
  24 H4       -1.4386    -8.7722    -7.3168  H       1  <O>11       0.1737
  25 H5        1.3082   -11.1481    -2.7415  H       1  <O>11       0.0620
  26 H6       -1.0275   -11.7615    -3.0324  H       1  <O>11       0.0618
  27 H7       -2.2132   -11.1207    -5.0562  H       1  <O>11       0.0636
  28 H8       -2.3507    -8.1645    -8.8440  H       1  <O>11       0.0638
  29 H9       -3.4738    -7.0811   -10.6837  H       1  <O>11       0.0619
  30 H10      -4.4515    -8.3377   -12.5363  H       1  <O>11       0.0640
  31 H11       1.2744    -9.2420    -6.4983  H       1  <O>11       0.0639
@<TRIPOS>BOND
     1     1     2    1
     2     2     3   ar
     3     3     4   ar
     4     4     5   ar
     5     5     6   ar
     6     6     7    1
     7     7     8    1
     8     8     9    2
     9     8    10    2
    10     8    11    1
    11    11    12   ar
    12    12    13   ar
    13    13    14   ar
    14    14    15   ar
    15    15    16   ar
    16    16    17   ar
    17    17    18   ar
    18    18    19   ar
    19    11    19   ar
    20    15    19   ar
    21     6    20   ar
    22     2    20   ar
    23     1    21    1
    24     1    22    1
    25     1    23    1
    26     7    24    1
    27     3    25    1
    28     4    26    1
    29     5    27    1
    30    12    28    1
    31    13    29    1
    32    14    30    1
    33    20    31    1
@<TRIPOS>MOLECULE
mol13_2_17
 31 33 0 0 0
SMALL
USER_CHARGES
****
VDW energy = -54.13
@<TRIPOS>ATOM
   1 C1        2.8832    -9.8059    -4.4252  C.3     1  <O>11      -0.0397
   2 C2        1.4617   -10.1611    -4.6036  C.ar    1  <O>11      -0.0487
   3 C3        0.8050   -10.8783    -3.6012  C.ar    1  <O>11      -0.0587
   4 C4       -0.5391   -11.2290    -3.7692  C.ar    1  <O>11      -0.0597
   5 C5       -1.2224   -10.8607    -4.9311  C.ar    1  <O>11      -0.0393
   6 C6       -0.5527   -10.1366    -5.9237  C.ar    1  <O>11       0.0483
   7 N1       -1.2620    -9.7580    -7.1200  N.pl3   1  <O>11      -0.2162
   8 S1       -2.5157    -8.6863    -7.0327  S.O2    1  <O>11       0.0745
   9 O1       -1.9694    -7.2433    -6.4172  O.2     1  <O>11      -0.1499
  10 O2       -3.7000    -9.2985    -6.0419  O.2     1  <O>11      -0.1499
  11 C7       -3.1794    -8.4234    -8.6522  C.ar    1  <O>11       0.1365
  12 C8       -2.6362    -9.0869    -9.7744  C.ar    1  <O>11      -0.0328
  13 C9       -3.1557    -8.8882   -11.0786  C.ar    1  <O>11      -0.0577
  14 C10      -4.2342    -8.0303   -11.3540  C.ar    1  <O>11      -0.0334
  15 C11      -4.7920    -7.3544   -10.2432  C.ar    1  <O>11       0.1018
  16 N2       -5.8221    -6.4952   -10.2769  N.ar    1  <O>11      -0.1907
  17 S2       -6.0683    -5.9995    -8.7081  S.2     1  <O>11       0.1165
  18 N3       -4.8830    -6.8543    -7.9165  N.ar    1  <O>11      -0.1888
  19 C12      -4.2403    -7.5674    -8.8552  C.ar    1  <O>11       0.1264
  20 C13       0.7874    -9.7806    -5.7650  C.ar    1  <O>11      -0.0364
  21 H1        3.2314    -9.2521    -5.2971  H       1  <O>11       0.0278
  22 H2        3.4736   -10.7152    -4.3128  H       1  <O>11       0.0278
  23 H3        2.9942    -9.1880    -3.5342  H       1  <O>11       0.0278
  24 H4       -0.9885   -10.1528    -8.0206  H       1  <O>11       0.1737
  25 H5        1.3082   -11.1481    -2.7415  H       1  <O>11       0.0620
  26 H6       -1.0275   -11.7615    -3.0324  H       1  <O>11       0.0618
  27 H7       -2.2132   -11.1207    -5.0562  H       1  <O>11       0.0636
  28 H8       -1.8418    -9.7322    -9.6419  H       1  <O>11       0.0638
  29 H9       -2.7209    -9.3982   -11.8635  H       1  <O>11       0.0619
  30 H10      -4.5983    -7.9008   -12.3110  H       1  <O>11       0.0640
  31 H11       1.2744    -9.2420    -6.4983  H       1  <O>11       0.0639
@<TRIPOS>BOND
     1     1     2    1
     2     2     3   ar
     3     3     4   ar
     4     4     5   ar
     5     5     6   ar
     6     6     7    1
     7     7     8    1
     8     8     9    2
     9     8    10    2
    10     8    11    1
    11    11    12   ar
    12    12    13   ar
    13    13    14   ar
    14    14    15   ar
    15    15    16   ar
    16    16    17   ar
    17    17    18   ar
    18    18    19   ar
    19    11    19   ar
    20    15    19   ar
    21     6    20   ar
    22     2    20   ar
    23     1    21    1
    24     1    22    1
    25     1    23    1
    26     7    24    1
    27     3    25    1
    28     4    26    1
    29     5    27    1
    30    12    28    1
    31    13    29    1
    32    14    30    1
    33    20    31    1
@<TRIPOS>MOLECULE
mol13_2_18
 31 33 0 0 0
SMALL
USER_CHARGES
****
VDW energy = -54.13
@<TRIPOS>ATOM
   1 C1        2.8832    -9.8059    -4.4252  C.3     1  <O>11      -0.0397
   2 C2        1.4617   -10.1611    -4.6036  C.ar    1  <O>11      -0.0487
   3 C3        0.8050   -10.8783    -3.6012  C.ar    1  <O>11      -0.0587
   4 C4       -0.5391   -11.2290    -3.7692  C.ar    1  <O>11      -0.0597
   5 C5       -1.2224   -10.8607    -4.9311  C.ar    1  <O>11      -0.0393
   6 C6       -0.5527   -10.1366    -5.9237  C.ar    1  <O>11       0.0483
   7 N1       -1.2620    -9.7580    -7.1200  N.pl3   1  <O>11      -0.2162
   8 S1       -0.4890    -8.9030    -8.3030  S.O2    1  <O>11       0.0745
   9 O1        0.0490    -7.4594    -7.6818  O.2     1  <O>11      -0.1499
  10 O2       -1.5427    -8.6100    -9.5532  O.2     1  <O>11      -0.1499
  11 C7        0.8895    -9.8385    -8.9005  C.ar    1  <O>11       0.1365
  12 C8        2.0424    -9.1925    -9.3985  C.ar    1  <O>11      -0.0328
  13 C9        3.1556    -9.9263    -9.8807  C.ar    1  <O>11      -0.0577
  14 C10       3.2002   -11.3308    -9.9008  C.ar    1  <O>11      -0.0334
  15 C11       2.0539   -11.9975    -9.4073  C.ar    1  <O>11       0.1018
  16 N2        1.8838   -13.3264    -9.3326  N.ar    1  <O>11      -0.1907
  17 S2        0.3729   -13.5680    -8.6798  S.2     1  <O>11       0.1165
  18 N3       -0.1310   -11.9995    -8.4597  N.ar    1  <O>11      -0.1888
  19 C12       0.8701   -11.2165    -8.8925  C.ar    1  <O>11       0.1264
  20 C13       0.7874    -9.7806    -5.7650  C.ar    1  <O>11      -0.0364
  21 H1        3.2314    -9.2521    -5.2971  H       1  <O>11       0.0278
  22 H2        3.4736   -10.7152    -4.3128  H       1  <O>11       0.0278
  23 H3        2.9942    -9.1880    -3.5342  H       1  <O>11       0.0278
  24 H4       -2.2420   -10.0190    -7.2350  H       1  <O>11       0.1737
  25 H5        1.3082   -11.1481    -2.7415  H       1  <O>11       0.0620
  26 H6       -1.0275   -11.7615    -3.0324  H       1  <O>11       0.0618
  27 H7       -2.2132   -11.1207    -5.0562  H       1  <O>11       0.0636
  28 H8        2.0753    -8.1611    -9.4119  H       1  <O>11       0.0638
  29 H9        3.9725    -9.4039   -10.2340  H       1  <O>11       0.0619
  30 H10       4.0213   -11.8460   -10.2549  H       1  <O>11       0.0640
  31 H11       1.2744    -9.2420    -6.4983  H       1  <O>11       0.0639
@<TRIPOS>BOND
     1     1     2    1
     2     2     3   ar
     3     3     4   ar
     4     4     5   ar
     5     5     6   ar
     6     6     7    1
     7     7     8    1
     8     8     9    2
     9     8    10    2
    10     8    11    1
    11    11    12   ar
    12    12    13   ar
    13    13    14   ar
    14    14    15   ar
    15    15    16   ar
    16    16    17   ar
    17    17    18   ar
    18    18    19   ar
    19    11    19   ar
    20    15    19   ar
    21     6    20   ar
    22     2    20   ar
    23     1    21    1
    24     1    22    1
    25     1    23    1
    26     7    24    1
    27     3    25    1
    28     4    26    1
    29     5    27    1
    30    12    28    1
    31    13    29    1
    32    14    30    1
    33    20    31    1
@<TRIPOS>MOLECULE
mol13_2_19
 31 33 0 0 0
SMALL
USER_CHARGES
****
VDW energy = -53.24
@<TRIPOS>ATOM
   1 C1        2.8832    -9.8059    -4.4252  C.3     1  <O>11      -0.0397
   2 C2        1.4617   -10.1611    -4.6036  C.ar    1  <O>11      -0.0487
   3 C3        0.8050   -10.8783    -3.6012  C.ar    1  <O>11      -0.0587
   4 C4       -0.5391   -11.2290    -3.7692  C.ar    1  <O>11      -0.0597
   5 C5       -1.2224   -10.8607    -4.9311  C.ar    1  <O>11      -0.0393
   6 C6       -0.5527   -10.1366    -5.9237  C.ar    1  <O>11       0.0483
   7 N1       -1.2620    -9.7580    -7.1200  N.pl3   1  <O>11      -0.2162
   8 S1       -0.4890    -8.9030    -8.3030  S.O2    1  <O>11       0.0745
   9 O1       -1.5429    -8.6090    -9.5529  O.2     1  <O>11      -0.1499
  10 O2        0.8055    -9.7796    -8.8642  O.2     1  <O>11      -0.1499
  11 C7        0.0832    -7.3652    -7.6397  C.ar    1  <O>11       0.1365
  12 C8        1.4580    -7.0415    -7.6427  C.ar    1  <O>11      -0.0328
  13 C9        1.9336    -5.8141    -7.1158  C.ar    1  <O>11      -0.0577
  14 C10       1.0896    -4.8383    -6.5585  C.ar    1  <O>11      -0.0334
  15 C11      -0.2918    -5.1440    -6.5444  C.ar    1  <O>11       0.1018
  16 N2       -1.2695    -4.3601    -6.0646  N.ar    1  <O>11      -0.1907
  17 S2       -2.6913    -5.1921    -6.2964  S.2     1  <O>11       0.1165
  18 N3       -2.1312    -6.5807    -7.0181  N.ar    1  <O>11      -0.1888
  19 C12      -0.7979    -6.4492    -7.1068  C.ar    1  <O>11       0.1264
  20 C13       0.7874    -9.7806    -5.7650  C.ar    1  <O>11      -0.0364
  21 H1        3.2314    -9.2521    -5.2971  H       1  <O>11       0.0278
  22 H2        3.4736   -10.7152    -4.3128  H       1  <O>11       0.0278
  23 H3        2.9942    -9.1880    -3.5342  H       1  <O>11       0.0278
  24 H4       -2.2420   -10.0190    -7.2350  H       1  <O>11       0.1737
  25 H5        1.3082   -11.1481    -2.7415  H       1  <O>11       0.0620
  26 H6       -1.0275   -11.7615    -3.0324  H       1  <O>11       0.0618
  27 H7       -2.2132   -11.1207    -5.0562  H       1  <O>11       0.0636
  28 H8        2.1328    -7.7148    -8.0381  H       1  <O>11       0.0638
  29 H9        2.9484    -5.6284    -7.1428  H       1  <O>11       0.0619
  30 H10       1.4562    -3.9504    -6.1814  H       1  <O>11       0.0640
  31 H11       1.2744    -9.2420    -6.4983  H       1  <O>11       0.0639
@<TRIPOS>BOND
     1     1     2    1
     2     2     3   ar
     3     3     4   ar
     4     4     5   ar
     5     5     6   ar
     6     6     7    1
     7     7     8    1
     8     8     9    2
     9     8    10    2
    10     8    11    1
    11    11    12   ar
    12    12    13   ar
    13    13    14   ar
    14    14    15   ar
    15    15    16   ar
    16    16    17   ar
    17    17    18   ar
    18    18    19   ar
    19    11    19   ar
    20    15    19   ar
    21     6    20   ar
    22     2    20   ar
    23     1    21    1
    24     1    22    1
    25     1    23    1
    26     7    24    1
    27     3    25    1
    28     4    26    1
    29     5    27    1
    30    12    28    1
    31    13    29    1
    32    14    30    1
    33    20    31    1
@<TRIPOS>MOLECULE
mol13_2_20
 31 33 0 0 0
SMALL
USER_CHARGES
****
VDW energy = -52.89
@<TRIPOS>ATOM
   1 C1        2.8832    -9.8059    -4.4252  C.3     1  <O>11      -0.0397
   2 C2        1.4617   -10.1611    -4.6036  C.ar    1  <O>11      -0.0487
   3 C3        0.8050   -10.8783    -3.6012  C.ar    1  <O>11      -0.0587
   4 C4       -0.5391   -11.2290    -3.7692  C.ar    1  <O>11      -0.0597
   5 C5       -1.2224   -10.8607    -4.9311  C.ar    1  <O>11      -0.0393
   6 C6       -0.5527   -10.1366    -5.9237  C.ar    1  <O>11       0.0483
   7 N1       -1.2620    -9.7580    -7.1200  N.pl3   1  <O>11      -0.2162
   8 S1       -2.0672    -8.3172    -7.1819  S.O2    1  <O>11       0.0745
   9 O1       -3.2311    -8.2816    -5.9972  O.2     1  <O>11      -0.1499
  10 O2       -2.7858    -8.1476    -8.6698  O.2     1  <O>11      -0.1499
  11 C7       -0.9230    -6.9917    -6.9249  C.ar    1  <O>11       0.1365
  12 C8        0.4269    -7.1125    -7.3221  C.ar    1  <O>11      -0.0328
  13 C9        1.3568    -6.0606    -7.1241  C.ar    1  <O>11      -0.0577
  14 C10       1.0153    -4.8348    -6.5275  C.ar    1  <O>11      -0.0334
  15 C11      -0.3326    -4.6941    -6.1208  C.ar    1  <O>11       0.1018
  16 N2       -0.8725    -3.6141    -5.5357  N.ar    1  <O>11      -0.1907
  17 S2       -2.4749    -3.9767    -5.2740  S.2     1  <O>11       0.1165
  18 N3       -2.5560    -5.5167    -5.8937  N.ar    1  <O>11      -0.1888
  19 C12      -1.3223    -5.8128    -6.3333  C.ar    1  <O>11       0.1264
  20 C13       0.7874    -9.7806    -5.7650  C.ar    1  <O>11      -0.0364
  21 H1        3.2314    -9.2521    -5.2971  H       1  <O>11       0.0278
  22 H2        3.4736   -10.7152    -4.3128  H       1  <O>11       0.0278
  23 H3        2.9942    -9.1880    -3.5342  H       1  <O>11       0.0278
  24 H4       -1.2658   -10.3811    -7.9284  H       1  <O>11       0.1737
  25 H5        1.3082   -11.1481    -2.7415  H       1  <O>11       0.0620
  26 H6       -1.0275   -11.7615    -3.0324  H       1  <O>11       0.0618
  27 H7       -2.2132   -11.1207    -5.0562  H       1  <O>11       0.0636
  28 H8        0.7442    -7.9878    -7.7673  H       1  <O>11       0.0638
  29 H9        2.3313    -6.2020    -7.4330  H       1  <O>11       0.0619
  30 H10       1.7074    -4.0811    -6.3939  H       1  <O>11       0.0640
  31 H11       1.2744    -9.2420    -6.4983  H       1  <O>11       0.0639
@<TRIPOS>BOND
     1     1     2    1
     2     2     3   ar
     3     3     4   ar
     4     4     5   ar
     5     5     6   ar
     6     6     7    1
     7     7     8    1
     8     8     9    2
     9     8    10    2
    10     8    11    1
    11    11    12   ar
    12    12    13   ar
    13    13    14   ar
    14    14    15   ar
    15    15    16   ar
    16    16    17   ar
    17    17    18   ar
    18    18    19   ar
    19    11    19   ar
    20    15    19   ar
    21     6    20   ar
    22     2    20   ar
    23     1    21    1
    24     1    22    1
    25     1    23    1
    26     7    24    1
    27     3    25    1
    28     4    26    1
    29     5    27    1
    30    12    28    1
    31    13    29    1
    32    14    30    1
    33    20    31    1
@<TRIPOS>MOLECULE
mol13_2_21
 31 33 0 0 0
SMALL
USER_CHARGES
****
VDW energy = -52.46
@<TRIPOS>ATOM
   1 C1        2.8832    -9.8059    -4.4252  C.3     1  <O>11      -0.0397
   2 C2        1.4617   -10.1611    -4.6036  C.ar    1  <O>11      -0.0487
   3 C3        0.8050   -10.8783    -3.6012  C.ar    1  <O>11      -0.0587
   4 C4       -0.5391   -11.2290    -3.7692  C.ar    1  <O>11      -0.0597
   5 C5       -1.2224   -10.8607    -4.9311  C.ar    1  <O>11      -0.0393
   6 C6       -0.5527   -10.1366    -5.9237  C.ar    1  <O>11       0.0483
   7 N1       -1.2620    -9.7580    -7.1200  N.pl3   1  <O>11      -0.2162
   8 S1       -0.4890    -8.9030    -8.3030  S.O2    1  <O>11       0.0745
   9 O1        0.8050    -9.7800    -8.8650  O.2     1  <O>11      -0.1499
  10 O2        0.0480    -7.4590    -7.6820  O.2     1  <O>11      -0.1499
  11 C7       -1.6130    -8.5910    -9.6340  C.ar    1  <O>11       0.1365
  12 C8       -1.9290    -7.2700   -10.0210  C.ar    1  <O>11      -0.0328
  13 C9       -2.8270    -7.0020   -11.0850  C.ar    1  <O>11      -0.0577
  14 C10      -3.4630    -8.0120   -11.8270  C.ar    1  <O>11      -0.0334
  15 C11      -3.1610    -9.3430   -11.4540  C.ar    1  <O>11       0.1018
  16 N2       -3.6510   -10.4540   -12.0250  N.ar    1  <O>11      -0.1907
  17 S2       -2.9730   -11.7360   -11.2100  S.2     1  <O>11       0.1165
  18 N3       -2.0260   -10.9400   -10.1000  N.ar    1  <O>11      -0.1888
  19 C12      -2.2040    -9.6280   -10.3230  C.ar    1  <O>11       0.1264
  20 C13       0.7874    -9.7806    -5.7650  C.ar    1  <O>11      -0.0364
  21 H1        3.2314    -9.2521    -5.2971  H       1  <O>11       0.0278
  22 H2        3.4736   -10.7152    -4.3128  H       1  <O>11       0.0278
  23 H3        2.9942    -9.1880    -3.5342  H       1  <O>11       0.0278
  24 H4       -2.2420   -10.0190    -7.2350  H       1  <O>11       0.1737
  25 H5        1.3082   -11.1481    -2.7415  H       1  <O>11       0.0620
  26 H6       -1.0275   -11.7615    -3.0324  H       1  <O>11       0.0618
  27 H7       -2.2132   -11.1207    -5.0562  H       1  <O>11       0.0636
  28 H8       -1.4957    -6.4805    -9.5170  H       1  <O>11       0.0638
  29 H9       -3.0230    -6.0179   -11.3262  H       1  <O>11       0.0619
  30 H10      -4.1126    -7.7954   -12.5991  H       1  <O>11       0.0640
  31 H11       1.2744    -9.2420    -6.4983  H       1  <O>11       0.0639
@<TRIPOS>BOND
     1     1     2    1
     2     2     3   ar
     3     3     4   ar
     4     4     5   ar
     5     5     6   ar
     6     6     7    1
     7     7     8    1
     8     8     9    2
     9     8    10    2
    10     8    11    1
    11    11    12   ar
    12    12    13   ar
    13    13    14   ar
    14    14    15   ar
    15    15    16   ar
    16    16    17   ar
    17    17    18   ar
    18    18    19   ar
    19    11    19   ar
    20    15    19   ar
    21     6    20   ar
    22     2    20   ar
    23     1    21    1
    24     1    22    1
    25     1    23    1
    26     7    24    1
    27     3    25    1
    28     4    26    1
    29     5    27    1
    30    12    28    1
    31    13    29    1
    32    14    30    1
    33    20    31    1
@<TRIPOS>MOLECULE
mol13_2_22
 31 33 0 0 0
SMALL
USER_CHARGES
****
VDW energy = -52.31
@<TRIPOS>ATOM
   1 C1        2.8832    -9.8059    -4.4252  C.3     1  <O>11      -0.0397
   2 C2        1.4617   -10.1611    -4.6036  C.ar    1  <O>11      -0.0487
   3 C3        0.8050   -10.8783    -3.6012  C.ar    1  <O>11      -0.0587
   4 C4       -0.5391   -11.2290    -3.7692  C.ar    1  <O>11      -0.0597
   5 C5       -1.2224   -10.8607    -4.9311  C.ar    1  <O>11      -0.0393
   6 C6       -0.5527   -10.1366    -5.9237  C.ar    1  <O>11       0.0483
   7 N1       -1.2620    -9.7580    -7.1200  N.pl3   1  <O>11      -0.2162
   8 S1       -0.4890    -8.9030    -8.3030  S.O2    1  <O>11       0.0745
   9 O1        0.0490    -7.4594    -7.6818  O.2     1  <O>11      -0.1499
  10 O2       -1.5427    -8.6100    -9.5532  O.2     1  <O>11      -0.1499
  11 C7        0.8895    -9.8385    -8.9005  C.ar    1  <O>11       0.1365
  12 C8        0.8653   -11.2506    -8.8916  C.ar    1  <O>11      -0.0328
  13 C9        1.9605   -12.0156    -9.3666  C.ar    1  <O>11      -0.0577
  14 C10       3.1370   -11.4397    -9.8759  C.ar    1  <O>11      -0.0334
  15 C11       3.1821   -10.0257    -9.8920  C.ar    1  <O>11       0.1018
  16 N2        4.2007    -9.2727   -10.3345  N.ar    1  <O>11      -0.1907
  17 S2        3.7341    -7.6890   -10.1302  S.2     1  <O>11       0.1165
  18 N3        2.2194    -7.8875    -9.4754  N.ar    1  <O>11      -0.1888
  19 C12       2.0158    -9.2118    -9.3882  C.ar    1  <O>11       0.1264
  20 C13       0.7874    -9.7806    -5.7650  C.ar    1  <O>11      -0.0364
  21 H1        3.2314    -9.2521    -5.2971  H       1  <O>11       0.0278
  22 H2        3.4736   -10.7152    -4.3128  H       1  <O>11       0.0278
  23 H3        2.9942    -9.1880    -3.5342  H       1  <O>11       0.0278
  24 H4       -2.2420   -10.0190    -7.2350  H       1  <O>11       0.1737
  25 H5        1.3082   -11.1481    -2.7415  H       1  <O>11       0.0620
  26 H6       -1.0275   -11.7615    -3.0324  H       1  <O>11       0.0618
  27 H7       -2.2132   -11.1207    -5.0562  H       1  <O>11       0.0636
  28 H8        0.0300   -11.7375    -8.5306  H       1  <O>11       0.0638
  29 H9        1.8903   -13.0448    -9.3371  H       1  <O>11       0.0619
  30 H10       3.9226   -12.0149   -10.2181  H       1  <O>11       0.0640
  31 H11       1.2744    -9.2420    -6.4983  H       1  <O>11       0.0639
@<TRIPOS>BOND
     1     1     2    1
     2     2     3   ar
     3     3     4   ar
     4     4     5   ar
     5     5     6   ar
     6     6     7    1
     7     7     8    1
     8     8     9    2
     9     8    10    2
    10     8    11    1
    11    11    12   ar
    12    12    13   ar
    13    13    14   ar
    14    14    15   ar
    15    15    16   ar
    16    16    17   ar
    17    17    18   ar
    18    18    19   ar
    19    11    19   ar
    20    15    19   ar
    21     6    20   ar
    22     2    20   ar
    23     1    21    1
    24     1    22    1
    25     1    23    1
    26     7    24    1
    27     3    25    1
    28     4    26    1
    29     5    27    1
    30    12    28    1
    31    13    29    1
    32    14    30    1
    33    20    31    1
@<TRIPOS>MOLECULE
mol13_2_23
 31 33 0 0 0
SMALL
USER_CHARGES
****
VDW energy = -50.92
@<TRIPOS>ATOM
   1 C1        2.8832    -9.8059    -4.4252  C.3     1  <O>11      -0.0397
   2 C2        1.4617   -10.1611    -4.6036  C.ar    1  <O>11      -0.0487
   3 C3        0.8050   -10.8783    -3.6012  C.ar    1  <O>11      -0.0587
   4 C4       -0.5391   -11.2290    -3.7692  C.ar    1  <O>11      -0.0597
   5 C5       -1.2224   -10.8607    -4.9311  C.ar    1  <O>11      -0.0393
   6 C6       -0.5527   -10.1366    -5.9237  C.ar    1  <O>11       0.0483
   7 N1       -1.2620    -9.7580    -7.1200  N.pl3   1  <O>11      -0.2162
   8 S1       -0.4890    -8.9030    -8.3030  S.O2    1  <O>11       0.0745
   9 O1        0.8050    -9.7800    -8.8650  O.2     1  <O>11      -0.1499
  10 O2        0.0480    -7.4590    -7.6820  O.2     1  <O>11      -0.1499
  11 C7       -1.6130    -8.5910    -9.6340  C.ar    1  <O>11       0.1365
  12 C8       -1.1480    -8.4716   -10.9622  C.ar    1  <O>11      -0.0328
  13 C9       -2.0344    -8.2221   -12.0403  C.ar    1  <O>11      -0.0577
  14 C10      -3.4226    -8.0766   -11.8763  C.ar    1  <O>11      -0.0334
  15 C11      -3.9088    -8.1912   -10.5525  C.ar    1  <O>11       0.1018
  16 N2       -5.1909    -8.0891   -10.1702  N.ar    1  <O>11      -0.1907
  17 S2       -5.2051    -8.3049    -8.5208  S.2     1  <O>11       0.1165
  18 N3       -3.5878    -8.5408    -8.2187  N.ar    1  <O>11      -0.1888
  19 C12      -2.9657    -8.4586    -9.4057  C.ar    1  <O>11       0.1264
  20 C13       0.7874    -9.7806    -5.7650  C.ar    1  <O>11      -0.0364
  21 H1        3.2314    -9.2521    -5.2971  H       1  <O>11       0.0278
  22 H2        3.4736   -10.7152    -4.3128  H       1  <O>11       0.0278
  23 H3        2.9942    -9.1880    -3.5342  H       1  <O>11       0.0278
  24 H4       -2.2420   -10.0190    -7.2350  H       1  <O>11       0.1737
  25 H5        1.3082   -11.1481    -2.7415  H       1  <O>11       0.0620
  26 H6       -1.0275   -11.7615    -3.0324  H       1  <O>11       0.0618
  27 H7       -2.2132   -11.1207    -5.0562  H       1  <O>11       0.0636
  28 H8       -0.1383    -8.5684   -11.1527  H       1  <O>11       0.0638
  29 H9       -1.6413    -8.1436   -12.9913  H       1  <O>11       0.0619
  30 H10      -4.0508    -7.8966   -12.6750  H       1  <O>11       0.0640
  31 H11       1.2744    -9.2420    -6.4983  H       1  <O>11       0.0639
@<TRIPOS>BOND
     1     1     2    1
     2     2     3   ar
     3     3     4   ar
     4     4     5   ar
     5     5     6   ar
     6     6     7    1
     7     7     8    1
     8     8     9    2
     9     8    10    2
    10     8    11    1
    11    11    12   ar
    12    12    13   ar
    13    13    14   ar
    14    14    15   ar
    15    15    16   ar
    16    16    17   ar
    17    17    18   ar
    18    18    19   ar
    19    11    19   ar
    20    15    19   ar
    21     6    20   ar
    22     2    20   ar
    23     1    21    1
    24     1    22    1
    25     1    23    1
    26     7    24    1
    27     3    25    1
    28     4    26    1
    29     5    27    1
    30    12    28    1
    31    13    29    1
    32    14    30    1
    33    20    31    1
@<TRIPOS>MOLECULE
mol13_2_24
 31 33 0 0 0
SMALL
USER_CHARGES
****
VDW energy = -49.59
@<TRIPOS>ATOM
   1 C1        2.8832    -9.8059    -4.4252  C.3     1  <O>11      -0.0397
   2 C2        1.4617   -10.1611    -4.6036  C.ar    1  <O>11      -0.0487
   3 C3        0.8050   -10.8783    -3.6012  C.ar    1  <O>11      -0.0587
   4 C4       -0.5391   -11.2290    -3.7692  C.ar    1  <O>11      -0.0597
   5 C5       -1.2224   -10.8607    -4.9311  C.ar    1  <O>11      -0.0393
   6 C6       -0.5527   -10.1366    -5.9237  C.ar    1  <O>11       0.0483
   7 N1       -1.2620    -9.7580    -7.1200  N.pl3   1  <O>11      -0.2162
   8 S1       -0.4890    -8.9030    -8.3030  S.O2    1  <O>11       0.0745
   9 O1        0.8050    -9.7800    -8.8650  O.2     1  <O>11      -0.1499
  10 O2        0.0480    -7.4590    -7.6820  O.2     1  <O>11      -0.1499
  11 C7       -1.6130    -8.5910    -9.6340  C.ar    1  <O>11       0.1365
  12 C8       -2.9984    -8.4549    -9.3957  C.ar    1  <O>11      -0.0328
  13 C9       -3.9128    -8.2045   -10.4500  C.ar    1  <O>11      -0.0577
  14 C10      -3.5203    -8.0737   -11.7931  C.ar    1  <O>11      -0.0334
  15 C11      -2.1361    -8.2083   -12.0535  C.ar    1  <O>11       0.1018
  16 N2       -1.5459    -8.1184   -13.2552  N.ar    1  <O>11      -0.1907
  17 S2        0.0808    -8.3501   -12.9952  S.2     1  <O>11       0.1165
  18 N3        0.1095    -8.5711   -11.3481  N.ar    1  <O>11      -0.1888
  19 C12      -1.1630    -8.4728   -10.9313  C.ar    1  <O>11       0.1264
  20 C13       0.7874    -9.7806    -5.7650  C.ar    1  <O>11      -0.0364
  21 H1        3.2314    -9.2521    -5.2971  H       1  <O>11       0.0278
  22 H2        3.4736   -10.7152    -4.3128  H       1  <O>11       0.0278
  23 H3        2.9942    -9.1880    -3.5342  H       1  <O>11       0.0278
  24 H4       -2.2420   -10.0190    -7.2350  H       1  <O>11       0.1737
  25 H5        1.3082   -11.1481    -2.7415  H       1  <O>11       0.0620
  26 H6       -1.0275   -11.7615    -3.0324  H       1  <O>11       0.0618
  27 H7       -2.2132   -11.1207    -5.0562  H       1  <O>11       0.0636
  28 H8       -3.3539    -8.5397    -8.4305  H       1  <O>11       0.0638
  29 H9       -4.9148    -8.1141   -10.2200  H       1  <O>11       0.0619
  30 H10      -4.2021    -7.8900   -12.5457  H       1  <O>11       0.0640
  31 H11       1.2744    -9.2420    -6.4983  H       1  <O>11       0.0639
@<TRIPOS>BOND
     1     1     2    1
     2     2     3   ar
     3     3     4   ar
     4     4     5   ar
     5     5     6   ar
     6     6     7    1
     7     7     8    1
     8     8     9    2
     9     8    10    2
    10     8    11    1
    11    11    12   ar
    12    12    13   ar
    13    13    14   ar
    14    14    15   ar
    15    15    16   ar
    16    16    17   ar
    17    17    18   ar
    18    18    19   ar
    19    11    19   ar
    20    15    19   ar
    21     6    20   ar
    22     2    20   ar
    23     1    21    1
    24     1    22    1
    25     1    23    1
    26     7    24    1
    27     3    25    1
    28     4    26    1
    29     5    27    1
    30    12    28    1
    31    13    29    1
    32    14    30    1
    33    20    31    1
@<TRIPOS>MOLECULE
mol13_2_25
 31 33 0 0 0
SMALL
USER_CHARGES
****
VDW energy = -48.81
@<TRIPOS>ATOM
   1 C1        2.8832    -9.8059    -4.4252  C.3     1  <O>11      -0.0397
   2 C2        1.4617   -10.1611    -4.6036  C.ar    1  <O>11      -0.0487
   3 C3        0.8050   -10.8783    -3.6012  C.ar    1  <O>11      -0.0587
   4 C4       -0.5391   -11.2290    -3.7692  C.ar    1  <O>11      -0.0597
   5 C5       -1.2224   -10.8607    -4.9311  C.ar    1  <O>11      -0.0393
   6 C6       -0.5527   -10.1366    -5.9237  C.ar    1  <O>11       0.0483
   7 N1       -1.2620    -9.7580    -7.1200  N.pl3   1  <O>11      -0.2162
   8 S1       -0.4890    -8.9030    -8.3030  S.O2    1  <O>11       0.0745
   9 O1        0.8050    -9.7800    -8.8650  O.2     1  <O>11      -0.1499
  10 O2        0.0480    -7.4590    -7.6820  O.2     1  <O>11      -0.1499
  11 C7       -1.6130    -8.5910    -9.6340  C.ar    1  <O>11       0.1365
  12 C8       -2.9466    -9.0526    -9.5795  C.ar    1  <O>11      -0.0328
  13 C9       -3.8603    -8.8114   -10.6365  C.ar    1  <O>11      -0.0577
  14 C10      -3.5179    -8.1054   -11.8025  C.ar    1  <O>11      -0.0334
  15 C11      -2.1855    -7.6356   -11.8776  C.ar    1  <O>11       0.1018
  16 N2       -1.6486    -6.9413   -12.8926  N.ar    1  <O>11      -0.1907
  17 S2       -0.0676    -6.6429   -12.4697  S.2     1  <O>11       0.1165
  18 N3        0.0054    -7.3771   -10.9803  N.ar    1  <O>11      -0.1888
  19 C12      -1.2139    -7.8907   -10.7519  C.ar    1  <O>11       0.1264
  20 C13       0.7874    -9.7806    -5.7650  C.ar    1  <O>11      -0.0364
  21 H1        3.2314    -9.2521    -5.2971  H       1  <O>11       0.0278
  22 H2        3.4736   -10.7152    -4.3128  H       1  <O>11       0.0278
  23 H3        2.9942    -9.1880    -3.5342  H       1  <O>11       0.0278
  24 H4       -2.2420   -10.0190    -7.2350  H       1  <O>11       0.1737
  25 H5        1.3082   -11.1481    -2.7415  H       1  <O>11       0.0620
  26 H6       -1.0275   -11.7615    -3.0324  H       1  <O>11       0.0618
  27 H7       -2.2132   -11.1207    -5.0562  H       1  <O>11       0.0636
  28 H8       -3.2638    -9.5784    -8.7500  H       1  <O>11       0.0638
  29 H9       -4.8232    -9.1715   -10.5452  H       1  <O>11       0.0619
  30 H10      -4.1989    -7.9394   -12.5600  H       1  <O>11       0.0640
  31 H11       1.2744    -9.2420    -6.4983  H       1  <O>11       0.0639
@<TRIPOS>BOND
     1     1     2    1
     2     2     3   ar
     3     3     4   ar
     4     4     5   ar
     5     5     6   ar
     6     6     7    1
     7     7     8    1
     8     8     9    2
     9     8    10    2
    10     8    11    1
    11    11    12   ar
    12    12    13   ar
    13    13    14   ar
    14    14    15   ar
    15    15    16   ar
    16    16    17   ar
    17    17    18   ar
    18    18    19   ar
    19    11    19   ar
    20    15    19   ar
    21     6    20   ar
    22     2    20   ar
    23     1    21    1
    24     1    22    1
    25     1    23    1
    26     7    24    1
    27     3    25    1
    28     4    26    1
    29     5    27    1
    30    12    28    1
    31    13    29    1
    32    14    30    1
    33    20    31    1
@<TRIPOS>MOLECULE
mol13_2_26
 31 33 0 0 0
SMALL
USER_CHARGES
****
VDW energy = -47.94
@<TRIPOS>ATOM
   1 C1        2.8832    -9.8059    -4.4252  C.3     1  <O>11      -0.0397
   2 C2        1.4617   -10.1611    -4.6036  C.ar    1  <O>11      -0.0487
   3 C3        0.8050   -10.8783    -3.6012  C.ar    1  <O>11      -0.0587
   4 C4       -0.5391   -11.2290    -3.7692  C.ar    1  <O>11      -0.0597
   5 C5       -1.2224   -10.8607    -4.9311  C.ar    1  <O>11      -0.0393
   6 C6       -0.5527   -10.1366    -5.9237  C.ar    1  <O>11       0.0483
   7 N1       -1.2620    -9.7580    -7.1200  N.pl3   1  <O>11      -0.2162
   8 S1       -1.7883   -10.9188    -8.1706  S.O2    1  <O>11       0.0745
   9 O1       -2.5663   -10.1976    -9.4489  O.2     1  <O>11      -0.1499
  10 O2       -2.8386   -11.9398    -7.3873  O.2     1  <O>11      -0.1499
  11 C7       -0.4028   -11.8434    -8.7687  C.ar    1  <O>11       0.1365
  12 C8        0.9088   -11.5424    -8.3399  C.ar    1  <O>11      -0.0328
  13 C9        2.0299   -12.2730    -8.8087  C.ar    1  <O>11      -0.0577
  14 C10       1.9272   -13.3368    -9.7213  C.ar    1  <O>11      -0.0334
  15 C11       0.6214   -13.6534   -10.1647  C.ar    1  <O>11       0.1018
  16 N2        0.2947   -14.6269   -11.0285  N.ar    1  <O>11      -0.1907
  17 S2       -1.3591   -14.5659   -11.1973  S.2     1  <O>11       0.1165
  18 N3       -1.7346   -13.3057   -10.1807  N.ar    1  <O>11      -0.1888
  19 C12      -0.5716   -12.8772    -9.6644  C.ar    1  <O>11       0.1264
  20 C13       0.7874    -9.7806    -5.7650  C.ar    1  <O>11      -0.0364
  21 H1        3.2314    -9.2521    -5.2971  H       1  <O>11       0.0278
  22 H2        3.4736   -10.7152    -4.3128  H       1  <O>11       0.0278
  23 H3        2.9942    -9.1880    -3.5342  H       1  <O>11       0.0278
  24 H4       -1.4386    -8.7722    -7.3168  H       1  <O>11       0.1737
  25 H5        1.3082   -11.1481    -2.7415  H       1  <O>11       0.0620
  26 H6       -1.0275   -11.7615    -3.0324  H       1  <O>11       0.0618
  27 H7       -2.2132   -11.1207    -5.0562  H       1  <O>11       0.0636
  28 H8        1.0547   -10.7720    -7.6690  H       1  <O>11       0.0638
  29 H9        2.9663   -12.0109    -8.4631  H       1  <O>11       0.0619
  30 H10       2.7562   -13.8569   -10.0491  H       1  <O>11       0.0640
  31 H11       1.2744    -9.2420    -6.4983  H       1  <O>11       0.0639
@<TRIPOS>BOND
     1     1     2    1
     2     2     3   ar
     3     3     4   ar
     4     4     5   ar
     5     5     6   ar
     6     6     7    1
     7     7     8    1
     8     8     9    2
     9     8    10    2
    10     8    11    1
    11    11    12   ar
    12    12    13   ar
    13    13    14   ar
    14    14    15   ar
    15    15    16   ar
    16    16    17   ar
    17    17    18   ar
    18    18    19   ar
    19    11    19   ar
    20    15    19   ar
    21     6    20   ar
    22     2    20   ar
    23     1    21    1
    24     1    22    1
    25     1    23    1
    26     7    24    1
    27     3    25    1
    28     4    26    1
    29     5    27    1
    30    12    28    1
    31    13    29    1
    32    14    30    1
    33    20    31    1
@<TRIPOS>MOLECULE
mol13_2_27
 31 33 0 0 0
SMALL
USER_CHARGES
****
VDW energy = -46.70
@<TRIPOS>ATOM
   1 C1        2.8832    -9.8059    -4.4252  C.3     1  <O>11      -0.0397
   2 C2        1.4617   -10.1611    -4.6036  C.ar    1  <O>11      -0.0487
   3 C3        0.8050   -10.8783    -3.6012  C.ar    1  <O>11      -0.0587
   4 C4       -0.5391   -11.2290    -3.7692  C.ar    1  <O>11      -0.0597
   5 C5       -1.2224   -10.8607    -4.9311  C.ar    1  <O>11      -0.0393
   6 C6       -0.5527   -10.1366    -5.9237  C.ar    1  <O>11       0.0483
   7 N1       -1.2620    -9.7580    -7.1200  N.pl3   1  <O>11      -0.2162
   8 S1       -0.4890    -8.9030    -8.3030  S.O2    1  <O>11       0.0745
   9 O1        0.0490    -7.4594    -7.6818  O.2     1  <O>11      -0.1499
  10 O2       -1.5427    -8.6100    -9.5532  O.2     1  <O>11      -0.1499
  11 C7        0.8895    -9.8385    -8.9005  C.ar    1  <O>11       0.1365
  12 C8        1.1848   -11.1134    -8.3693  C.ar    1  <O>11      -0.0328
  13 C9        2.2848   -11.8764    -8.8363  C.ar    1  <O>11      -0.0577
  14 C10       3.1537   -11.4329    -9.8480  C.ar    1  <O>11      -0.0334
  15 C11       2.8760   -10.1569   -10.3926  C.ar    1  <O>11       0.1018
  16 N2        3.5710    -9.5438   -11.3629  N.ar    1  <O>11      -0.1907
  17 S2        2.8211    -8.0816   -11.6220  S.2     1  <O>11       0.1165
  18 N3        1.5807    -8.1624   -10.5186  N.ar    1  <O>11      -0.1888
  19 C12       1.7044    -9.3459    -9.8968  C.ar    1  <O>11       0.1264
  20 C13       0.7874    -9.7806    -5.7650  C.ar    1  <O>11      -0.0364
  21 H1        3.2314    -9.2521    -5.2971  H       1  <O>11       0.0278
  22 H2        3.4736   -10.7152    -4.3128  H       1  <O>11       0.0278
  23 H3        2.9942    -9.1880    -3.5342  H       1  <O>11       0.0278
  24 H4       -2.2420   -10.0190    -7.2350  H       1  <O>11       0.1737
  25 H5        1.3082   -11.1481    -2.7415  H       1  <O>11       0.0620
  26 H6       -1.0275   -11.7615    -3.0324  H       1  <O>11       0.0618
  27 H7       -2.2132   -11.1207    -5.0562  H       1  <O>11       0.0636
  28 H8        0.5854   -11.4990    -7.6229  H       1  <O>11       0.0638
  29 H9        2.4556   -12.8020    -8.4130  H       1  <O>11       0.0619
  30 H10       3.9483   -12.0048   -10.1747  H       1  <O>11       0.0640
  31 H11       1.2744    -9.2420    -6.4983  H       1  <O>11       0.0639
@<TRIPOS>BOND
     1     1     2    1
     2     2     3   ar
     3     3     4   ar
     4     4     5   ar
     5     5     6   ar
     6     6     7    1
     7     7     8    1
     8     8     9    2
     9     8    10    2
    10     8    11    1
    11    11    12   ar
    12    12    13   ar
    13    13    14   ar
    14    14    15   ar
    15    15    16   ar
    16    16    17   ar
    17    17    18   ar
    18    18    19   ar
    19    11    19   ar
    20    15    19   ar
    21     6    20   ar
    22     2    20   ar
    23     1    21    1
    24     1    22    1
    25     1    23    1
    26     7    24    1
    27     3    25    1
    28     4    26    1
    29     5    27    1
    30    12    28    1
    31    13    29    1
    32    14    30    1
    33    20    31    1
@<TRIPOS>MOLECULE
mol13_2_28
 31 33 0 0 0
SMALL
USER_CHARGES
****
VDW energy = -46.62
@<TRIPOS>ATOM
   1 C1        2.8832    -9.8059    -4.4252  C.3     1  <O>11      -0.0397
   2 C2        1.4617   -10.1611    -4.6036  C.ar    1  <O>11      -0.0487
   3 C3        0.8050   -10.8783    -3.6012  C.ar    1  <O>11      -0.0587
   4 C4       -0.5391   -11.2290    -3.7692  C.ar    1  <O>11      -0.0597
   5 C5       -1.2224   -10.8607    -4.9311  C.ar    1  <O>11      -0.0393
   6 C6       -0.5527   -10.1366    -5.9237  C.ar    1  <O>11       0.0483
   7 N1       -1.2620    -9.7580    -7.1200  N.pl3   1  <O>11      -0.2162
   8 S1       -0.4890    -8.9030    -8.3030  S.O2    1  <O>11       0.0745
   9 O1       -1.5429    -8.6090    -9.5529  O.2     1  <O>11      -0.1499
  10 O2        0.8055    -9.7796    -8.8642  O.2     1  <O>11      -0.1499
  11 C7        0.0832    -7.3652    -7.6397  C.ar    1  <O>11       0.1365
  12 C8       -0.1451    -7.0298    -6.2869  C.ar    1  <O>11      -0.0328
  13 C9        0.3065    -5.8025    -5.7391  C.ar    1  <O>11      -0.0577
  14 C10       1.0058    -4.8386    -6.4855  C.ar    1  <O>11      -0.0334
  15 C11       1.2436    -5.1547    -7.8440  C.ar    1  <O>11       0.1018
  16 N2        1.8898    -4.3848    -8.7329  N.ar    1  <O>11      -0.1907
  17 S2        1.8892    -5.2268   -10.1676  S.2     1  <O>11       0.1165
  18 N3        1.0732    -6.6055    -9.7250  N.ar    1  <O>11      -0.1888
  19 C12       0.7646    -6.4616    -8.4262  C.ar    1  <O>11       0.1264
  20 C13       0.7874    -9.7806    -5.7650  C.ar    1  <O>11      -0.0364
  21 H1        3.2314    -9.2521    -5.2971  H       1  <O>11       0.0278
  22 H2        3.4736   -10.7152    -4.3128  H       1  <O>11       0.0278
  23 H3        2.9942    -9.1880    -3.5342  H       1  <O>11       0.0278
  24 H4       -2.2420   -10.0190    -7.2350  H       1  <O>11       0.1737
  25 H5        1.3082   -11.1481    -2.7415  H       1  <O>11       0.0620
  26 H6       -1.0275   -11.7615    -3.0324  H       1  <O>11       0.0618
  27 H7       -2.2132   -11.1207    -5.0562  H       1  <O>11       0.0636
  28 H8       -0.6532    -7.6942    -5.6824  H       1  <O>11       0.0638
  29 H9        0.1124    -5.6076    -4.7445  H       1  <O>11       0.0619
  30 H10       1.3272    -3.9517    -6.0670  H       1  <O>11       0.0640
  31 H11       1.2744    -9.2420    -6.4983  H       1  <O>11       0.0639
@<TRIPOS>BOND
     1     1     2    1
     2     2     3   ar
     3     3     4   ar
     4     4     5   ar
     5     5     6   ar
     6     6     7    1
     7     7     8    1
     8     8     9    2
     9     8    10    2
    10     8    11    1
    11    11    12   ar
    12    12    13   ar
    13    13    14   ar
    14    14    15   ar
    15    15    16   ar
    16    16    17   ar
    17    17    18   ar
    18    18    19   ar
    19    11    19   ar
    20    15    19   ar
    21     6    20   ar
    22     2    20   ar
    23     1    21    1
    24     1    22    1
    25     1    23    1
    26     7    24    1
    27     3    25    1
    28     4    26    1
    29     5    27    1
    30    12    28    1
    31    13    29    1
    32    14    30    1
    33    20    31    1
@<TRIPOS>MOLECULE
mol13_2_29
 31 33 0 0 0
SMALL
USER_CHARGES
****
VDW energy = -44.90
@<TRIPOS>ATOM
   1 C1        2.8832    -9.8059    -4.4252  C.3     1  <O>11      -0.0397
   2 C2        1.4617   -10.1611    -4.6036  C.ar    1  <O>11      -0.0487
   3 C3        0.8050   -10.8783    -3.6012  C.ar    1  <O>11      -0.0587
   4 C4       -0.5391   -11.2290    -3.7692  C.ar    1  <O>11      -0.0597
   5 C5       -1.2224   -10.8607    -4.9311  C.ar    1  <O>11      -0.0393
   6 C6       -0.5527   -10.1366    -5.9237  C.ar    1  <O>11       0.0483
   7 N1       -1.2620    -9.7580    -7.1200  N.pl3   1  <O>11      -0.2162
   8 S1       -2.0672    -8.3172    -7.1819  S.O2    1  <O>11       0.0745
   9 O1       -3.2311    -8.2816    -5.9972  O.2     1  <O>11      -0.1499
  10 O2       -2.7858    -8.1476    -8.6698  O.2     1  <O>11      -0.1499
  11 C7       -0.9230    -6.9917    -6.9249  C.ar    1  <O>11       0.1365
  12 C8       -0.7345    -5.9962    -7.9088  C.ar    1  <O>11      -0.0328
  13 C9        0.1777    -4.9274    -7.7193  C.ar    1  <O>11      -0.0577
  14 C10       0.9533    -4.7756    -6.5572  C.ar    1  <O>11      -0.0334
  15 C11       0.7804    -5.7637    -5.5594  C.ar    1  <O>11       0.1018
  16 N2        1.4140    -5.8124    -4.3776  N.ar    1  <O>11      -0.1907
  17 S2        0.8419    -7.1651    -3.5963  S.2     1  <O>11       0.1165
  18 N3       -0.2364    -7.7467    -4.7194  N.ar    1  <O>11      -0.1888
  19 C12      -0.1916    -6.8999    -5.7604  C.ar    1  <O>11       0.1264
  20 C13       0.7874    -9.7806    -5.7650  C.ar    1  <O>11      -0.0364
  21 H1        3.2314    -9.2521    -5.2971  H       1  <O>11       0.0278
  22 H2        3.4736   -10.7152    -4.3128  H       1  <O>11       0.0278
  23 H3        2.9942    -9.1880    -3.5342  H       1  <O>11       0.0278
  24 H4       -1.2658   -10.3811    -7.9284  H       1  <O>11       0.1737
  25 H5        1.3082   -11.1481    -2.7415  H       1  <O>11       0.0620
  26 H6       -1.0275   -11.7615    -3.0324  H       1  <O>11       0.0618
  27 H7       -2.2132   -11.1207    -5.0562  H       1  <O>11       0.0636
  28 H8       -1.2738    -6.0480    -8.7872  H       1  <O>11       0.0638
  29 H9        0.2768    -4.2272    -8.4710  H       1  <O>11       0.0619
  30 H10       1.6108    -3.9890    -6.4385  H       1  <O>11       0.0640
  31 H11       1.2744    -9.2420    -6.4983  H       1  <O>11       0.0639
@<TRIPOS>BOND
     1     1     2    1
     2     2     3   ar
     3     3     4   ar
     4     4     5   ar
     5     5     6   ar
     6     6     7    1
     7     7     8    1
     8     8     9    2
     9     8    10    2
    10     8    11    1
    11    11    12   ar
    12    12    13   ar
    13    13    14   ar
    14    14    15   ar
    15    15    16   ar
    16    16    17   ar
    17    17    18   ar
    18    18    19   ar
    19    11    19   ar
    20    15    19   ar
    21     6    20   ar
    22     2    20   ar
    23     1    21    1
    24     1    22    1
    25     1    23    1
    26     7    24    1
    27     3    25    1
    28     4    26    1
    29     5    27    1
    30    12    28    1
    31    13    29    1
    32    14    30    1
    33    20    31    1
@<TRIPOS>MOLECULE
mol13_2_30
 31 33 0 0 0
SMALL
USER_CHARGES
****
VDW energy = -35.76
@<TRIPOS>ATOM
   1 C1        2.8832    -9.8059    -4.4252  C.3     1  <O>11      -0.0397
   2 C2        1.4617   -10.1611    -4.6036  C.ar    1  <O>11      -0.0487
   3 C3        0.8050   -10.8783    -3.6012  C.ar    1  <O>11      -0.0587
   4 C4       -0.5391   -11.2290    -3.7692  C.ar    1  <O>11      -0.0597
   5 C5       -1.2224   -10.8607    -4.9311  C.ar    1  <O>11      -0.0393
   6 C6       -0.5527   -10.1366    -5.9237  C.ar    1  <O>11       0.0483
   7 N1       -1.2620    -9.7580    -7.1200  N.pl3   1  <O>11      -0.2162
   8 S1       -2.0672    -8.3172    -7.1819  S.O2    1  <O>11       0.0745
   9 O1       -3.2311    -8.2816    -5.9972  O.2     1  <O>11      -0.1499
  10 O2       -2.7858    -8.1476    -8.6698  O.2     1  <O>11      -0.1499
  11 C7       -0.9230    -6.9917    -6.9249  C.ar    1  <O>11       0.1365
  12 C8       -1.3360    -5.7855    -6.3173  C.ar    1  <O>11      -0.0328
  13 C9       -0.4327    -4.7138    -6.1036  C.ar    1  <O>11      -0.0577
  14 C10       0.9225    -4.7654    -6.4725  C.ar    1  <O>11      -0.0334
  15 C11       1.3562    -5.9651    -7.0845  C.ar    1  <O>11       0.1018
  16 N2        2.6005    -6.2291    -7.5115  N.ar    1  <O>11      -0.1907
  17 S2        2.5613    -7.7681    -8.1418  S.2     1  <O>11       0.1165
  18 N3        0.9668    -8.1691    -7.8984  N.ar    1  <O>11      -0.1888
  19 C12       0.3953    -7.1061    -7.3101  C.ar    1  <O>11       0.1264
  20 C13       0.7874    -9.7806    -5.7650  C.ar    1  <O>11      -0.0364
  21 H1        3.2314    -9.2521    -5.2971  H       1  <O>11       0.0278
  22 H2        3.4736   -10.7152    -4.3128  H       1  <O>11       0.0278
  23 H3        2.9942    -9.1880    -3.5342  H       1  <O>11       0.0278
  24 H4       -1.2658   -10.3811    -7.9284  H       1  <O>11       0.1737
  25 H5        1.3082   -11.1481    -2.7415  H       1  <O>11       0.0620
  26 H6       -1.0275   -11.7615    -3.0324  H       1  <O>11       0.0618
  27 H7       -2.2132   -11.1207    -5.0562  H       1  <O>11       0.0636
  28 H8       -2.3193    -5.6817    -6.0216  H       1  <O>11       0.0638
  29 H9       -0.7874    -3.8544    -5.6555  H       1  <O>11       0.0619
  30 H10       1.5640    -3.9742    -6.3066  H       1  <O>11       0.0640
  31 H11       1.2744    -9.2420    -6.4983  H       1  <O>11       0.0639
@<TRIPOS>BOND
     1     1     2    1
     2     2     3   ar
     3     3     4   ar
     4     4     5   ar
     5     5     6   ar
     6     6     7    1
     7     7     8    1
     8     8     9    2
     9     8    10    2
    10     8    11    1
    11    11    12   ar
    12    12    13   ar
    13    13    14   ar
    14    14    15   ar
    15    15    16   ar
    16    16    17   ar
    17    17    18   ar
    18    18    19   ar
    19    11    19   ar
    20    15    19   ar
    21     6    20   ar
    22     2    20   ar
    23     1    21    1
    24     1    22    1
    25     1    23    1
    26     7    24    1
    27     3    25    1
    28     4    26    1
    29     5    27    1
    30    12    28    1
    31    13    29    1
    32    14    30    1
    33    20    31    1
