@<TRIPOS>MOLECULE
mol10_1_1
 34 36 0 0 0
SMALL
USER_CHARGES
****
VDW energy = 107.48
@<TRIPOS>ATOM
   1 O1       -6.9336     1.6698    -4.4784  O.2     1  <O>11      -0.2445
   2 C1       -5.8797     1.1987    -4.0775  C.2     1  <O>11       0.3445
   3 O2       -5.3500     1.6230    -2.9050  O.3     1  <O>11      -0.4217
   4 C2       -6.1640     2.5720    -2.3540  C.ar    1  <O>11       0.1396
   5 C3       -7.2216     2.1607    -1.5372  C.ar    1  <O>11      -0.0186
   6 C4       -8.0455     3.1147    -0.9458  C.ar    1  <O>11      -0.0577
   7 C5       -7.8268     4.4735    -1.1929  C.ar    1  <O>11      -0.0538
   8 C6       -6.7794     4.8977    -2.0258  C.ar    1  <O>11      -0.0144
   9 C7       -6.5512     6.2583    -2.2873  C.ar    1  <O>11      -0.0539
  10 C8       -5.4997     6.6599    -3.1133  C.ar    1  <O>11      -0.0612
  11 C9       -4.6613     5.7084    -3.6844  C.ar    1  <O>11      -0.0611
  12 C10      -4.8732     4.3521    -3.4345  C.ar    1  <O>11      -0.0505
  13 C11      -5.9304     3.9321    -2.6110  C.ar    1  <O>11       0.0245
  14 C12      -5.1920     0.1800    -4.8610  C.ar    1  <O>11       0.0616
  15 C13      -5.3190    -1.1784    -4.5253  C.ar    1  <O>11      -0.0476
  16 C14      -4.6487    -2.1553    -5.2700  C.ar    1  <O>11      -0.0588
  17 C15      -3.8512    -1.7862    -6.3563  C.ar    1  <O>11      -0.0316
  18 C16      -3.7309    -0.4333    -6.6945  C.ar    1  <O>11       0.1224
  19 N1       -2.9091    -0.0589    -7.8172  N.4     1  <O>11       0.0060
  20 O3       -3.3195    -0.8100    -8.9876  O.2     1  <O>11      -0.1300
  21 O4       -1.5213    -0.3494    -7.5180  O.2     1  <O>11      -0.3961
  22 C17      -4.3960     0.5474    -5.9579  C.ar    1  <O>11      -0.0176
  23 H1       -7.3907     1.1560    -1.3736  H       1  <O>11       0.0654
  24 H2       -8.8161     2.8194    -0.3262  H       1  <O>11       0.0619
  25 H3       -8.4449     5.1752    -0.7563  H       1  <O>11       0.0624
  26 H4       -7.1678     6.9694    -1.8641  H       1  <O>11       0.0624
  27 H5       -5.3445     7.6629    -3.3000  H       1  <O>11       0.0618
  28 H6       -3.8827     6.0055    -4.2930  H       1  <O>11       0.0618
  29 H7       -4.2466     3.6506    -3.8589  H       1  <O>11       0.0625
  30 H8       -5.9093    -1.4570    -3.7259  H       1  <O>11       0.0626
  31 H9       -4.7437    -3.1511    -5.0162  H       1  <O>11       0.0618
  32 H10      -3.3547    -2.5055    -6.9050  H       1  <O>11       0.0640
  33 H11      -1.1043     0.0603    -6.7857  H       1  <O>11       0.3292
  34 H12      -4.3031     1.5415    -6.2188  H       1  <O>11       0.0648
@<TRIPOS>BOND
     1     1     2    2
     2     2     3    1
     3     3     4    1
     4     4     5   ar
     5     5     6   ar
     6     6     7   ar
     7     7     8   ar
     8     8     9   ar
     9     9    10   ar
    10    10    11   ar
    11    11    12   ar
    12    12    13   ar
    13     4    13   ar
    14     8    13   ar
    15     2    14    1
    16    14    15   ar
    17    15    16   ar
    18    16    17   ar
    19    17    18   ar
    20    18    19    1
    21    19    20    2
    22    19    21    1
    23    18    22   ar
    24    14    22   ar
    25     5    23    1
    26     6    24    1
    27     7    25    1
    28     9    26    1
    29    10    27    1
    30    11    28    1
    31    12    29    1
    32    15    30    1
    33    16    31    1
    34    17    32    1
    35    21    33    1
    36    22    34    1
@<TRIPOS>MOLECULE
mol10_1_2
 34 36 0 0 0
SMALL
USER_CHARGES
****
VDW energy = 107.53
@<TRIPOS>ATOM
   1 O1       -6.9336     1.6698    -4.4784  O.2     1  <O>11      -0.2445
   2 C1       -5.8797     1.1987    -4.0775  C.2     1  <O>11       0.3445
   3 O2       -5.3500     1.6230    -2.9050  O.3     1  <O>11      -0.4217
   4 C2       -6.1640     2.5720    -2.3540  C.ar    1  <O>11       0.1396
   5 C3       -5.9490     3.9149    -2.6784  C.ar    1  <O>11      -0.0186
   6 C4       -6.7851     4.8935    -2.1474  C.ar    1  <O>11      -0.0577
   7 C5       -7.8153     4.5307    -1.2743  C.ar    1  <O>11      -0.0538
   8 C6       -8.0294     3.1875    -0.9269  C.ar    1  <O>11      -0.0144
   9 C7       -9.0564     2.8089    -0.0473  C.ar    1  <O>11      -0.0539
  10 C8       -9.2571     1.4666     0.2804  C.ar    1  <O>11      -0.0612
  11 C9       -8.4377     0.4864    -0.2694  C.ar    1  <O>11      -0.0611
  12 C10      -7.4130     0.8449    -1.1459  C.ar    1  <O>11      -0.0505
  13 C11      -7.1945     2.1912    -1.4801  C.ar    1  <O>11       0.0245
  14 C12      -5.1920     0.1800    -4.8610  C.ar    1  <O>11       0.0616
  15 C13      -5.3190    -1.1784    -4.5253  C.ar    1  <O>11      -0.0476
  16 C14      -4.6487    -2.1553    -5.2700  C.ar    1  <O>11      -0.0588
  17 C15      -3.8512    -1.7862    -6.3563  C.ar    1  <O>11      -0.0316
  18 C16      -3.7309    -0.4333    -6.6945  C.ar    1  <O>11       0.1224
  19 N1       -2.9091    -0.0589    -7.8172  N.4     1  <O>11       0.0060
  20 O3       -3.3195    -0.8100    -8.9876  O.2     1  <O>11      -0.1300
  21 O4       -1.5213    -0.3494    -7.5180  O.2     1  <O>11      -0.3961
  22 C17      -4.3960     0.5474    -5.9579  C.ar    1  <O>11      -0.0176
  23 H1       -5.1752     4.1793    -3.3079  H       1  <O>11       0.0654
  24 H2       -6.6446     5.8847    -2.3977  H       1  <O>11       0.0619
  25 H3       -8.4276     5.2615    -0.8793  H       1  <O>11       0.0624
  26 H4       -9.6698     3.5310     0.3616  H       1  <O>11       0.0624
  27 H5      -10.0135     1.2018     0.9305  H       1  <O>11       0.0618
  28 H6       -8.5876    -0.5059    -0.0290  H       1  <O>11       0.0618
  29 H7       -6.8095     0.1132    -1.5526  H       1  <O>11       0.0625
  30 H8       -5.9093    -1.4570    -3.7259  H       1  <O>11       0.0626
  31 H9       -4.7437    -3.1511    -5.0162  H       1  <O>11       0.0618
  32 H10      -3.3547    -2.5055    -6.9050  H       1  <O>11       0.0640
  33 H11      -1.1043     0.0603    -6.7857  H       1  <O>11       0.3292
  34 H12      -4.3031     1.5415    -6.2188  H       1  <O>11       0.0648
@<TRIPOS>BOND
     1     1     2    2
     2     2     3    1
     3     3     4    1
     4     4     5   ar
     5     5     6   ar
     6     6     7   ar
     7     7     8   ar
     8     8     9   ar
     9     9    10   ar
    10    10    11   ar
    11    11    12   ar
    12    12    13   ar
    13     4    13   ar
    14     8    13   ar
    15     2    14    1
    16    14    15   ar
    17    15    16   ar
    18    16    17   ar
    19    17    18   ar
    20    18    19    1
    21    19    20    2
    22    19    21    1
    23    18    22   ar
    24    14    22   ar
    25     5    23    1
    26     6    24    1
    27     7    25    1
    28     9    26    1
    29    10    27    1
    30    11    28    1
    31    12    29    1
    32    15    30    1
    33    16    31    1
    34    17    32    1
    35    21    33    1
    36    22    34    1
@<TRIPOS>MOLECULE
mol10_1_3
 34 36 0 0 0
SMALL
USER_CHARGES
****
VDW energy = 108.85
@<TRIPOS>ATOM
   1 O1       -6.9336     1.6698    -4.4784  O.2     1  <O>11      -0.2445
   2 C1       -5.8797     1.1987    -4.0775  C.2     1  <O>11       0.3445
   3 O2       -5.3500     1.6230    -2.9050  O.3     1  <O>11      -0.4217
   4 C2       -6.1640     2.5720    -2.3540  C.ar    1  <O>11       0.1396
   5 C3       -7.2216     2.1607    -1.5372  C.ar    1  <O>11      -0.0186
   6 C4       -8.0455     3.1147    -0.9458  C.ar    1  <O>11      -0.0577
   7 C5       -7.8268     4.4735    -1.1929  C.ar    1  <O>11      -0.0538
   8 C6       -6.7794     4.8977    -2.0258  C.ar    1  <O>11      -0.0144
   9 C7       -6.5512     6.2583    -2.2873  C.ar    1  <O>11      -0.0539
  10 C8       -5.4997     6.6599    -3.1133  C.ar    1  <O>11      -0.0612
  11 C9       -4.6613     5.7084    -3.6844  C.ar    1  <O>11      -0.0611
  12 C10      -4.8732     4.3521    -3.4345  C.ar    1  <O>11      -0.0505
  13 C11      -5.9304     3.9321    -2.6110  C.ar    1  <O>11       0.0245
  14 C12      -5.1920     0.1800    -4.8610  C.ar    1  <O>11       0.0616
  15 C13      -5.3190    -1.1784    -4.5253  C.ar    1  <O>11      -0.0476
  16 C14      -4.6487    -2.1553    -5.2700  C.ar    1  <O>11      -0.0588
  17 C15      -3.8512    -1.7862    -6.3563  C.ar    1  <O>11      -0.0316
  18 C16      -3.7309    -0.4333    -6.6945  C.ar    1  <O>11       0.1224
  19 N1       -2.9091    -0.0589    -7.8172  N.4     1  <O>11       0.0060
  20 O3       -2.9137    -1.1280    -8.7967  O.2     1  <O>11      -0.1300
  21 O4       -1.5528     0.1775    -7.3653  O.2     1  <O>11      -0.3961
  22 C17      -4.3960     0.5474    -5.9579  C.ar    1  <O>11      -0.0176
  23 H1       -7.3907     1.1560    -1.3736  H       1  <O>11       0.0654
  24 H2       -8.8161     2.8194    -0.3262  H       1  <O>11       0.0619
  25 H3       -8.4449     5.1752    -0.7563  H       1  <O>11       0.0624
  26 H4       -7.1678     6.9694    -1.8641  H       1  <O>11       0.0624
  27 H5       -5.3445     7.6629    -3.3000  H       1  <O>11       0.0618
  28 H6       -3.8827     6.0055    -4.2930  H       1  <O>11       0.0618
  29 H7       -4.2466     3.6506    -3.8589  H       1  <O>11       0.0625
  30 H8       -5.9093    -1.4570    -3.7259  H       1  <O>11       0.0626
  31 H9       -4.7437    -3.1511    -5.0162  H       1  <O>11       0.0618
  32 H10      -3.3547    -2.5055    -6.9050  H       1  <O>11       0.0640
  33 H11      -1.3805     0.8418    -6.7273  H       1  <O>11       0.3292
  34 H12      -4.3031     1.5415    -6.2188  H       1  <O>11       0.0648
@<TRIPOS>BOND
     1     1     2    2
     2     2     3    1
     3     3     4    1
     4     4     5   ar
     5     5     6   ar
     6     6     7   ar
     7     7     8   ar
     8     8     9   ar
     9     9    10   ar
    10    10    11   ar
    11    11    12   ar
    12    12    13   ar
    13     4    13   ar
    14     8    13   ar
    15     2    14    1
    16    14    15   ar
    17    15    16   ar
    18    16    17   ar
    19    17    18   ar
    20    18    19    1
    21    19    20    2
    22    19    21    1
    23    18    22   ar
    24    14    22   ar
    25     5    23    1
    26     6    24    1
    27     7    25    1
    28     9    26    1
    29    10    27    1
    30    11    28    1
    31    12    29    1
    32    15    30    1
    33    16    31    1
    34    17    32    1
    35    21    33    1
    36    22    34    1
@<TRIPOS>MOLECULE
mol10_1_4
 34 36 0 0 0
SMALL
USER_CHARGES
****
VDW energy = 108.99
@<TRIPOS>ATOM
   1 O1       -6.9336     1.6698    -4.4784  O.2     1  <O>11      -0.2445
   2 C1       -5.8797     1.1987    -4.0775  C.2     1  <O>11       0.3445
   3 O2       -5.3500     1.6230    -2.9050  O.3     1  <O>11      -0.4217
   4 C2       -6.1640     2.5720    -2.3540  C.ar    1  <O>11       0.1396
   5 C3       -5.9490     3.9149    -2.6784  C.ar    1  <O>11      -0.0186
   6 C4       -6.7851     4.8935    -2.1474  C.ar    1  <O>11      -0.0577
   7 C5       -7.8153     4.5307    -1.2743  C.ar    1  <O>11      -0.0538
   8 C6       -8.0294     3.1875    -0.9269  C.ar    1  <O>11      -0.0144
   9 C7       -9.0564     2.8089    -0.0473  C.ar    1  <O>11      -0.0539
  10 C8       -9.2571     1.4666     0.2804  C.ar    1  <O>11      -0.0612
  11 C9       -8.4377     0.4864    -0.2694  C.ar    1  <O>11      -0.0611
  12 C10      -7.4130     0.8449    -1.1459  C.ar    1  <O>11      -0.0505
  13 C11      -7.1945     2.1912    -1.4801  C.ar    1  <O>11       0.0245
  14 C12      -5.1920     0.1800    -4.8610  C.ar    1  <O>11       0.0616
  15 C13      -4.2462     0.5506    -5.8317  C.ar    1  <O>11      -0.0476
  16 C14      -3.5952    -0.4270    -6.5925  C.ar    1  <O>11      -0.0588
  17 C15      -3.8786    -1.7799    -6.3885  C.ar    1  <O>11      -0.0316
  18 C16      -4.8157    -2.1487    -5.4163  C.ar    1  <O>11       0.1224
  19 N1       -5.1020    -3.5454    -5.2088  N.4     1  <O>11       0.0060
  20 O3       -6.4725    -3.6959    -4.7604  O.2     1  <O>11      -0.1300
  21 O4       -4.2031    -4.0787    -4.2051  O.2     1  <O>11      -0.3961
  22 C17      -5.4692    -1.1807    -4.6529  C.ar    1  <O>11      -0.0176
  23 H1       -5.1752     4.1793    -3.3079  H       1  <O>11       0.0654
  24 H2       -6.6446     5.8847    -2.3977  H       1  <O>11       0.0619
  25 H3       -8.4276     5.2615    -0.8793  H       1  <O>11       0.0624
  26 H4       -9.6698     3.5310     0.3616  H       1  <O>11       0.0624
  27 H5      -10.0135     1.2018     0.9305  H       1  <O>11       0.0618
  28 H6       -8.5876    -0.5059    -0.0290  H       1  <O>11       0.0618
  29 H7       -6.8095     0.1132    -1.5526  H       1  <O>11       0.0625
  30 H8       -4.0307     1.5482    -5.9843  H       1  <O>11       0.0626
  31 H9       -2.9039    -0.1479    -7.3061  H       1  <O>11       0.0618
  32 H10      -3.4007    -2.5017    -6.9503  H       1  <O>11       0.0640
  33 H11      -3.2770    -4.0560    -4.3459  H       1  <O>11       0.3292
  34 H12      -6.1554    -1.4645    -3.9363  H       1  <O>11       0.0648
@<TRIPOS>BOND
     1     1     2    2
     2     2     3    1
     3     3     4    1
     4     4     5   ar
     5     5     6   ar
     6     6     7   ar
     7     7     8   ar
     8     8     9   ar
     9     9    10   ar
    10    10    11   ar
    11    11    12   ar
    12    12    13   ar
    13     4    13   ar
    14     8    13   ar
    15     2    14    1
    16    14    15   ar
    17    15    16   ar
    18    16    17   ar
    19    17    18   ar
    20    18    19    1
    21    19    20    2
    22    19    21    1
    23    18    22   ar
    24    14    22   ar
    25     5    23    1
    26     6    24    1
    27     7    25    1
    28     9    26    1
    29    10    27    1
    30    11    28    1
    31    12    29    1
    32    15    30    1
    33    16    31    1
    34    17    32    1
    35    21    33    1
    36    22    34    1
@<TRIPOS>MOLECULE
mol10_1_5
 34 36 0 0 0
SMALL
USER_CHARGES
****
VDW energy = 109.06
@<TRIPOS>ATOM
   1 O1       -6.9336     1.6698    -4.4784  O.2     1  <O>11      -0.2445
   2 C1       -5.8797     1.1987    -4.0775  C.2     1  <O>11       0.3445
   3 O2       -5.3500     1.6230    -2.9050  O.3     1  <O>11      -0.4217
   4 C2       -6.1640     2.5720    -2.3540  C.ar    1  <O>11       0.1396
   5 C3       -5.9490     3.9149    -2.6784  C.ar    1  <O>11      -0.0186
   6 C4       -6.7851     4.8935    -2.1474  C.ar    1  <O>11      -0.0577
   7 C5       -7.8153     4.5307    -1.2743  C.ar    1  <O>11      -0.0538
   8 C6       -8.0294     3.1875    -0.9269  C.ar    1  <O>11      -0.0144
   9 C7       -9.0564     2.8089    -0.0473  C.ar    1  <O>11      -0.0539
  10 C8       -9.2571     1.4666     0.2804  C.ar    1  <O>11      -0.0612
  11 C9       -8.4377     0.4864    -0.2694  C.ar    1  <O>11      -0.0611
  12 C10      -7.4130     0.8449    -1.1459  C.ar    1  <O>11      -0.0505
  13 C11      -7.1945     2.1912    -1.4801  C.ar    1  <O>11       0.0245
  14 C12      -5.1920     0.1800    -4.8610  C.ar    1  <O>11       0.0616
  15 C13      -4.5727    -0.9075    -4.2224  C.ar    1  <O>11      -0.0476
  16 C14      -3.9018    -1.8789    -4.9739  C.ar    1  <O>11      -0.0588
  17 C15      -3.8471    -1.7758    -6.3663  C.ar    1  <O>11      -0.0316
  18 C16      -4.4704    -0.6958    -7.0022  C.ar    1  <O>11       0.1224
  19 N1       -4.4127    -0.5962    -8.4385  N.4     1  <O>11       0.0060
  20 O3       -4.8830    -1.8347    -9.0276  O.2     1  <O>11      -0.1300
  21 O4       -3.0451    -0.3527    -8.8511  O.2     1  <O>11      -0.3961
  22 C17      -5.1419     0.2769    -6.2609  C.ar    1  <O>11      -0.0176
  23 H1       -5.1752     4.1793    -3.3079  H       1  <O>11       0.0654
  24 H2       -6.6446     5.8847    -2.3977  H       1  <O>11       0.0619
  25 H3       -8.4276     5.2615    -0.8793  H       1  <O>11       0.0624
  26 H4       -9.6698     3.5310     0.3616  H       1  <O>11       0.0624
  27 H5      -10.0135     1.2018     0.9305  H       1  <O>11       0.0618
  28 H6       -8.5876    -0.5059    -0.0290  H       1  <O>11       0.0618
  29 H7       -6.8095     0.1132    -1.5526  H       1  <O>11       0.0625
  30 H8       -4.6127    -0.9904    -3.1945  H       1  <O>11       0.0626
  31 H9       -3.4463    -2.6735    -4.4984  H       1  <O>11       0.0618
  32 H10      -3.3509    -2.4903    -6.9215  H       1  <O>11       0.0640
  33 H11      -2.5950     0.4131    -8.5527  H       1  <O>11       0.3292
  34 H12      -5.6011     1.0667    -6.7408  H       1  <O>11       0.0648
@<TRIPOS>BOND
     1     1     2    2
     2     2     3    1
     3     3     4    1
     4     4     5   ar
     5     5     6   ar
     6     6     7   ar
     7     7     8   ar
     8     8     9   ar
     9     9    10   ar
    10    10    11   ar
    11    11    12   ar
    12    12    13   ar
    13     4    13   ar
    14     8    13   ar
    15     2    14    1
    16    14    15   ar
    17    15    16   ar
    18    16    17   ar
    19    17    18   ar
    20    18    19    1
    21    19    20    2
    22    19    21    1
    23    18    22   ar
    24    14    22   ar
    25     5    23    1
    26     6    24    1
    27     7    25    1
    28     9    26    1
    29    10    27    1
    30    11    28    1
    31    12    29    1
    32    15    30    1
    33    16    31    1
    34    17    32    1
    35    21    33    1
    36    22    34    1
@<TRIPOS>MOLECULE
mol10_1_6
 34 36 0 0 0
SMALL
USER_CHARGES
****
VDW energy = 109.99
@<TRIPOS>ATOM
   1 O1       -6.9336     1.6698    -4.4784  O.2     1  <O>11      -0.2445
   2 C1       -5.8797     1.1987    -4.0775  C.2     1  <O>11       0.3445
   3 O2       -5.3500     1.6230    -2.9050  O.3     1  <O>11      -0.4217
   4 C2       -6.1640     2.5720    -2.3540  C.ar    1  <O>11       0.1396
   5 C3       -7.2216     2.1607    -1.5372  C.ar    1  <O>11      -0.0186
   6 C4       -8.0455     3.1147    -0.9458  C.ar    1  <O>11      -0.0577
   7 C5       -7.8268     4.4735    -1.1929  C.ar    1  <O>11      -0.0538
   8 C6       -6.7794     4.8977    -2.0258  C.ar    1  <O>11      -0.0144
   9 C7       -6.5512     6.2583    -2.2873  C.ar    1  <O>11      -0.0539
  10 C8       -5.4997     6.6599    -3.1133  C.ar    1  <O>11      -0.0612
  11 C9       -4.6613     5.7084    -3.6844  C.ar    1  <O>11      -0.0611
  12 C10      -4.8732     4.3521    -3.4345  C.ar    1  <O>11      -0.0505
  13 C11      -5.9304     3.9321    -2.6110  C.ar    1  <O>11       0.0245
  14 C12      -5.1920     0.1800    -4.8610  C.ar    1  <O>11       0.0616
  15 C13      -3.7918     0.1989    -4.9756  C.ar    1  <O>11      -0.0476
  16 C14      -3.1327    -0.7719    -5.7381  C.ar    1  <O>11      -0.0588
  17 C15      -3.8632    -1.7702    -6.3877  C.ar    1  <O>11      -0.0316
  18 C16      -5.2576    -1.7926    -6.2672  C.ar    1  <O>11       0.1224
  19 N1       -6.0053    -2.8259    -6.9373  N.4     1  <O>11       0.0060
  20 O3       -5.4877    -4.1241    -6.5511  O.2     1  <O>11      -0.1300
  21 O4       -5.8781    -2.6613    -8.3713  O.2     1  <O>11      -0.3961
  22 C17      -5.9230    -0.8289    -5.5086  C.ar    1  <O>11      -0.0176
  23 H1       -7.3907     1.1560    -1.3736  H       1  <O>11       0.0654
  24 H2       -8.8161     2.8194    -0.3262  H       1  <O>11       0.0619
  25 H3       -8.4449     5.1752    -0.7563  H       1  <O>11       0.0624
  26 H4       -7.1678     6.9694    -1.8641  H       1  <O>11       0.0624
  27 H5       -5.3445     7.6629    -3.3000  H       1  <O>11       0.0618
  28 H6       -3.8827     6.0055    -4.2930  H       1  <O>11       0.0618
  29 H7       -4.2466     3.6506    -3.8589  H       1  <O>11       0.0625
  30 H8       -3.2469     0.9321    -4.4954  H       1  <O>11       0.0626
  31 H9       -2.1042    -0.7504    -5.8208  H       1  <O>11       0.0618
  32 H10      -3.3785    -2.4855    -6.9520  H       1  <O>11       0.0640
  33 H11      -6.1696    -1.8700    -8.7798  H       1  <O>11       0.3292
  34 H12      -6.9510    -0.8576    -5.4237  H       1  <O>11       0.0648
@<TRIPOS>BOND
     1     1     2    2
     2     2     3    1
     3     3     4    1
     4     4     5   ar
     5     5     6   ar
     6     6     7   ar
     7     7     8   ar
     8     8     9   ar
     9     9    10   ar
    10    10    11   ar
    11    11    12   ar
    12    12    13   ar
    13     4    13   ar
    14     8    13   ar
    15     2    14    1
    16    14    15   ar
    17    15    16   ar
    18    16    17   ar
    19    17    18   ar
    20    18    19    1
    21    19    20    2
    22    19    21    1
    23    18    22   ar
    24    14    22   ar
    25     5    23    1
    26     6    24    1
    27     7    25    1
    28     9    26    1
    29    10    27    1
    30    11    28    1
    31    12    29    1
    32    15    30    1
    33    16    31    1
    34    17    32    1
    35    21    33    1
    36    22    34    1
@<TRIPOS>MOLECULE
mol10_1_7
 34 36 0 0 0
SMALL
USER_CHARGES
****
VDW energy = 110.08
@<TRIPOS>ATOM
   1 O1       -6.9336     1.6698    -4.4784  O.2     1  <O>11      -0.2445
   2 C1       -5.8797     1.1987    -4.0775  C.2     1  <O>11       0.3445
   3 O2       -5.3500     1.6230    -2.9050  O.3     1  <O>11      -0.4217
   4 C2       -6.1640     2.5720    -2.3540  C.ar    1  <O>11       0.1396
   5 C3       -5.9490     3.9149    -2.6784  C.ar    1  <O>11      -0.0186
   6 C4       -6.7851     4.8935    -2.1474  C.ar    1  <O>11      -0.0577
   7 C5       -7.8153     4.5307    -1.2743  C.ar    1  <O>11      -0.0538
   8 C6       -8.0294     3.1875    -0.9269  C.ar    1  <O>11      -0.0144
   9 C7       -9.0564     2.8089    -0.0473  C.ar    1  <O>11      -0.0539
  10 C8       -9.2571     1.4666     0.2804  C.ar    1  <O>11      -0.0612
  11 C9       -8.4377     0.4864    -0.2694  C.ar    1  <O>11      -0.0611
  12 C10      -7.4130     0.8449    -1.1459  C.ar    1  <O>11      -0.0505
  13 C11      -7.1945     2.1912    -1.4801  C.ar    1  <O>11       0.0245
  14 C12      -5.1920     0.1800    -4.8610  C.ar    1  <O>11       0.0616
  15 C13      -3.7918     0.1989    -4.9756  C.ar    1  <O>11      -0.0476
  16 C14      -3.1327    -0.7719    -5.7381  C.ar    1  <O>11      -0.0588
  17 C15      -3.8632    -1.7702    -6.3877  C.ar    1  <O>11      -0.0316
  18 C16      -5.2576    -1.7926    -6.2672  C.ar    1  <O>11       0.1224
  19 N1       -6.0053    -2.8259    -6.9373  N.4     1  <O>11       0.0060
  20 O3       -5.4877    -4.1241    -6.5511  O.2     1  <O>11      -0.1300
  21 O4       -5.8781    -2.6613    -8.3713  O.2     1  <O>11      -0.3961
  22 C17      -5.9230    -0.8289    -5.5086  C.ar    1  <O>11      -0.0176
  23 H1       -5.1752     4.1793    -3.3079  H       1  <O>11       0.0654
  24 H2       -6.6446     5.8847    -2.3977  H       1  <O>11       0.0619
  25 H3       -8.4276     5.2615    -0.8793  H       1  <O>11       0.0624
  26 H4       -9.6698     3.5310     0.3616  H       1  <O>11       0.0624
  27 H5      -10.0135     1.2018     0.9305  H       1  <O>11       0.0618
  28 H6       -8.5876    -0.5059    -0.0290  H       1  <O>11       0.0618
  29 H7       -6.8095     0.1132    -1.5526  H       1  <O>11       0.0625
  30 H8       -3.2469     0.9321    -4.4954  H       1  <O>11       0.0626
  31 H9       -2.1042    -0.7504    -5.8208  H       1  <O>11       0.0618
  32 H10      -3.3785    -2.4855    -6.9520  H       1  <O>11       0.0640
  33 H11      -6.1696    -1.8700    -8.7798  H       1  <O>11       0.3292
  34 H12      -6.9510    -0.8576    -5.4237  H       1  <O>11       0.0648
@<TRIPOS>BOND
     1     1     2    2
     2     2     3    1
     3     3     4    1
     4     4     5   ar
     5     5     6   ar
     6     6     7   ar
     7     7     8   ar
     8     8     9   ar
     9     9    10   ar
    10    10    11   ar
    11    11    12   ar
    12    12    13   ar
    13     4    13   ar
    14     8    13   ar
    15     2    14    1
    16    14    15   ar
    17    15    16   ar
    18    16    17   ar
    19    17    18   ar
    20    18    19    1
    21    19    20    2
    22    19    21    1
    23    18    22   ar
    24    14    22   ar
    25     5    23    1
    26     6    24    1
    27     7    25    1
    28     9    26    1
    29    10    27    1
    30    11    28    1
    31    12    29    1
    32    15    30    1
    33    16    31    1
    34    17    32    1
    35    21    33    1
    36    22    34    1
@<TRIPOS>MOLECULE
mol10_1_8
 34 36 0 0 0
SMALL
USER_CHARGES
****
VDW energy = 110.56
@<TRIPOS>ATOM
   1 O1       -6.9336     1.6698    -4.4784  O.2     1  <O>11      -0.2445
   2 C1       -5.8797     1.1987    -4.0775  C.2     1  <O>11       0.3445
   3 O2       -5.3500     1.6230    -2.9050  O.3     1  <O>11      -0.4217
   4 C2       -6.1640     2.5720    -2.3540  C.ar    1  <O>11       0.1396
   5 C3       -7.2216     2.1607    -1.5372  C.ar    1  <O>11      -0.0186
   6 C4       -8.0455     3.1147    -0.9458  C.ar    1  <O>11      -0.0577
   7 C5       -7.8268     4.4735    -1.1929  C.ar    1  <O>11      -0.0538
   8 C6       -6.7794     4.8977    -2.0258  C.ar    1  <O>11      -0.0144
   9 C7       -6.5512     6.2583    -2.2873  C.ar    1  <O>11      -0.0539
  10 C8       -5.4997     6.6599    -3.1133  C.ar    1  <O>11      -0.0612
  11 C9       -4.6613     5.7084    -3.6844  C.ar    1  <O>11      -0.0611
  12 C10      -4.8732     4.3521    -3.4345  C.ar    1  <O>11      -0.0505
  13 C11      -5.9304     3.9321    -2.6110  C.ar    1  <O>11       0.0245
  14 C12      -5.1920     0.1800    -4.8610  C.ar    1  <O>11       0.0616
  15 C13      -5.3190    -1.1784    -4.5253  C.ar    1  <O>11      -0.0476
  16 C14      -4.6487    -2.1553    -5.2700  C.ar    1  <O>11      -0.0588
  17 C15      -3.8512    -1.7862    -6.3563  C.ar    1  <O>11      -0.0316
  18 C16      -3.7309    -0.4333    -6.6945  C.ar    1  <O>11       0.1224
  19 N1       -2.9091    -0.0589    -7.8172  N.4     1  <O>11       0.0060
  20 O3       -2.3538     1.2610    -7.5902  O.2     1  <O>11      -0.1300
  21 O4       -3.7146    -0.0444    -9.0217  O.2     1  <O>11      -0.3961
  22 C17      -4.3960     0.5474    -5.9579  C.ar    1  <O>11      -0.0176
  23 H1       -7.3907     1.1560    -1.3736  H       1  <O>11       0.0654
  24 H2       -8.8161     2.8194    -0.3262  H       1  <O>11       0.0619
  25 H3       -8.4449     5.1752    -0.7563  H       1  <O>11       0.0624
  26 H4       -7.1678     6.9694    -1.8641  H       1  <O>11       0.0624
  27 H5       -5.3445     7.6629    -3.3000  H       1  <O>11       0.0618
  28 H6       -3.8827     6.0055    -4.2930  H       1  <O>11       0.0618
  29 H7       -4.2466     3.6506    -3.8589  H       1  <O>11       0.0625
  30 H8       -5.9093    -1.4570    -3.7259  H       1  <O>11       0.0626
  31 H9       -4.7437    -3.1511    -5.0162  H       1  <O>11       0.0618
  32 H10      -3.3547    -2.5055    -6.9050  H       1  <O>11       0.0640
  33 H11      -4.1450    -0.8263    -9.3070  H       1  <O>11       0.3292
  34 H12      -4.3031     1.5415    -6.2188  H       1  <O>11       0.0648
@<TRIPOS>BOND
     1     1     2    2
     2     2     3    1
     3     3     4    1
     4     4     5   ar
     5     5     6   ar
     6     6     7   ar
     7     7     8   ar
     8     8     9   ar
     9     9    10   ar
    10    10    11   ar
    11    11    12   ar
    12    12    13   ar
    13     4    13   ar
    14     8    13   ar
    15     2    14    1
    16    14    15   ar
    17    15    16   ar
    18    16    17   ar
    19    17    18   ar
    20    18    19    1
    21    19    20    2
    22    19    21    1
    23    18    22   ar
    24    14    22   ar
    25     5    23    1
    26     6    24    1
    27     7    25    1
    28     9    26    1
    29    10    27    1
    30    11    28    1
    31    12    29    1
    32    15    30    1
    33    16    31    1
    34    17    32    1
    35    21    33    1
    36    22    34    1
@<TRIPOS>MOLECULE
mol10_1_9
 34 36 0 0 0
SMALL
USER_CHARGES
****
VDW energy = 111.48
@<TRIPOS>ATOM
   1 O1       -6.9336     1.6698    -4.4784  O.2     1  <O>11      -0.2445
   2 C1       -5.8797     1.1987    -4.0775  C.2     1  <O>11       0.3445
   3 O2       -5.3500     1.6230    -2.9050  O.3     1  <O>11      -0.4217
   4 C2       -6.1640     2.5720    -2.3540  C.ar    1  <O>11       0.1396
   5 C3       -7.2216     2.1607    -1.5372  C.ar    1  <O>11      -0.0186
   6 C4       -8.0455     3.1147    -0.9458  C.ar    1  <O>11      -0.0577
   7 C5       -7.8268     4.4735    -1.1929  C.ar    1  <O>11      -0.0538
   8 C6       -6.7794     4.8977    -2.0258  C.ar    1  <O>11      -0.0144
   9 C7       -6.5512     6.2583    -2.2873  C.ar    1  <O>11      -0.0539
  10 C8       -5.4997     6.6599    -3.1133  C.ar    1  <O>11      -0.0612
  11 C9       -4.6613     5.7084    -3.6844  C.ar    1  <O>11      -0.0611
  12 C10      -4.8732     4.3521    -3.4345  C.ar    1  <O>11      -0.0505
  13 C11      -5.9304     3.9321    -2.6110  C.ar    1  <O>11       0.0245
  14 C12      -5.1920     0.1800    -4.8610  C.ar    1  <O>11       0.0616
  15 C13      -3.7918     0.1989    -4.9756  C.ar    1  <O>11      -0.0476
  16 C14      -3.1327    -0.7719    -5.7381  C.ar    1  <O>11      -0.0588
  17 C15      -3.8632    -1.7702    -6.3877  C.ar    1  <O>11      -0.0316
  18 C16      -5.2576    -1.7926    -6.2672  C.ar    1  <O>11       0.1224
  19 N1       -6.0053    -2.8259    -6.9373  N.4     1  <O>11       0.0060
  20 O3       -7.3176    -2.3204    -7.2905  O.2     1  <O>11      -0.1300
  21 O4       -6.1476    -3.9676    -6.0563  O.2     1  <O>11      -0.3961
  22 C17      -5.9230    -0.8289    -5.5086  C.ar    1  <O>11      -0.0176
  23 H1       -7.3907     1.1560    -1.3736  H       1  <O>11       0.0654
  24 H2       -8.8161     2.8194    -0.3262  H       1  <O>11       0.0619
  25 H3       -8.4449     5.1752    -0.7563  H       1  <O>11       0.0624
  26 H4       -7.1678     6.9694    -1.8641  H       1  <O>11       0.0624
  27 H5       -5.3445     7.6629    -3.3000  H       1  <O>11       0.0618
  28 H6       -3.8827     6.0055    -4.2930  H       1  <O>11       0.0618
  29 H7       -4.2466     3.6506    -3.8589  H       1  <O>11       0.0625
  30 H8       -3.2469     0.9321    -4.4954  H       1  <O>11       0.0626
  31 H9       -2.1042    -0.7504    -5.8208  H       1  <O>11       0.0618
  32 H10      -3.3785    -2.4855    -6.9520  H       1  <O>11       0.0640
  33 H11      -5.3862    -4.4104    -5.7364  H       1  <O>11       0.3292
  34 H12      -6.9510    -0.8576    -5.4237  H       1  <O>11       0.0648
@<TRIPOS>BOND
     1     1     2    2
     2     2     3    1
     3     3     4    1
     4     4     5   ar
     5     5     6   ar
     6     6     7   ar
     7     7     8   ar
     8     8     9   ar
     9     9    10   ar
    10    10    11   ar
    11    11    12   ar
    12    12    13   ar
    13     4    13   ar
    14     8    13   ar
    15     2    14    1
    16    14    15   ar
    17    15    16   ar
    18    16    17   ar
    19    17    18   ar
    20    18    19    1
    21    19    20    2
    22    19    21    1
    23    18    22   ar
    24    14    22   ar
    25     5    23    1
    26     6    24    1
    27     7    25    1
    28     9    26    1
    29    10    27    1
    30    11    28    1
    31    12    29    1
    32    15    30    1
    33    16    31    1
    34    17    32    1
    35    21    33    1
    36    22    34    1
@<TRIPOS>MOLECULE
mol10_1_10
 34 36 0 0 0
SMALL
USER_CHARGES
****
VDW energy = 112.26
@<TRIPOS>ATOM
   1 O1       -6.9336     1.6698    -4.4784  O.2     1  <O>11      -0.2445
   2 C1       -5.8797     1.1987    -4.0775  C.2     1  <O>11       0.3445
   3 O2       -5.3500     1.6230    -2.9050  O.3     1  <O>11      -0.4217
   4 C2       -6.1640     2.5720    -2.3540  C.ar    1  <O>11       0.1396
   5 C3       -7.2216     2.1607    -1.5372  C.ar    1  <O>11      -0.0186
   6 C4       -8.0455     3.1147    -0.9458  C.ar    1  <O>11      -0.0577
   7 C5       -7.8268     4.4735    -1.1929  C.ar    1  <O>11      -0.0538
   8 C6       -6.7794     4.8977    -2.0258  C.ar    1  <O>11      -0.0144
   9 C7       -6.5512     6.2583    -2.2873  C.ar    1  <O>11      -0.0539
  10 C8       -5.4997     6.6599    -3.1133  C.ar    1  <O>11      -0.0612
  11 C9       -4.6613     5.7084    -3.6844  C.ar    1  <O>11      -0.0611
  12 C10      -4.8732     4.3521    -3.4345  C.ar    1  <O>11      -0.0505
  13 C11      -5.9304     3.9321    -2.6110  C.ar    1  <O>11       0.0245
  14 C12      -5.1920     0.1800    -4.8610  C.ar    1  <O>11       0.0616
  15 C13      -3.7918     0.1989    -4.9756  C.ar    1  <O>11      -0.0476
  16 C14      -3.1327    -0.7719    -5.7381  C.ar    1  <O>11      -0.0588
  17 C15      -3.8632    -1.7702    -6.3877  C.ar    1  <O>11      -0.0316
  18 C16      -5.2576    -1.7926    -6.2672  C.ar    1  <O>11       0.1224
  19 N1       -6.0053    -2.8259    -6.9373  N.4     1  <O>11       0.0060
  20 O3       -5.1942    -4.0239    -7.0331  O.2     1  <O>11      -0.1300
  21 O4       -6.3643    -2.3769    -8.2674  O.2     1  <O>11      -0.3961
  22 C17      -5.9230    -0.8289    -5.5086  C.ar    1  <O>11      -0.0176
  23 H1       -7.3907     1.1560    -1.3736  H       1  <O>11       0.0654
  24 H2       -8.8161     2.8194    -0.3262  H       1  <O>11       0.0619
  25 H3       -8.4449     5.1752    -0.7563  H       1  <O>11       0.0624
  26 H4       -7.1678     6.9694    -1.8641  H       1  <O>11       0.0624
  27 H5       -5.3445     7.6629    -3.3000  H       1  <O>11       0.0618
  28 H6       -3.8827     6.0055    -4.2930  H       1  <O>11       0.0618
  29 H7       -4.2466     3.6506    -3.8589  H       1  <O>11       0.0625
  30 H8       -3.2469     0.9321    -4.4954  H       1  <O>11       0.0626
  31 H9       -2.1042    -0.7504    -5.8208  H       1  <O>11       0.0618
  32 H10      -3.3785    -2.4855    -6.9520  H       1  <O>11       0.0640
  33 H11      -6.8908    -1.6094    -8.3767  H       1  <O>11       0.3292
  34 H12      -6.9510    -0.8576    -5.4237  H       1  <O>11       0.0648
@<TRIPOS>BOND
     1     1     2    2
     2     2     3    1
     3     3     4    1
     4     4     5   ar
     5     5     6   ar
     6     6     7   ar
     7     7     8   ar
     8     8     9   ar
     9     9    10   ar
    10    10    11   ar
    11    11    12   ar
    12    12    13   ar
    13     4    13   ar
    14     8    13   ar
    15     2    14    1
    16    14    15   ar
    17    15    16   ar
    18    16    17   ar
    19    17    18   ar
    20    18    19    1
    21    19    20    2
    22    19    21    1
    23    18    22   ar
    24    14    22   ar
    25     5    23    1
    26     6    24    1
    27     7    25    1
    28     9    26    1
    29    10    27    1
    30    11    28    1
    31    12    29    1
    32    15    30    1
    33    16    31    1
    34    17    32    1
    35    21    33    1
    36    22    34    1
@<TRIPOS>MOLECULE
mol10_1_11
 34 36 0 0 0
SMALL
USER_CHARGES
****
VDW energy = 112.86
@<TRIPOS>ATOM
   1 O1       -6.9336     1.6698    -4.4784  O.2     1  <O>11      -0.2445
   2 C1       -5.8797     1.1987    -4.0775  C.2     1  <O>11       0.3445
   3 O2       -5.3500     1.6230    -2.9050  O.3     1  <O>11      -0.4217
   4 C2       -6.1640     2.5720    -2.3540  C.ar    1  <O>11       0.1396
   5 C3       -5.9490     3.9149    -2.6784  C.ar    1  <O>11      -0.0186
   6 C4       -6.7851     4.8935    -2.1474  C.ar    1  <O>11      -0.0577
   7 C5       -7.8153     4.5307    -1.2743  C.ar    1  <O>11      -0.0538
   8 C6       -8.0294     3.1875    -0.9269  C.ar    1  <O>11      -0.0144
   9 C7       -9.0564     2.8089    -0.0473  C.ar    1  <O>11      -0.0539
  10 C8       -9.2571     1.4666     0.2804  C.ar    1  <O>11      -0.0612
  11 C9       -8.4377     0.4864    -0.2694  C.ar    1  <O>11      -0.0611
  12 C10      -7.4130     0.8449    -1.1459  C.ar    1  <O>11      -0.0505
  13 C11      -7.1945     2.1912    -1.4801  C.ar    1  <O>11       0.0245
  14 C12      -5.1920     0.1800    -4.8610  C.ar    1  <O>11       0.0616
  15 C13      -4.5727    -0.9075    -4.2224  C.ar    1  <O>11      -0.0476
  16 C14      -3.9018    -1.8789    -4.9739  C.ar    1  <O>11      -0.0588
  17 C15      -3.8471    -1.7758    -6.3663  C.ar    1  <O>11      -0.0316
  18 C16      -4.4704    -0.6958    -7.0022  C.ar    1  <O>11       0.1224
  19 N1       -4.4127    -0.5962    -8.4385  N.4     1  <O>11       0.0060
  20 O3       -4.4456     0.8003    -8.8272  O.2     1  <O>11      -0.1300
  21 O4       -5.5483    -1.2863    -9.0164  O.2     1  <O>11      -0.3961
  22 C17      -5.1419     0.2769    -6.2609  C.ar    1  <O>11      -0.0176
  23 H1       -5.1752     4.1793    -3.3079  H       1  <O>11       0.0654
  24 H2       -6.6446     5.8847    -2.3977  H       1  <O>11       0.0619
  25 H3       -8.4276     5.2615    -0.8793  H       1  <O>11       0.0624
  26 H4       -9.6698     3.5310     0.3616  H       1  <O>11       0.0624
  27 H5      -10.0135     1.2018     0.9305  H       1  <O>11       0.0618
  28 H6       -8.5876    -0.5059    -0.0290  H       1  <O>11       0.0618
  29 H7       -6.8095     0.1132    -1.5526  H       1  <O>11       0.0625
  30 H8       -4.6127    -0.9904    -3.1945  H       1  <O>11       0.0626
  31 H9       -3.4463    -2.6735    -4.4984  H       1  <O>11       0.0618
  32 H10      -3.3509    -2.4903    -6.9215  H       1  <O>11       0.0640
  33 H11      -5.6706    -2.2017    -8.8578  H       1  <O>11       0.3292
  34 H12      -5.6011     1.0667    -6.7408  H       1  <O>11       0.0648
@<TRIPOS>BOND
     1     1     2    2
     2     2     3    1
     3     3     4    1
     4     4     5   ar
     5     5     6   ar
     6     6     7   ar
     7     7     8   ar
     8     8     9   ar
     9     9    10   ar
    10    10    11   ar
    11    11    12   ar
    12    12    13   ar
    13     4    13   ar
    14     8    13   ar
    15     2    14    1
    16    14    15   ar
    17    15    16   ar
    18    16    17   ar
    19    17    18   ar
    20    18    19    1
    21    19    20    2
    22    19    21    1
    23    18    22   ar
    24    14    22   ar
    25     5    23    1
    26     6    24    1
    27     7    25    1
    28     9    26    1
    29    10    27    1
    30    11    28    1
    31    12    29    1
    32    15    30    1
    33    16    31    1
    34    17    32    1
    35    21    33    1
    36    22    34    1
@<TRIPOS>MOLECULE
mol10_1_12
 34 36 0 0 0
SMALL
USER_CHARGES
****
VDW energy = 114.23
@<TRIPOS>ATOM
   1 O1       -6.9336     1.6698    -4.4784  O.2     1  <O>11      -0.2445
   2 C1       -5.8797     1.1987    -4.0775  C.2     1  <O>11       0.3445
   3 O2       -5.3500     1.6230    -2.9050  O.3     1  <O>11      -0.4217
   4 C2       -6.1640     2.5720    -2.3540  C.ar    1  <O>11       0.1396
   5 C3       -7.2216     2.1607    -1.5372  C.ar    1  <O>11      -0.0186
   6 C4       -8.0455     3.1147    -0.9458  C.ar    1  <O>11      -0.0577
   7 C5       -7.8268     4.4735    -1.1929  C.ar    1  <O>11      -0.0538
   8 C6       -6.7794     4.8977    -2.0258  C.ar    1  <O>11      -0.0144
   9 C7       -6.5512     6.2583    -2.2873  C.ar    1  <O>11      -0.0539
  10 C8       -5.4997     6.6599    -3.1133  C.ar    1  <O>11      -0.0612
  11 C9       -4.6613     5.7084    -3.6844  C.ar    1  <O>11      -0.0611
  12 C10      -4.8732     4.3521    -3.4345  C.ar    1  <O>11      -0.0505
  13 C11      -5.9304     3.9321    -2.6110  C.ar    1  <O>11       0.0245
  14 C12      -5.1920     0.1800    -4.8610  C.ar    1  <O>11       0.0616
  15 C13      -3.7918     0.1989    -4.9756  C.ar    1  <O>11      -0.0476
  16 C14      -3.1327    -0.7719    -5.7381  C.ar    1  <O>11      -0.0588
  17 C15      -3.8632    -1.7702    -6.3877  C.ar    1  <O>11      -0.0316
  18 C16      -5.2576    -1.7926    -6.2672  C.ar    1  <O>11       0.1224
  19 N1       -6.0053    -2.8259    -6.9373  N.4     1  <O>11       0.0060
  20 O3       -7.4245    -2.5703    -6.7858  O.2     1  <O>11      -0.1300
  21 O4       -5.6805    -4.1123    -6.3545  O.2     1  <O>11      -0.3961
  22 C17      -5.9230    -0.8289    -5.5086  C.ar    1  <O>11      -0.0176
  23 H1       -7.3907     1.1560    -1.3736  H       1  <O>11       0.0654
  24 H2       -8.8161     2.8194    -0.3262  H       1  <O>11       0.0619
  25 H3       -8.4449     5.1752    -0.7563  H       1  <O>11       0.0624
  26 H4       -7.1678     6.9694    -1.8641  H       1  <O>11       0.0624
  27 H5       -5.3445     7.6629    -3.3000  H       1  <O>11       0.0618
  28 H6       -3.8827     6.0055    -4.2930  H       1  <O>11       0.0618
  29 H7       -4.2466     3.6506    -3.8589  H       1  <O>11       0.0625
  30 H8       -3.2469     0.9321    -4.4954  H       1  <O>11       0.0626
  31 H9       -2.1042    -0.7504    -5.8208  H       1  <O>11       0.0618
  32 H10      -3.3785    -2.4855    -6.9520  H       1  <O>11       0.0640
  33 H11      -4.7972    -4.4248    -6.3716  H       1  <O>11       0.3292
  34 H12      -6.9510    -0.8576    -5.4237  H       1  <O>11       0.0648
@<TRIPOS>BOND
     1     1     2    2
     2     2     3    1
     3     3     4    1
     4     4     5   ar
     5     5     6   ar
     6     6     7   ar
     7     7     8   ar
     8     8     9   ar
     9     9    10   ar
    10    10    11   ar
    11    11    12   ar
    12    12    13   ar
    13     4    13   ar
    14     8    13   ar
    15     2    14    1
    16    14    15   ar
    17    15    16   ar
    18    16    17   ar
    19    17    18   ar
    20    18    19    1
    21    19    20    2
    22    19    21    1
    23    18    22   ar
    24    14    22   ar
    25     5    23    1
    26     6    24    1
    27     7    25    1
    28     9    26    1
    29    10    27    1
    30    11    28    1
    31    12    29    1
    32    15    30    1
    33    16    31    1
    34    17    32    1
    35    21    33    1
    36    22    34    1
@<TRIPOS>MOLECULE
mol10_1_13
 34 36 0 0 0
SMALL
USER_CHARGES
****
VDW energy = 116.10
@<TRIPOS>ATOM
   1 O1       -6.9336     1.6698    -4.4784  O.2     1  <O>11      -0.2445
   2 C1       -5.8797     1.1987    -4.0775  C.2     1  <O>11       0.3445
   3 O2       -5.3500     1.6230    -2.9050  O.3     1  <O>11      -0.4217
   4 C2       -6.1640     2.5720    -2.3540  C.ar    1  <O>11       0.1396
   5 C3       -7.2216     2.1607    -1.5372  C.ar    1  <O>11      -0.0186
   6 C4       -8.0455     3.1147    -0.9458  C.ar    1  <O>11      -0.0577
   7 C5       -7.8268     4.4735    -1.1929  C.ar    1  <O>11      -0.0538
   8 C6       -6.7794     4.8977    -2.0258  C.ar    1  <O>11      -0.0144
   9 C7       -6.5512     6.2583    -2.2873  C.ar    1  <O>11      -0.0539
  10 C8       -5.4997     6.6599    -3.1133  C.ar    1  <O>11      -0.0612
  11 C9       -4.6613     5.7084    -3.6844  C.ar    1  <O>11      -0.0611
  12 C10      -4.8732     4.3521    -3.4345  C.ar    1  <O>11      -0.0505
  13 C11      -5.9304     3.9321    -2.6110  C.ar    1  <O>11       0.0245
  14 C12      -5.1920     0.1800    -4.8610  C.ar    1  <O>11       0.0616
  15 C13      -5.4687    -1.1816    -4.6526  C.ar    1  <O>11      -0.0476
  16 C14      -4.7993    -2.1600    -5.3962  C.ar    1  <O>11      -0.0588
  17 C15      -3.8533    -1.7887    -6.3550  C.ar    1  <O>11      -0.0316
  18 C16      -3.5834    -0.4317    -6.5671  C.ar    1  <O>11       0.1224
  19 N1       -2.6086    -0.0547    -7.5590  N.4     1  <O>11       0.0060
  20 O3       -1.3227    -0.6293    -7.2149  O.2     1  <O>11      -0.1300
  21 O4       -2.4974     1.3895    -7.6022  O.2     1  <O>11      -0.3961
  22 C17      -4.2464     0.5505    -5.8306  C.ar    1  <O>11      -0.0176
  23 H1       -7.3907     1.1560    -1.3736  H       1  <O>11       0.0654
  24 H2       -8.8161     2.8194    -0.3262  H       1  <O>11       0.0619
  25 H3       -8.4449     5.1752    -0.7563  H       1  <O>11       0.0624
  26 H4       -7.1678     6.9694    -1.8641  H       1  <O>11       0.0624
  27 H5       -5.3445     7.6629    -3.3000  H       1  <O>11       0.0618
  28 H6       -3.8827     6.0055    -4.2930  H       1  <O>11       0.0618
  29 H7       -4.2466     3.6506    -3.8589  H       1  <O>11       0.0625
  30 H8       -6.1688    -1.4615    -3.9478  H       1  <O>11       0.0626
  31 H9       -5.0050    -3.1585    -5.2358  H       1  <O>11       0.0618
  32 H10      -3.3574    -2.5092    -6.9026  H       1  <O>11       0.0640
  33 H11      -3.2470     1.9111    -7.8119  H       1  <O>11       0.3292
  34 H12      -4.0421     1.5481    -5.9983  H       1  <O>11       0.0648
@<TRIPOS>BOND
     1     1     2    2
     2     2     3    1
     3     3     4    1
     4     4     5   ar
     5     5     6   ar
     6     6     7   ar
     7     7     8   ar
     8     8     9   ar
     9     9    10   ar
    10    10    11   ar
    11    11    12   ar
    12    12    13   ar
    13     4    13   ar
    14     8    13   ar
    15     2    14    1
    16    14    15   ar
    17    15    16   ar
    18    16    17   ar
    19    17    18   ar
    20    18    19    1
    21    19    20    2
    22    19    21    1
    23    18    22   ar
    24    14    22   ar
    25     5    23    1
    26     6    24    1
    27     7    25    1
    28     9    26    1
    29    10    27    1
    30    11    28    1
    31    12    29    1
    32    15    30    1
    33    16    31    1
    34    17    32    1
    35    21    33    1
    36    22    34    1
@<TRIPOS>MOLECULE
mol10_1_14
 34 36 0 0 0
SMALL
USER_CHARGES
****
VDW energy = 116.50
@<TRIPOS>ATOM
   1 O1       -6.9336     1.6698    -4.4784  O.2     1  <O>11      -0.2445
   2 C1       -5.8797     1.1987    -4.0775  C.2     1  <O>11       0.3445
   3 O2       -5.3500     1.6230    -2.9050  O.3     1  <O>11      -0.4217
   4 C2       -6.1640     2.5720    -2.3540  C.ar    1  <O>11       0.1396
   5 C3       -5.9490     3.9149    -2.6784  C.ar    1  <O>11      -0.0186
   6 C4       -6.7851     4.8935    -2.1474  C.ar    1  <O>11      -0.0577
   7 C5       -7.8153     4.5307    -1.2743  C.ar    1  <O>11      -0.0538
   8 C6       -8.0294     3.1875    -0.9269  C.ar    1  <O>11      -0.0144
   9 C7       -9.0564     2.8089    -0.0473  C.ar    1  <O>11      -0.0539
  10 C8       -9.2571     1.4666     0.2804  C.ar    1  <O>11      -0.0612
  11 C9       -8.4377     0.4864    -0.2694  C.ar    1  <O>11      -0.0611
  12 C10      -7.4130     0.8449    -1.1459  C.ar    1  <O>11      -0.0505
  13 C11      -7.1945     2.1912    -1.4801  C.ar    1  <O>11       0.0245
  14 C12      -5.1920     0.1800    -4.8610  C.ar    1  <O>11       0.0616
  15 C13      -5.3190    -1.1784    -4.5253  C.ar    1  <O>11      -0.0476
  16 C14      -4.6487    -2.1553    -5.2700  C.ar    1  <O>11      -0.0588
  17 C15      -3.8512    -1.7862    -6.3563  C.ar    1  <O>11      -0.0316
  18 C16      -3.7309    -0.4333    -6.6945  C.ar    1  <O>11       0.1224
  19 N1       -2.9091    -0.0589    -7.8172  N.4     1  <O>11       0.0060
  20 O3       -1.5463    -0.4957    -7.5849  O.2     1  <O>11      -0.1300
  21 O4       -2.9353     1.3812    -7.9759  O.2     1  <O>11      -0.3961
  22 C17      -4.3960     0.5474    -5.9579  C.ar    1  <O>11      -0.0176
  23 H1       -5.1752     4.1793    -3.3079  H       1  <O>11       0.0654
  24 H2       -6.6446     5.8847    -2.3977  H       1  <O>11       0.0619
  25 H3       -8.4276     5.2615    -0.8793  H       1  <O>11       0.0624
  26 H4       -9.6698     3.5310     0.3616  H       1  <O>11       0.0624
  27 H5      -10.0135     1.2018     0.9305  H       1  <O>11       0.0618
  28 H6       -8.5876    -0.5059    -0.0290  H       1  <O>11       0.0618
  29 H7       -6.8095     0.1132    -1.5526  H       1  <O>11       0.0625
  30 H8       -5.9093    -1.4570    -3.7259  H       1  <O>11       0.0626
  31 H9       -4.7437    -3.1511    -5.0162  H       1  <O>11       0.0618
  32 H10      -3.3547    -2.5055    -6.9050  H       1  <O>11       0.0640
  33 H11      -3.7478     1.8205    -8.1337  H       1  <O>11       0.3292
  34 H12      -4.3031     1.5415    -6.2188  H       1  <O>11       0.0648
@<TRIPOS>BOND
     1     1     2    2
     2     2     3    1
     3     3     4    1
     4     4     5   ar
     5     5     6   ar
     6     6     7   ar
     7     7     8   ar
     8     8     9   ar
     9     9    10   ar
    10    10    11   ar
    11    11    12   ar
    12    12    13   ar
    13     4    13   ar
    14     8    13   ar
    15     2    14    1
    16    14    15   ar
    17    15    16   ar
    18    16    17   ar
    19    17    18   ar
    20    18    19    1
    21    19    20    2
    22    19    21    1
    23    18    22   ar
    24    14    22   ar
    25     5    23    1
    26     6    24    1
    27     7    25    1
    28     9    26    1
    29    10    27    1
    30    11    28    1
    31    12    29    1
    32    15    30    1
    33    16    31    1
    34    17    32    1
    35    21    33    1
    36    22    34    1
@<TRIPOS>MOLECULE
mol10_1_15
 34 36 0 0 0
SMALL
USER_CHARGES
****
VDW energy = 116.53
@<TRIPOS>ATOM
   1 O1       -6.9336     1.6698    -4.4784  O.2     1  <O>11      -0.2445
   2 C1       -5.8797     1.1987    -4.0775  C.2     1  <O>11       0.3445
   3 O2       -5.3500     1.6230    -2.9050  O.3     1  <O>11      -0.4217
   4 C2       -6.1640     2.5720    -2.3540  C.ar    1  <O>11       0.1396
   5 C3       -5.9490     3.9149    -2.6784  C.ar    1  <O>11      -0.0186
   6 C4       -6.7851     4.8935    -2.1474  C.ar    1  <O>11      -0.0577
   7 C5       -7.8153     4.5307    -1.2743  C.ar    1  <O>11      -0.0538
   8 C6       -8.0294     3.1875    -0.9269  C.ar    1  <O>11      -0.0144
   9 C7       -9.0564     2.8089    -0.0473  C.ar    1  <O>11      -0.0539
  10 C8       -9.2571     1.4666     0.2804  C.ar    1  <O>11      -0.0612
  11 C9       -8.4377     0.4864    -0.2694  C.ar    1  <O>11      -0.0611
  12 C10      -7.4130     0.8449    -1.1459  C.ar    1  <O>11      -0.0505
  13 C11      -7.1945     2.1912    -1.4801  C.ar    1  <O>11       0.0245
  14 C12      -5.1920     0.1800    -4.8610  C.ar    1  <O>11       0.0616
  15 C13      -4.2462     0.5506    -5.8317  C.ar    1  <O>11      -0.0476
  16 C14      -3.5952    -0.4270    -6.5925  C.ar    1  <O>11      -0.0588
  17 C15      -3.8786    -1.7799    -6.3885  C.ar    1  <O>11      -0.0316
  18 C16      -4.8157    -2.1487    -5.4163  C.ar    1  <O>11       0.1224
  19 N1       -5.1020    -3.5454    -5.2088  N.4     1  <O>11       0.0060
  20 O3       -5.6110    -4.1217    -6.4381  O.2     1  <O>11      -0.1300
  21 O4       -6.0942    -3.6847    -4.1619  O.2     1  <O>11      -0.3961
  22 C17      -5.4692    -1.1807    -4.6529  C.ar    1  <O>11      -0.0176
  23 H1       -5.1752     4.1793    -3.3079  H       1  <O>11       0.0654
  24 H2       -6.6446     5.8847    -2.3977  H       1  <O>11       0.0619
  25 H3       -8.4276     5.2615    -0.8793  H       1  <O>11       0.0624
  26 H4       -9.6698     3.5310     0.3616  H       1  <O>11       0.0624
  27 H5      -10.0135     1.2018     0.9305  H       1  <O>11       0.0618
  28 H6       -8.5876    -0.5059    -0.0290  H       1  <O>11       0.0618
  29 H7       -6.8095     0.1132    -1.5526  H       1  <O>11       0.0625
  30 H8       -4.0307     1.5482    -5.9843  H       1  <O>11       0.0626
  31 H9       -2.9039    -0.1479    -7.3061  H       1  <O>11       0.0618
  32 H10      -3.4007    -2.5017    -6.9503  H       1  <O>11       0.0640
  33 H11      -5.9159    -3.3599    -3.3013  H       1  <O>11       0.3292
  34 H12      -6.1554    -1.4645    -3.9363  H       1  <O>11       0.0648
@<TRIPOS>BOND
     1     1     2    2
     2     2     3    1
     3     3     4    1
     4     4     5   ar
     5     5     6   ar
     6     6     7   ar
     7     7     8   ar
     8     8     9   ar
     9     9    10   ar
    10    10    11   ar
    11    11    12   ar
    12    12    13   ar
    13     4    13   ar
    14     8    13   ar
    15     2    14    1
    16    14    15   ar
    17    15    16   ar
    18    16    17   ar
    19    17    18   ar
    20    18    19    1
    21    19    20    2
    22    19    21    1
    23    18    22   ar
    24    14    22   ar
    25     5    23    1
    26     6    24    1
    27     7    25    1
    28     9    26    1
    29    10    27    1
    30    11    28    1
    31    12    29    1
    32    15    30    1
    33    16    31    1
    34    17    32    1
    35    21    33    1
    36    22    34    1
@<TRIPOS>MOLECULE
mol10_1_16
 34 36 0 0 0
SMALL
USER_CHARGES
****
VDW energy = 120.34
@<TRIPOS>ATOM
   1 O1       -6.9336     1.6698    -4.4784  O.2     1  <O>11      -0.2445
   2 C1       -5.8797     1.1987    -4.0775  C.2     1  <O>11       0.3445
   3 O2       -5.3500     1.6230    -2.9050  O.3     1  <O>11      -0.4217
   4 C2       -6.1640     2.5720    -2.3540  C.ar    1  <O>11       0.1396
   5 C3       -7.2216     2.1607    -1.5372  C.ar    1  <O>11      -0.0186
   6 C4       -8.0455     3.1147    -0.9458  C.ar    1  <O>11      -0.0577
   7 C5       -7.8268     4.4735    -1.1929  C.ar    1  <O>11      -0.0538
   8 C6       -6.7794     4.8977    -2.0258  C.ar    1  <O>11      -0.0144
   9 C7       -6.5512     6.2583    -2.2873  C.ar    1  <O>11      -0.0539
  10 C8       -5.4997     6.6599    -3.1133  C.ar    1  <O>11      -0.0612
  11 C9       -4.6613     5.7084    -3.6844  C.ar    1  <O>11      -0.0611
  12 C10      -4.8732     4.3521    -3.4345  C.ar    1  <O>11      -0.0505
  13 C11      -5.9304     3.9321    -2.6110  C.ar    1  <O>11       0.0245
  14 C12      -5.1920     0.1800    -4.8610  C.ar    1  <O>11       0.0616
  15 C13      -3.7918     0.1989    -4.9756  C.ar    1  <O>11      -0.0476
  16 C14      -3.1327    -0.7719    -5.7381  C.ar    1  <O>11      -0.0588
  17 C15      -3.8632    -1.7702    -6.3877  C.ar    1  <O>11      -0.0316
  18 C16      -5.2576    -1.7926    -6.2672  C.ar    1  <O>11       0.1224
  19 N1       -6.0053    -2.8259    -6.9373  N.4     1  <O>11       0.0060
  20 O3       -5.7675    -2.7452    -8.3652  O.2     1  <O>11      -0.1300
  21 O4       -7.4188    -2.6488    -6.6713  O.2     1  <O>11      -0.3961
  22 C17      -5.9230    -0.8289    -5.5086  C.ar    1  <O>11      -0.0176
  23 H1       -7.3907     1.1560    -1.3736  H       1  <O>11       0.0654
  24 H2       -8.8161     2.8194    -0.3262  H       1  <O>11       0.0619
  25 H3       -8.4449     5.1752    -0.7563  H       1  <O>11       0.0624
  26 H4       -7.1678     6.9694    -1.8641  H       1  <O>11       0.0624
  27 H5       -5.3445     7.6629    -3.3000  H       1  <O>11       0.0618
  28 H6       -3.8827     6.0055    -4.2930  H       1  <O>11       0.0618
  29 H7       -4.2466     3.6506    -3.8589  H       1  <O>11       0.0625
  30 H8       -3.2469     0.9321    -4.4954  H       1  <O>11       0.0626
  31 H9       -2.1042    -0.7504    -5.8208  H       1  <O>11       0.0618
  32 H10      -3.3785    -2.4855    -6.9520  H       1  <O>11       0.0640
  33 H11      -7.7366    -2.6746    -5.7902  H       1  <O>11       0.3292
  34 H12      -6.9510    -0.8576    -5.4237  H       1  <O>11       0.0648
@<TRIPOS>BOND
     1     1     2    2
     2     2     3    1
     3     3     4    1
     4     4     5   ar
     5     5     6   ar
     6     6     7   ar
     7     7     8   ar
     8     8     9   ar
     9     9    10   ar
    10    10    11   ar
    11    11    12   ar
    12    12    13   ar
    13     4    13   ar
    14     8    13   ar
    15     2    14    1
    16    14    15   ar
    17    15    16   ar
    18    16    17   ar
    19    17    18   ar
    20    18    19    1
    21    19    20    2
    22    19    21    1
    23    18    22   ar
    24    14    22   ar
    25     5    23    1
    26     6    24    1
    27     7    25    1
    28     9    26    1
    29    10    27    1
    30    11    28    1
    31    12    29    1
    32    15    30    1
    33    16    31    1
    34    17    32    1
    35    21    33    1
    36    22    34    1
@<TRIPOS>MOLECULE
mol10_1_17
 34 36 0 0 0
SMALL
USER_CHARGES
****
VDW energy = 122.44
@<TRIPOS>ATOM
   1 O1       -6.9336     1.6698    -4.4784  O.2     1  <O>11      -0.2445
   2 C1       -5.8797     1.1987    -4.0775  C.2     1  <O>11       0.3445
   3 O2       -5.3500     1.6230    -2.9050  O.3     1  <O>11      -0.4217
   4 C2       -4.1798     0.9592    -2.6668  C.ar    1  <O>11       0.1396
   5 C3       -4.2201    -0.2434    -1.9547  C.ar    1  <O>11      -0.0186
   6 C4       -3.0408    -0.9471    -1.7254  C.ar    1  <O>11      -0.0577
   7 C5       -1.8233    -0.4349    -2.1844  C.ar    1  <O>11      -0.0538
   8 C6       -1.7681     0.7806    -2.8845  C.ar    1  <O>11      -0.0144
   9 C7       -0.5524     1.3098    -3.3467  C.ar    1  <O>11      -0.0539
  10 C8       -0.5196     2.5172    -4.0471  C.ar    1  <O>11      -0.0612
  11 C9       -1.7004     3.2081    -4.2980  C.ar    1  <O>11      -0.0611
  12 C10      -2.9174     2.6961    -3.8467  C.ar    1  <O>11      -0.0505
  13 C11      -2.9660     1.4863    -3.1353  C.ar    1  <O>11       0.0245
  14 C12      -5.1920     0.1800    -4.8610  C.ar    1  <O>11       0.0616
  15 C13      -5.3190    -1.1784    -4.5253  C.ar    1  <O>11      -0.0476
  16 C14      -4.6487    -2.1553    -5.2700  C.ar    1  <O>11      -0.0588
  17 C15      -3.8512    -1.7862    -6.3563  C.ar    1  <O>11      -0.0316
  18 C16      -3.7309    -0.4333    -6.6945  C.ar    1  <O>11       0.1224
  19 N1       -2.9091    -0.0589    -7.8172  N.4     1  <O>11       0.0060
  20 O3       -3.3195    -0.8100    -8.9876  O.2     1  <O>11      -0.1300
  21 O4       -1.5213    -0.3494    -7.5180  O.2     1  <O>11      -0.3961
  22 C17      -4.3960     0.5474    -5.9579  C.ar    1  <O>11      -0.0176
  23 H1       -5.1187    -0.6073    -1.6012  H       1  <O>11       0.0654
  24 H2       -3.0653    -1.8451    -1.2175  H       1  <O>11       0.0619
  25 H3       -0.9521    -0.9584    -2.0057  H       1  <O>11       0.0624
  26 H4        0.3269     0.8006    -3.1665  H       1  <O>11       0.0624
  27 H5        0.3807     2.8970    -4.3788  H       1  <O>11       0.0618
  28 H6       -1.6764     4.0992    -4.8178  H       1  <O>11       0.0618
  29 H7       -3.7907     3.2117    -4.0377  H       1  <O>11       0.0625
  30 H8       -5.9093    -1.4570    -3.7259  H       1  <O>11       0.0626
  31 H9       -4.7437    -3.1511    -5.0162  H       1  <O>11       0.0618
  32 H10      -3.3547    -2.5055    -6.9050  H       1  <O>11       0.0640
  33 H11      -1.1043     0.0603    -6.7857  H       1  <O>11       0.3292
  34 H12      -4.3031     1.5415    -6.2188  H       1  <O>11       0.0648
@<TRIPOS>BOND
     1     1     2    2
     2     2     3    1
     3     3     4    1
     4     4     5   ar
     5     5     6   ar
     6     6     7   ar
     7     7     8   ar
     8     8     9   ar
     9     9    10   ar
    10    10    11   ar
    11    11    12   ar
    12    12    13   ar
    13     4    13   ar
    14     8    13   ar
    15     2    14    1
    16    14    15   ar
    17    15    16   ar
    18    16    17   ar
    19    17    18   ar
    20    18    19    1
    21    19    20    2
    22    19    21    1
    23    18    22   ar
    24    14    22   ar
    25     5    23    1
    26     6    24    1
    27     7    25    1
    28     9    26    1
    29    10    27    1
    30    11    28    1
    31    12    29    1
    32    15    30    1
    33    16    31    1
    34    17    32    1
    35    21    33    1
    36    22    34    1
@<TRIPOS>MOLECULE
mol10_1_18
 34 36 0 0 0
SMALL
USER_CHARGES
****
VDW energy = 123.61
@<TRIPOS>ATOM
   1 O1       -6.9336     1.6698    -4.4784  O.2     1  <O>11      -0.2445
   2 C1       -5.8797     1.1987    -4.0775  C.2     1  <O>11       0.3445
   3 O2       -5.3500     1.6230    -2.9050  O.3     1  <O>11      -0.4217
   4 C2       -4.1798     0.9592    -2.6668  C.ar    1  <O>11       0.1396
   5 C3       -4.2201    -0.2434    -1.9547  C.ar    1  <O>11      -0.0186
   6 C4       -3.0408    -0.9471    -1.7254  C.ar    1  <O>11      -0.0577
   7 C5       -1.8233    -0.4349    -2.1844  C.ar    1  <O>11      -0.0538
   8 C6       -1.7681     0.7806    -2.8845  C.ar    1  <O>11      -0.0144
   9 C7       -0.5524     1.3098    -3.3467  C.ar    1  <O>11      -0.0539
  10 C8       -0.5196     2.5172    -4.0471  C.ar    1  <O>11      -0.0612
  11 C9       -1.7004     3.2081    -4.2980  C.ar    1  <O>11      -0.0611
  12 C10      -2.9174     2.6961    -3.8467  C.ar    1  <O>11      -0.0505
  13 C11      -2.9660     1.4863    -3.1353  C.ar    1  <O>11       0.0245
  14 C12      -5.1920     0.1800    -4.8610  C.ar    1  <O>11       0.0616
  15 C13      -5.3190    -1.1784    -4.5253  C.ar    1  <O>11      -0.0476
  16 C14      -4.6487    -2.1553    -5.2700  C.ar    1  <O>11      -0.0588
  17 C15      -3.8512    -1.7862    -6.3563  C.ar    1  <O>11      -0.0316
  18 C16      -3.7309    -0.4333    -6.6945  C.ar    1  <O>11       0.1224
  19 N1       -2.9091    -0.0589    -7.8172  N.4     1  <O>11       0.0060
  20 O3       -2.9137    -1.1280    -8.7967  O.2     1  <O>11      -0.1300
  21 O4       -1.5528     0.1775    -7.3653  O.2     1  <O>11      -0.3961
  22 C17      -4.3960     0.5474    -5.9579  C.ar    1  <O>11      -0.0176
  23 H1       -5.1187    -0.6073    -1.6012  H       1  <O>11       0.0654
  24 H2       -3.0653    -1.8451    -1.2175  H       1  <O>11       0.0619
  25 H3       -0.9521    -0.9584    -2.0057  H       1  <O>11       0.0624
  26 H4        0.3269     0.8006    -3.1665  H       1  <O>11       0.0624
  27 H5        0.3807     2.8970    -4.3788  H       1  <O>11       0.0618
  28 H6       -1.6764     4.0992    -4.8178  H       1  <O>11       0.0618
  29 H7       -3.7907     3.2117    -4.0377  H       1  <O>11       0.0625
  30 H8       -5.9093    -1.4570    -3.7259  H       1  <O>11       0.0626
  31 H9       -4.7437    -3.1511    -5.0162  H       1  <O>11       0.0618
  32 H10      -3.3547    -2.5055    -6.9050  H       1  <O>11       0.0640
  33 H11      -1.3805     0.8418    -6.7273  H       1  <O>11       0.3292
  34 H12      -4.3031     1.5415    -6.2188  H       1  <O>11       0.0648
@<TRIPOS>BOND
     1     1     2    2
     2     2     3    1
     3     3     4    1
     4     4     5   ar
     5     5     6   ar
     6     6     7   ar
     7     7     8   ar
     8     8     9   ar
     9     9    10   ar
    10    10    11   ar
    11    11    12   ar
    12    12    13   ar
    13     4    13   ar
    14     8    13   ar
    15     2    14    1
    16    14    15   ar
    17    15    16   ar
    18    16    17   ar
    19    17    18   ar
    20    18    19    1
    21    19    20    2
    22    19    21    1
    23    18    22   ar
    24    14    22   ar
    25     5    23    1
    26     6    24    1
    27     7    25    1
    28     9    26    1
    29    10    27    1
    30    11    28    1
    31    12    29    1
    32    15    30    1
    33    16    31    1
    34    17    32    1
    35    21    33    1
    36    22    34    1
@<TRIPOS>MOLECULE
mol10_1_19
 34 36 0 0 0
SMALL
USER_CHARGES
****
VDW energy = 123.62
@<TRIPOS>ATOM
   1 O1       -6.9336     1.6698    -4.4784  O.2     1  <O>11      -0.2445
   2 C1       -5.8797     1.1987    -4.0775  C.2     1  <O>11       0.3445
   3 O2       -5.3500     1.6230    -2.9050  O.3     1  <O>11      -0.4217
   4 C2       -6.1640     2.5720    -2.3540  C.ar    1  <O>11       0.1396
   5 C3       -6.7158     2.3357    -1.0912  C.ar    1  <O>11      -0.0186
   6 C4       -7.5263     3.3026    -0.5026  C.ar    1  <O>11      -0.0577
   7 C5       -7.8041     4.4898    -1.1873  C.ar    1  <O>11      -0.0538
   8 C6       -7.2706     4.7304    -2.4633  C.ar    1  <O>11      -0.0144
   9 C7       -7.5452     5.9153    -3.1650  C.ar    1  <O>11      -0.0539
  10 C8       -6.9992     6.1385    -4.4305  C.ar    1  <O>11      -0.0612
  11 C9       -6.1695     5.1834    -5.0083  C.ar    1  <O>11      -0.0611
  12 C10      -5.8854     4.0008    -4.3247  C.ar    1  <O>11      -0.0505
  13 C11      -6.4321     3.7589    -3.0539  C.ar    1  <O>11       0.0245
  14 C12      -5.1920     0.1800    -4.8610  C.ar    1  <O>11       0.0616
  15 C13      -4.5727    -0.9075    -4.2224  C.ar    1  <O>11      -0.0476
  16 C14      -3.9018    -1.8789    -4.9739  C.ar    1  <O>11      -0.0588
  17 C15      -3.8471    -1.7758    -6.3663  C.ar    1  <O>11      -0.0316
  18 C16      -4.4704    -0.6958    -7.0022  C.ar    1  <O>11       0.1224
  19 N1       -4.4127    -0.5962    -8.4385  N.4     1  <O>11       0.0060
  20 O3       -4.9052    -1.8259    -9.0279  O.2     1  <O>11      -0.1300
  21 O4       -3.0415    -0.3763    -8.8525  O.2     1  <O>11      -0.3961
  22 C17      -5.1419     0.2769    -6.2609  C.ar    1  <O>11      -0.0176
  23 H1       -6.5235     1.4496    -0.5984  H       1  <O>11       0.0654
  24 H2       -7.9213     3.1435     0.4374  H       1  <O>11       0.0619
  25 H3       -8.4106     5.1998    -0.7480  H       1  <O>11       0.0624
  26 H4       -8.1576     6.6293    -2.7405  H       1  <O>11       0.0624
  27 H5       -7.2113     7.0121    -4.9371  H       1  <O>11       0.0618
  28 H6       -5.7641     5.3495    -5.9427  H       1  <O>11       0.0618
  29 H7       -5.2673     3.2967    -4.7572  H       1  <O>11       0.0625
  30 H8       -4.6127    -0.9904    -3.1945  H       1  <O>11       0.0626
  31 H9       -3.4463    -2.6735    -4.4984  H       1  <O>11       0.0618
  32 H10      -3.3509    -2.4903    -6.9215  H       1  <O>11       0.0640
  33 H11      -2.5778     0.3813    -8.5543  H       1  <O>11       0.3292
  34 H12      -5.6011     1.0667    -6.7408  H       1  <O>11       0.0648
@<TRIPOS>BOND
     1     1     2    2
     2     2     3    1
     3     3     4    1
     4     4     5   ar
     5     5     6   ar
     6     6     7   ar
     7     7     8   ar
     8     8     9   ar
     9     9    10   ar
    10    10    11   ar
    11    11    12   ar
    12    12    13   ar
    13     4    13   ar
    14     8    13   ar
    15     2    14    1
    16    14    15   ar
    17    15    16   ar
    18    16    17   ar
    19    17    18   ar
    20    18    19    1
    21    19    20    2
    22    19    21    1
    23    18    22   ar
    24    14    22   ar
    25     5    23    1
    26     6    24    1
    27     7    25    1
    28     9    26    1
    29    10    27    1
    30    11    28    1
    31    12    29    1
    32    15    30    1
    33    16    31    1
    34    17    32    1
    35    21    33    1
    36    22    34    1
@<TRIPOS>MOLECULE
mol10_1_20
 34 36 0 0 0
SMALL
USER_CHARGES
****
VDW energy = 123.73
@<TRIPOS>ATOM
   1 O1       -6.9336     1.6698    -4.4784  O.2     1  <O>11      -0.2445
   2 C1       -5.8797     1.1987    -4.0775  C.2     1  <O>11       0.3445
   3 O2       -5.3500     1.6230    -2.9050  O.3     1  <O>11      -0.4217
   4 C2       -4.1798     0.9592    -2.6668  C.ar    1  <O>11       0.1396
   5 C3       -2.9932     1.4732    -3.1987  C.ar    1  <O>11      -0.0186
   6 C4       -1.7876     0.8250    -2.9443  C.ar    1  <O>11      -0.0577
   7 C5       -1.7742    -0.3476    -2.1826  C.ar    1  <O>11      -0.0538
   8 C6       -2.9614    -0.8832    -1.6587  C.ar    1  <O>11      -0.0144
   9 C7       -2.9640    -2.0626    -0.8967  C.ar    1  <O>11      -0.0539
  10 C8       -4.1549    -2.5754    -0.3788  C.ar    1  <O>11      -0.0612
  11 C9       -5.3563    -1.9145    -0.6119  C.ar    1  <O>11      -0.0611
  12 C10      -5.3718    -0.7408    -1.3662  C.ar    1  <O>11      -0.0505
  13 C11      -4.1832    -0.2161    -1.8992  C.ar    1  <O>11       0.0245
  14 C12      -5.1920     0.1800    -4.8610  C.ar    1  <O>11       0.0616
  15 C13      -5.3190    -1.1784    -4.5253  C.ar    1  <O>11      -0.0476
  16 C14      -4.6487    -2.1553    -5.2700  C.ar    1  <O>11      -0.0588
  17 C15      -3.8512    -1.7862    -6.3563  C.ar    1  <O>11      -0.0316
  18 C16      -3.7309    -0.4333    -6.6945  C.ar    1  <O>11       0.1224
  19 N1       -2.9091    -0.0589    -7.8172  N.4     1  <O>11       0.0060
  20 O3       -3.3195    -0.8100    -8.9876  O.2     1  <O>11      -0.1300
  21 O4       -1.5213    -0.3494    -7.5180  O.2     1  <O>11      -0.3961
  22 C17      -4.3960     0.5474    -5.9579  C.ar    1  <O>11      -0.0176
  23 H1       -3.0110     2.3281    -3.7764  H       1  <O>11       0.0654
  24 H2       -0.9054     1.2092    -3.3173  H       1  <O>11       0.0619
  25 H3       -0.8779    -0.8266    -2.0029  H       1  <O>11       0.0624
  26 H4       -2.0755    -2.5561    -0.7175  H       1  <O>11       0.0624
  27 H5       -4.1437    -3.4447     0.1770  H       1  <O>11       0.0618
  28 H6       -6.2361    -2.2923    -0.2271  H       1  <O>11       0.0618
  29 H7       -6.2657    -0.2533    -1.5340  H       1  <O>11       0.0625
  30 H8       -5.9093    -1.4570    -3.7259  H       1  <O>11       0.0626
  31 H9       -4.7437    -3.1511    -5.0162  H       1  <O>11       0.0618
  32 H10      -3.3547    -2.5055    -6.9050  H       1  <O>11       0.0640
  33 H11      -1.1043     0.0603    -6.7857  H       1  <O>11       0.3292
  34 H12      -4.3031     1.5415    -6.2188  H       1  <O>11       0.0648
@<TRIPOS>BOND
     1     1     2    2
     2     2     3    1
     3     3     4    1
     4     4     5   ar
     5     5     6   ar
     6     6     7   ar
     7     7     8   ar
     8     8     9   ar
     9     9    10   ar
    10    10    11   ar
    11    11    12   ar
    12    12    13   ar
    13     4    13   ar
    14     8    13   ar
    15     2    14    1
    16    14    15   ar
    17    15    16   ar
    18    16    17   ar
    19    17    18   ar
    20    18    19    1
    21    19    20    2
    22    19    21    1
    23    18    22   ar
    24    14    22   ar
    25     5    23    1
    26     6    24    1
    27     7    25    1
    28     9    26    1
    29    10    27    1
    30    11    28    1
    31    12    29    1
    32    15    30    1
    33    16    31    1
    34    17    32    1
    35    21    33    1
    36    22    34    1
@<TRIPOS>MOLECULE
mol10_1_21
 34 36 0 0 0
SMALL
USER_CHARGES
****
VDW energy = 124.31
@<TRIPOS>ATOM
   1 O1       -6.9336     1.6698    -4.4784  O.2     1  <O>11      -0.2445
   2 C1       -5.8797     1.1987    -4.0775  C.2     1  <O>11       0.3445
   3 O2       -5.3500     1.6230    -2.9050  O.3     1  <O>11      -0.4217
   4 C2       -6.1640     2.5720    -2.3540  C.ar    1  <O>11       0.1396
   5 C3       -5.6482     3.8510    -2.1239  C.ar    1  <O>11      -0.0186
   6 C4       -6.4704     4.8384    -1.5876  C.ar    1  <O>11      -0.0577
   7 C5       -7.7960     4.5383    -1.2588  C.ar    1  <O>11      -0.0538
   8 C6       -8.3198     3.2528    -1.4683  C.ar    1  <O>11      -0.0144
   9 C7       -9.6471     2.9355    -1.1380  C.ar    1  <O>11      -0.0539
  10 C8      -10.1511     1.6526    -1.3606  C.ar    1  <O>11      -0.0612
  11 C9       -9.3372     0.6728    -1.9192  C.ar    1  <O>11      -0.0611
  12 C10      -8.0160     0.9712    -2.2542  C.ar    1  <O>11      -0.0505
  13 C11      -7.4927     2.2550    -2.0306  C.ar    1  <O>11       0.0245
  14 C12      -5.1920     0.1800    -4.8610  C.ar    1  <O>11       0.0616
  15 C13      -3.7918     0.1989    -4.9756  C.ar    1  <O>11      -0.0476
  16 C14      -3.1327    -0.7719    -5.7381  C.ar    1  <O>11      -0.0588
  17 C15      -3.8632    -1.7702    -6.3877  C.ar    1  <O>11      -0.0316
  18 C16      -5.2576    -1.7926    -6.2672  C.ar    1  <O>11       0.1224
  19 N1       -6.0053    -2.8259    -6.9373  N.4     1  <O>11       0.0060
  20 O3       -5.4877    -4.1241    -6.5511  O.2     1  <O>11      -0.1300
  21 O4       -5.8781    -2.6613    -8.3713  O.2     1  <O>11      -0.3961
  22 C17      -5.9230    -0.8289    -5.5086  C.ar    1  <O>11      -0.0176
  23 H1       -4.6637     4.0620    -2.3502  H       1  <O>11       0.0654
  24 H2       -6.1022     5.7899    -1.4331  H       1  <O>11       0.0619
  25 H3       -8.3984     5.2730    -0.8559  H       1  <O>11       0.0624
  26 H4      -10.2571     3.6588    -0.7261  H       1  <O>11       0.0624
  27 H5      -11.1275     1.4313    -1.1106  H       1  <O>11       0.0618
  28 H6       -9.7105    -0.2748    -2.0859  H       1  <O>11       0.0618
  29 H7       -7.4173     0.2410    -2.6706  H       1  <O>11       0.0625
  30 H8       -3.2469     0.9321    -4.4954  H       1  <O>11       0.0626
  31 H9       -2.1042    -0.7504    -5.8208  H       1  <O>11       0.0618
  32 H10      -3.3785    -2.4855    -6.9520  H       1  <O>11       0.0640
  33 H11      -6.1696    -1.8700    -8.7798  H       1  <O>11       0.3292
  34 H12      -6.9510    -0.8576    -5.4237  H       1  <O>11       0.0648
@<TRIPOS>BOND
     1     1     2    2
     2     2     3    1
     3     3     4    1
     4     4     5   ar
     5     5     6   ar
     6     6     7   ar
     7     7     8   ar
     8     8     9   ar
     9     9    10   ar
    10    10    11   ar
    11    11    12   ar
    12    12    13   ar
    13     4    13   ar
    14     8    13   ar
    15     2    14    1
    16    14    15   ar
    17    15    16   ar
    18    16    17   ar
    19    17    18   ar
    20    18    19    1
    21    19    20    2
    22    19    21    1
    23    18    22   ar
    24    14    22   ar
    25     5    23    1
    26     6    24    1
    27     7    25    1
    28     9    26    1
    29    10    27    1
    30    11    28    1
    31    12    29    1
    32    15    30    1
    33    16    31    1
    34    17    32    1
    35    21    33    1
    36    22    34    1
@<TRIPOS>MOLECULE
mol10_1_22
 34 36 0 0 0
SMALL
USER_CHARGES
****
VDW energy = 124.72
@<TRIPOS>ATOM
   1 O1       -6.9336     1.6698    -4.4784  O.2     1  <O>11      -0.2445
   2 C1       -5.8797     1.1987    -4.0775  C.2     1  <O>11       0.3445
   3 O2       -5.3500     1.6230    -2.9050  O.3     1  <O>11      -0.4217
   4 C2       -6.1640     2.5720    -2.3540  C.ar    1  <O>11       0.1396
   5 C3       -6.7158     2.3357    -1.0912  C.ar    1  <O>11      -0.0186
   6 C4       -7.5263     3.3026    -0.5026  C.ar    1  <O>11      -0.0577
   7 C5       -7.8041     4.4898    -1.1873  C.ar    1  <O>11      -0.0538
   8 C6       -7.2706     4.7304    -2.4633  C.ar    1  <O>11      -0.0144
   9 C7       -7.5452     5.9153    -3.1650  C.ar    1  <O>11      -0.0539
  10 C8       -6.9992     6.1385    -4.4305  C.ar    1  <O>11      -0.0612
  11 C9       -6.1695     5.1834    -5.0083  C.ar    1  <O>11      -0.0611
  12 C10      -5.8854     4.0008    -4.3247  C.ar    1  <O>11      -0.0505
  13 C11      -6.4321     3.7589    -3.0539  C.ar    1  <O>11       0.0245
  14 C12      -5.1920     0.1800    -4.8610  C.ar    1  <O>11       0.0616
  15 C13      -3.7918     0.1989    -4.9756  C.ar    1  <O>11      -0.0476
  16 C14      -3.1327    -0.7719    -5.7381  C.ar    1  <O>11      -0.0588
  17 C15      -3.8632    -1.7702    -6.3877  C.ar    1  <O>11      -0.0316
  18 C16      -5.2576    -1.7926    -6.2672  C.ar    1  <O>11       0.1224
  19 N1       -6.0053    -2.8259    -6.9373  N.4     1  <O>11       0.0060
  20 O3       -5.4877    -4.1241    -6.5511  O.2     1  <O>11      -0.1300
  21 O4       -5.8781    -2.6613    -8.3713  O.2     1  <O>11      -0.3961
  22 C17      -5.9230    -0.8289    -5.5086  C.ar    1  <O>11      -0.0176
  23 H1       -6.5235     1.4496    -0.5984  H       1  <O>11       0.0654
  24 H2       -7.9213     3.1435     0.4374  H       1  <O>11       0.0619
  25 H3       -8.4106     5.1998    -0.7480  H       1  <O>11       0.0624
  26 H4       -8.1576     6.6293    -2.7405  H       1  <O>11       0.0624
  27 H5       -7.2113     7.0121    -4.9371  H       1  <O>11       0.0618
  28 H6       -5.7641     5.3495    -5.9427  H       1  <O>11       0.0618
  29 H7       -5.2673     3.2967    -4.7572  H       1  <O>11       0.0625
  30 H8       -3.2469     0.9321    -4.4954  H       1  <O>11       0.0626
  31 H9       -2.1042    -0.7504    -5.8208  H       1  <O>11       0.0618
  32 H10      -3.3785    -2.4855    -6.9520  H       1  <O>11       0.0640
  33 H11      -6.1696    -1.8700    -8.7798  H       1  <O>11       0.3292
  34 H12      -6.9510    -0.8576    -5.4237  H       1  <O>11       0.0648
@<TRIPOS>BOND
     1     1     2    2
     2     2     3    1
     3     3     4    1
     4     4     5   ar
     5     5     6   ar
     6     6     7   ar
     7     7     8   ar
     8     8     9   ar
     9     9    10   ar
    10    10    11   ar
    11    11    12   ar
    12    12    13   ar
    13     4    13   ar
    14     8    13   ar
    15     2    14    1
    16    14    15   ar
    17    15    16   ar
    18    16    17   ar
    19    17    18   ar
    20    18    19    1
    21    19    20    2
    22    19    21    1
    23    18    22   ar
    24    14    22   ar
    25     5    23    1
    26     6    24    1
    27     7    25    1
    28     9    26    1
    29    10    27    1
    30    11    28    1
    31    12    29    1
    32    15    30    1
    33    16    31    1
    34    17    32    1
    35    21    33    1
    36    22    34    1
@<TRIPOS>MOLECULE
mol10_1_23
 34 36 0 0 0
SMALL
USER_CHARGES
****
VDW energy = 124.93
@<TRIPOS>ATOM
   1 O1       -6.9336     1.6698    -4.4784  O.2     1  <O>11      -0.2445
   2 C1       -5.8797     1.1987    -4.0775  C.2     1  <O>11       0.3445
   3 O2       -5.3500     1.6230    -2.9050  O.3     1  <O>11      -0.4217
   4 C2       -4.1798     0.9592    -2.6668  C.ar    1  <O>11       0.1396
   5 C3       -2.9932     1.4732    -3.1987  C.ar    1  <O>11      -0.0186
   6 C4       -1.7876     0.8250    -2.9443  C.ar    1  <O>11      -0.0577
   7 C5       -1.7742    -0.3476    -2.1826  C.ar    1  <O>11      -0.0538
   8 C6       -2.9614    -0.8832    -1.6587  C.ar    1  <O>11      -0.0144
   9 C7       -2.9640    -2.0626    -0.8967  C.ar    1  <O>11      -0.0539
  10 C8       -4.1549    -2.5754    -0.3788  C.ar    1  <O>11      -0.0612
  11 C9       -5.3563    -1.9145    -0.6119  C.ar    1  <O>11      -0.0611
  12 C10      -5.3718    -0.7408    -1.3662  C.ar    1  <O>11      -0.0505
  13 C11      -4.1832    -0.2161    -1.8992  C.ar    1  <O>11       0.0245
  14 C12      -5.1920     0.1800    -4.8610  C.ar    1  <O>11       0.0616
  15 C13      -5.3190    -1.1784    -4.5253  C.ar    1  <O>11      -0.0476
  16 C14      -4.6487    -2.1553    -5.2700  C.ar    1  <O>11      -0.0588
  17 C15      -3.8512    -1.7862    -6.3563  C.ar    1  <O>11      -0.0316
  18 C16      -3.7309    -0.4333    -6.6945  C.ar    1  <O>11       0.1224
  19 N1       -2.9091    -0.0589    -7.8172  N.4     1  <O>11       0.0060
  20 O3       -2.9137    -1.1280    -8.7967  O.2     1  <O>11      -0.1300
  21 O4       -1.5528     0.1775    -7.3653  O.2     1  <O>11      -0.3961
  22 C17      -4.3960     0.5474    -5.9579  C.ar    1  <O>11      -0.0176
  23 H1       -3.0110     2.3281    -3.7764  H       1  <O>11       0.0654
  24 H2       -0.9054     1.2092    -3.3173  H       1  <O>11       0.0619
  25 H3       -0.8779    -0.8266    -2.0029  H       1  <O>11       0.0624
  26 H4       -2.0755    -2.5561    -0.7175  H       1  <O>11       0.0624
  27 H5       -4.1437    -3.4447     0.1770  H       1  <O>11       0.0618
  28 H6       -6.2361    -2.2923    -0.2271  H       1  <O>11       0.0618
  29 H7       -6.2657    -0.2533    -1.5340  H       1  <O>11       0.0625
  30 H8       -5.9093    -1.4570    -3.7259  H       1  <O>11       0.0626
  31 H9       -4.7437    -3.1511    -5.0162  H       1  <O>11       0.0618
  32 H10      -3.3547    -2.5055    -6.9050  H       1  <O>11       0.0640
  33 H11      -1.3805     0.8418    -6.7273  H       1  <O>11       0.3292
  34 H12      -4.3031     1.5415    -6.2188  H       1  <O>11       0.0648
@<TRIPOS>BOND
     1     1     2    2
     2     2     3    1
     3     3     4    1
     4     4     5   ar
     5     5     6   ar
     6     6     7   ar
     7     7     8   ar
     8     8     9   ar
     9     9    10   ar
    10    10    11   ar
    11    11    12   ar
    12    12    13   ar
    13     4    13   ar
    14     8    13   ar
    15     2    14    1
    16    14    15   ar
    17    15    16   ar
    18    16    17   ar
    19    17    18   ar
    20    18    19    1
    21    19    20    2
    22    19    21    1
    23    18    22   ar
    24    14    22   ar
    25     5    23    1
    26     6    24    1
    27     7    25    1
    28     9    26    1
    29    10    27    1
    30    11    28    1
    31    12    29    1
    32    15    30    1
    33    16    31    1
    34    17    32    1
    35    21    33    1
    36    22    34    1
@<TRIPOS>MOLECULE
mol10_1_24
 34 36 0 0 0
SMALL
USER_CHARGES
****
VDW energy = 126.24
@<TRIPOS>ATOM
   1 O1       -6.9336     1.6698    -4.4784  O.2     1  <O>11      -0.2445
   2 C1       -5.8797     1.1987    -4.0775  C.2     1  <O>11       0.3445
   3 O2       -5.3500     1.6230    -2.9050  O.3     1  <O>11      -0.4217
   4 C2       -4.1798     0.9592    -2.6668  C.ar    1  <O>11       0.1396
   5 C3       -2.9932     1.4732    -3.1987  C.ar    1  <O>11      -0.0186
   6 C4       -1.7876     0.8250    -2.9443  C.ar    1  <O>11      -0.0577
   7 C5       -1.7742    -0.3476    -2.1826  C.ar    1  <O>11      -0.0538
   8 C6       -2.9614    -0.8832    -1.6587  C.ar    1  <O>11      -0.0144
   9 C7       -2.9640    -2.0626    -0.8967  C.ar    1  <O>11      -0.0539
  10 C8       -4.1549    -2.5754    -0.3788  C.ar    1  <O>11      -0.0612
  11 C9       -5.3563    -1.9145    -0.6119  C.ar    1  <O>11      -0.0611
  12 C10      -5.3718    -0.7408    -1.3662  C.ar    1  <O>11      -0.0505
  13 C11      -4.1832    -0.2161    -1.8992  C.ar    1  <O>11       0.0245
  14 C12      -5.1920     0.1800    -4.8610  C.ar    1  <O>11       0.0616
  15 C13      -4.2462     0.5506    -5.8317  C.ar    1  <O>11      -0.0476
  16 C14      -3.5952    -0.4270    -6.5925  C.ar    1  <O>11      -0.0588
  17 C15      -3.8786    -1.7799    -6.3885  C.ar    1  <O>11      -0.0316
  18 C16      -4.8157    -2.1487    -5.4163  C.ar    1  <O>11       0.1224
  19 N1       -5.1020    -3.5454    -5.2088  N.4     1  <O>11       0.0060
  20 O3       -3.9232    -4.3310    -5.5182  O.2     1  <O>11      -0.1300
  21 O4       -6.1927    -3.9484    -6.0735  O.2     1  <O>11      -0.3961
  22 C17      -5.4692    -1.1807    -4.6529  C.ar    1  <O>11      -0.0176
  23 H1       -3.0110     2.3281    -3.7764  H       1  <O>11       0.0654
  24 H2       -0.9054     1.2092    -3.3173  H       1  <O>11       0.0619
  25 H3       -0.8779    -0.8266    -2.0029  H       1  <O>11       0.0624
  26 H4       -2.0755    -2.5561    -0.7175  H       1  <O>11       0.0624
  27 H5       -4.1437    -3.4447     0.1770  H       1  <O>11       0.0618
  28 H6       -6.2361    -2.2923    -0.2271  H       1  <O>11       0.0618
  29 H7       -6.2657    -0.2533    -1.5340  H       1  <O>11       0.0625
  30 H8       -4.0307     1.5482    -5.9843  H       1  <O>11       0.0626
  31 H9       -2.9039    -0.1479    -7.3061  H       1  <O>11       0.0618
  32 H10      -3.4007    -2.5017    -6.9503  H       1  <O>11       0.0640
  33 H11      -7.0289    -3.5323    -5.9978  H       1  <O>11       0.3292
  34 H12      -6.1554    -1.4645    -3.9363  H       1  <O>11       0.0648
@<TRIPOS>BOND
     1     1     2    2
     2     2     3    1
     3     3     4    1
     4     4     5   ar
     5     5     6   ar
     6     6     7   ar
     7     7     8   ar
     8     8     9   ar
     9     9    10   ar
    10    10    11   ar
    11    11    12   ar
    12    12    13   ar
    13     4    13   ar
    14     8    13   ar
    15     2    14    1
    16    14    15   ar
    17    15    16   ar
    18    16    17   ar
    19    17    18   ar
    20    18    19    1
    21    19    20    2
    22    19    21    1
    23    18    22   ar
    24    14    22   ar
    25     5    23    1
    26     6    24    1
    27     7    25    1
    28     9    26    1
    29    10    27    1
    30    11    28    1
    31    12    29    1
    32    15    30    1
    33    16    31    1
    34    17    32    1
    35    21    33    1
    36    22    34    1
@<TRIPOS>MOLECULE
mol10_1_25
 34 36 0 0 0
SMALL
USER_CHARGES
****
VDW energy = 126.71
@<TRIPOS>ATOM
   1 O1       -6.9336     1.6698    -4.4784  O.2     1  <O>11      -0.2445
   2 C1       -5.8797     1.1987    -4.0775  C.2     1  <O>11       0.3445
   3 O2       -5.3500     1.6230    -2.9050  O.3     1  <O>11      -0.4217
   4 C2       -4.1798     0.9592    -2.6668  C.ar    1  <O>11       0.1396
   5 C3       -4.2201    -0.2434    -1.9547  C.ar    1  <O>11      -0.0186
   6 C4       -3.0408    -0.9471    -1.7254  C.ar    1  <O>11      -0.0577
   7 C5       -1.8233    -0.4349    -2.1844  C.ar    1  <O>11      -0.0538
   8 C6       -1.7681     0.7806    -2.8845  C.ar    1  <O>11      -0.0144
   9 C7       -0.5524     1.3098    -3.3467  C.ar    1  <O>11      -0.0539
  10 C8       -0.5196     2.5172    -4.0471  C.ar    1  <O>11      -0.0612
  11 C9       -1.7004     3.2081    -4.2980  C.ar    1  <O>11      -0.0611
  12 C10      -2.9174     2.6961    -3.8467  C.ar    1  <O>11      -0.0505
  13 C11      -2.9660     1.4863    -3.1353  C.ar    1  <O>11       0.0245
  14 C12      -5.1920     0.1800    -4.8610  C.ar    1  <O>11       0.0616
  15 C13      -5.3190    -1.1784    -4.5253  C.ar    1  <O>11      -0.0476
  16 C14      -4.6487    -2.1553    -5.2700  C.ar    1  <O>11      -0.0588
  17 C15      -3.8512    -1.7862    -6.3563  C.ar    1  <O>11      -0.0316
  18 C16      -3.7309    -0.4333    -6.6945  C.ar    1  <O>11       0.1224
  19 N1       -2.9091    -0.0589    -7.8172  N.4     1  <O>11       0.0060
  20 O3       -2.3538     1.2610    -7.5902  O.2     1  <O>11      -0.1300
  21 O4       -3.7146    -0.0444    -9.0217  O.2     1  <O>11      -0.3961
  22 C17      -4.3960     0.5474    -5.9579  C.ar    1  <O>11      -0.0176
  23 H1       -5.1187    -0.6073    -1.6012  H       1  <O>11       0.0654
  24 H2       -3.0653    -1.8451    -1.2175  H       1  <O>11       0.0619
  25 H3       -0.9521    -0.9584    -2.0057  H       1  <O>11       0.0624
  26 H4        0.3269     0.8006    -3.1665  H       1  <O>11       0.0624
  27 H5        0.3807     2.8970    -4.3788  H       1  <O>11       0.0618
  28 H6       -1.6764     4.0992    -4.8178  H       1  <O>11       0.0618
  29 H7       -3.7907     3.2117    -4.0377  H       1  <O>11       0.0625
  30 H8       -5.9093    -1.4570    -3.7259  H       1  <O>11       0.0626
  31 H9       -4.7437    -3.1511    -5.0162  H       1  <O>11       0.0618
  32 H10      -3.3547    -2.5055    -6.9050  H       1  <O>11       0.0640
  33 H11      -4.1450    -0.8263    -9.3070  H       1  <O>11       0.3292
  34 H12      -4.3031     1.5415    -6.2188  H       1  <O>11       0.0648
@<TRIPOS>BOND
     1     1     2    2
     2     2     3    1
     3     3     4    1
     4     4     5   ar
     5     5     6   ar
     6     6     7   ar
     7     7     8   ar
     8     8     9   ar
     9     9    10   ar
    10    10    11   ar
    11    11    12   ar
    12    12    13   ar
    13     4    13   ar
    14     8    13   ar
    15     2    14    1
    16    14    15   ar
    17    15    16   ar
    18    16    17   ar
    19    17    18   ar
    20    18    19    1
    21    19    20    2
    22    19    21    1
    23    18    22   ar
    24    14    22   ar
    25     5    23    1
    26     6    24    1
    27     7    25    1
    28     9    26    1
    29    10    27    1
    30    11    28    1
    31    12    29    1
    32    15    30    1
    33    16    31    1
    34    17    32    1
    35    21    33    1
    36    22    34    1
@<TRIPOS>MOLECULE
mol10_1_26
 34 36 0 0 0
SMALL
USER_CHARGES
****
VDW energy = 128.88
@<TRIPOS>ATOM
   1 O1       -6.9336     1.6698    -4.4784  O.2     1  <O>11      -0.2445
   2 C1       -5.8797     1.1987    -4.0775  C.2     1  <O>11       0.3445
   3 O2       -5.3500     1.6230    -2.9050  O.3     1  <O>11      -0.4217
   4 C2       -6.1640     2.5720    -2.3540  C.ar    1  <O>11       0.1396
   5 C3       -6.7158     2.3357    -1.0912  C.ar    1  <O>11      -0.0186
   6 C4       -7.5263     3.3026    -0.5026  C.ar    1  <O>11      -0.0577
   7 C5       -7.8041     4.4898    -1.1873  C.ar    1  <O>11      -0.0538
   8 C6       -7.2706     4.7304    -2.4633  C.ar    1  <O>11      -0.0144
   9 C7       -7.5452     5.9153    -3.1650  C.ar    1  <O>11      -0.0539
  10 C8       -6.9992     6.1385    -4.4305  C.ar    1  <O>11      -0.0612
  11 C9       -6.1695     5.1834    -5.0083  C.ar    1  <O>11      -0.0611
  12 C10      -5.8854     4.0008    -4.3247  C.ar    1  <O>11      -0.0505
  13 C11      -6.4321     3.7589    -3.0539  C.ar    1  <O>11       0.0245
  14 C12      -5.1920     0.1800    -4.8610  C.ar    1  <O>11       0.0616
  15 C13      -3.7918     0.1989    -4.9756  C.ar    1  <O>11      -0.0476
  16 C14      -3.1327    -0.7719    -5.7381  C.ar    1  <O>11      -0.0588
  17 C15      -3.8632    -1.7702    -6.3877  C.ar    1  <O>11      -0.0316
  18 C16      -5.2576    -1.7926    -6.2672  C.ar    1  <O>11       0.1224
  19 N1       -6.0053    -2.8259    -6.9373  N.4     1  <O>11       0.0060
  20 O3       -7.4245    -2.5703    -6.7858  O.2     1  <O>11      -0.1300
  21 O4       -5.6805    -4.1123    -6.3545  O.2     1  <O>11      -0.3961
  22 C17      -5.9230    -0.8289    -5.5086  C.ar    1  <O>11      -0.0176
  23 H1       -6.5235     1.4496    -0.5984  H       1  <O>11       0.0654
  24 H2       -7.9213     3.1435     0.4374  H       1  <O>11       0.0619
  25 H3       -8.4106     5.1998    -0.7480  H       1  <O>11       0.0624
  26 H4       -8.1576     6.6293    -2.7405  H       1  <O>11       0.0624
  27 H5       -7.2113     7.0121    -4.9371  H       1  <O>11       0.0618
  28 H6       -5.7641     5.3495    -5.9427  H       1  <O>11       0.0618
  29 H7       -5.2673     3.2967    -4.7572  H       1  <O>11       0.0625
  30 H8       -3.2469     0.9321    -4.4954  H       1  <O>11       0.0626
  31 H9       -2.1042    -0.7504    -5.8208  H       1  <O>11       0.0618
  32 H10      -3.3785    -2.4855    -6.9520  H       1  <O>11       0.0640
  33 H11      -4.7972    -4.4248    -6.3716  H       1  <O>11       0.3292
  34 H12      -6.9510    -0.8576    -5.4237  H       1  <O>11       0.0648
@<TRIPOS>BOND
     1     1     2    2
     2     2     3    1
     3     3     4    1
     4     4     5   ar
     5     5     6   ar
     6     6     7   ar
     7     7     8   ar
     8     8     9   ar
     9     9    10   ar
    10    10    11   ar
    11    11    12   ar
    12    12    13   ar
    13     4    13   ar
    14     8    13   ar
    15     2    14    1
    16    14    15   ar
    17    15    16   ar
    18    16    17   ar
    19    17    18   ar
    20    18    19    1
    21    19    20    2
    22    19    21    1
    23    18    22   ar
    24    14    22   ar
    25     5    23    1
    26     6    24    1
    27     7    25    1
    28     9    26    1
    29    10    27    1
    30    11    28    1
    31    12    29    1
    32    15    30    1
    33    16    31    1
    34    17    32    1
    35    21    33    1
    36    22    34    1
@<TRIPOS>MOLECULE
mol10_1_27
 34 36 0 0 0
SMALL
USER_CHARGES
****
VDW energy = 129.71
@<TRIPOS>ATOM
   1 O1       -6.9336     1.6698    -4.4784  O.2     1  <O>11      -0.2445
   2 C1       -5.8797     1.1987    -4.0775  C.2     1  <O>11       0.3445
   3 O2       -5.3500     1.6230    -2.9050  O.3     1  <O>11      -0.4217
   4 C2       -4.1798     0.9592    -2.6668  C.ar    1  <O>11       0.1396
   5 C3       -4.2201    -0.2434    -1.9547  C.ar    1  <O>11      -0.0186
   6 C4       -3.0408    -0.9471    -1.7254  C.ar    1  <O>11      -0.0577
   7 C5       -1.8233    -0.4349    -2.1844  C.ar    1  <O>11      -0.0538
   8 C6       -1.7681     0.7806    -2.8845  C.ar    1  <O>11      -0.0144
   9 C7       -0.5524     1.3098    -3.3467  C.ar    1  <O>11      -0.0539
  10 C8       -0.5196     2.5172    -4.0471  C.ar    1  <O>11      -0.0612
  11 C9       -1.7004     3.2081    -4.2980  C.ar    1  <O>11      -0.0611
  12 C10      -2.9174     2.6961    -3.8467  C.ar    1  <O>11      -0.0505
  13 C11      -2.9660     1.4863    -3.1353  C.ar    1  <O>11       0.0245
  14 C12      -5.1920     0.1800    -4.8610  C.ar    1  <O>11       0.0616
  15 C13      -5.3190    -1.1784    -4.5253  C.ar    1  <O>11      -0.0476
  16 C14      -4.6487    -2.1553    -5.2700  C.ar    1  <O>11      -0.0588
  17 C15      -3.8512    -1.7862    -6.3563  C.ar    1  <O>11      -0.0316
  18 C16      -3.7309    -0.4333    -6.6945  C.ar    1  <O>11       0.1224
  19 N1       -2.9091    -0.0589    -7.8172  N.4     1  <O>11       0.0060
  20 O3       -2.8242     1.3865    -7.8926  O.2     1  <O>11      -0.1300
  21 O4       -3.4960    -0.5735    -9.0381  O.2     1  <O>11      -0.3961
  22 C17      -4.3960     0.5474    -5.9579  C.ar    1  <O>11      -0.0176
  23 H1       -5.1187    -0.6073    -1.6012  H       1  <O>11       0.0654
  24 H2       -3.0653    -1.8451    -1.2175  H       1  <O>11       0.0619
  25 H3       -0.9521    -0.9584    -2.0057  H       1  <O>11       0.0624
  26 H4        0.3269     0.8006    -3.1665  H       1  <O>11       0.0624
  27 H5        0.3807     2.8970    -4.3788  H       1  <O>11       0.0618
  28 H6       -1.6764     4.0992    -4.8178  H       1  <O>11       0.0618
  29 H7       -3.7907     3.2117    -4.0377  H       1  <O>11       0.0625
  30 H8       -5.9093    -1.4570    -3.7259  H       1  <O>11       0.0626
  31 H9       -4.7437    -3.1511    -5.0162  H       1  <O>11       0.0618
  32 H10      -3.3547    -2.5055    -6.9050  H       1  <O>11       0.0640
  33 H11      -3.6198    -1.4961    -9.1459  H       1  <O>11       0.3292
  34 H12      -4.3031     1.5415    -6.2188  H       1  <O>11       0.0648
@<TRIPOS>BOND
     1     1     2    2
     2     2     3    1
     3     3     4    1
     4     4     5   ar
     5     5     6   ar
     6     6     7   ar
     7     7     8   ar
     8     8     9   ar
     9     9    10   ar
    10    10    11   ar
    11    11    12   ar
    12    12    13   ar
    13     4    13   ar
    14     8    13   ar
    15     2    14    1
    16    14    15   ar
    17    15    16   ar
    18    16    17   ar
    19    17    18   ar
    20    18    19    1
    21    19    20    2
    22    19    21    1
    23    18    22   ar
    24    14    22   ar
    25     5    23    1
    26     6    24    1
    27     7    25    1
    28     9    26    1
    29    10    27    1
    30    11    28    1
    31    12    29    1
    32    15    30    1
    33    16    31    1
    34    17    32    1
    35    21    33    1
    36    22    34    1
@<TRIPOS>MOLECULE
mol10_1_28
 34 36 0 0 0
SMALL
USER_CHARGES
****
VDW energy = 130.65
@<TRIPOS>ATOM
   1 O1       -6.9336     1.6698    -4.4784  O.2     1  <O>11      -0.2445
   2 C1       -5.8797     1.1987    -4.0775  C.2     1  <O>11       0.3445
   3 O2       -5.3500     1.6230    -2.9050  O.3     1  <O>11      -0.4217
   4 C2       -6.1640     2.5720    -2.3540  C.ar    1  <O>11       0.1396
   5 C3       -5.6482     3.8510    -2.1239  C.ar    1  <O>11      -0.0186
   6 C4       -6.4704     4.8384    -1.5876  C.ar    1  <O>11      -0.0577
   7 C5       -7.7960     4.5383    -1.2588  C.ar    1  <O>11      -0.0538
   8 C6       -8.3198     3.2528    -1.4683  C.ar    1  <O>11      -0.0144
   9 C7       -9.6471     2.9355    -1.1380  C.ar    1  <O>11      -0.0539
  10 C8      -10.1511     1.6526    -1.3606  C.ar    1  <O>11      -0.0612
  11 C9       -9.3372     0.6728    -1.9192  C.ar    1  <O>11      -0.0611
  12 C10      -8.0160     0.9712    -2.2542  C.ar    1  <O>11      -0.0505
  13 C11      -7.4927     2.2550    -2.0306  C.ar    1  <O>11       0.0245
  14 C12      -5.1920     0.1800    -4.8610  C.ar    1  <O>11       0.0616
  15 C13      -5.4687    -1.1816    -4.6526  C.ar    1  <O>11      -0.0476
  16 C14      -4.7993    -2.1600    -5.3962  C.ar    1  <O>11      -0.0588
  17 C15      -3.8533    -1.7887    -6.3550  C.ar    1  <O>11      -0.0316
  18 C16      -3.5834    -0.4317    -6.5671  C.ar    1  <O>11       0.1224
  19 N1       -2.6086    -0.0547    -7.5590  N.4     1  <O>11       0.0060
  20 O3       -1.3227    -0.6293    -7.2149  O.2     1  <O>11      -0.1300
  21 O4       -2.4974     1.3895    -7.6022  O.2     1  <O>11      -0.3961
  22 C17      -4.2464     0.5505    -5.8306  C.ar    1  <O>11      -0.0176
  23 H1       -4.6637     4.0620    -2.3502  H       1  <O>11       0.0654
  24 H2       -6.1022     5.7899    -1.4331  H       1  <O>11       0.0619
  25 H3       -8.3984     5.2730    -0.8559  H       1  <O>11       0.0624
  26 H4      -10.2571     3.6588    -0.7261  H       1  <O>11       0.0624
  27 H5      -11.1275     1.4313    -1.1106  H       1  <O>11       0.0618
  28 H6       -9.7105    -0.2748    -2.0859  H       1  <O>11       0.0618
  29 H7       -7.4173     0.2410    -2.6706  H       1  <O>11       0.0625
  30 H8       -6.1688    -1.4615    -3.9478  H       1  <O>11       0.0626
  31 H9       -5.0050    -3.1585    -5.2358  H       1  <O>11       0.0618
  32 H10      -3.3574    -2.5092    -6.9026  H       1  <O>11       0.0640
  33 H11      -3.2470     1.9111    -7.8119  H       1  <O>11       0.3292
  34 H12      -4.0421     1.5481    -5.9983  H       1  <O>11       0.0648
@<TRIPOS>BOND
     1     1     2    2
     2     2     3    1
     3     3     4    1
     4     4     5   ar
     5     5     6   ar
     6     6     7   ar
     7     7     8   ar
     8     8     9   ar
     9     9    10   ar
    10    10    11   ar
    11    11    12   ar
    12    12    13   ar
    13     4    13   ar
    14     8    13   ar
    15     2    14    1
    16    14    15   ar
    17    15    16   ar
    18    16    17   ar
    19    17    18   ar
    20    18    19    1
    21    19    20    2
    22    19    21    1
    23    18    22   ar
    24    14    22   ar
    25     5    23    1
    26     6    24    1
    27     7    25    1
    28     9    26    1
    29    10    27    1
    30    11    28    1
    31    12    29    1
    32    15    30    1
    33    16    31    1
    34    17    32    1
    35    21    33    1
    36    22    34    1
@<TRIPOS>MOLECULE
mol10_1_29
 34 36 0 0 0
SMALL
USER_CHARGES
****
VDW energy = 131.84
@<TRIPOS>ATOM
   1 O1       -6.9336     1.6698    -4.4784  O.2     1  <O>11      -0.2445
   2 C1       -5.8797     1.1987    -4.0775  C.2     1  <O>11       0.3445
   3 O2       -5.3500     1.6230    -2.9050  O.3     1  <O>11      -0.4217
   4 C2       -4.1798     0.9592    -2.6668  C.ar    1  <O>11       0.1396
   5 C3       -4.2201    -0.2434    -1.9547  C.ar    1  <O>11      -0.0186
   6 C4       -3.0408    -0.9471    -1.7254  C.ar    1  <O>11      -0.0577
   7 C5       -1.8233    -0.4349    -2.1844  C.ar    1  <O>11      -0.0538
   8 C6       -1.7681     0.7806    -2.8845  C.ar    1  <O>11      -0.0144
   9 C7       -0.5524     1.3098    -3.3467  C.ar    1  <O>11      -0.0539
  10 C8       -0.5196     2.5172    -4.0471  C.ar    1  <O>11      -0.0612
  11 C9       -1.7004     3.2081    -4.2980  C.ar    1  <O>11      -0.0611
  12 C10      -2.9174     2.6961    -3.8467  C.ar    1  <O>11      -0.0505
  13 C11      -2.9660     1.4863    -3.1353  C.ar    1  <O>11       0.0245
  14 C12      -5.1920     0.1800    -4.8610  C.ar    1  <O>11       0.0616
  15 C13      -5.3190    -1.1784    -4.5253  C.ar    1  <O>11      -0.0476
  16 C14      -4.6487    -2.1553    -5.2700  C.ar    1  <O>11      -0.0588
  17 C15      -3.8512    -1.7862    -6.3563  C.ar    1  <O>11      -0.0316
  18 C16      -3.7309    -0.4333    -6.6945  C.ar    1  <O>11       0.1224
  19 N1       -2.9091    -0.0589    -7.8172  N.4     1  <O>11       0.0060
  20 O3       -1.5463    -0.4957    -7.5849  O.2     1  <O>11      -0.1300
  21 O4       -2.9353     1.3812    -7.9759  O.2     1  <O>11      -0.3961
  22 C17      -4.3960     0.5474    -5.9579  C.ar    1  <O>11      -0.0176
  23 H1       -5.1187    -0.6073    -1.6012  H       1  <O>11       0.0654
  24 H2       -3.0653    -1.8451    -1.2175  H       1  <O>11       0.0619
  25 H3       -0.9521    -0.9584    -2.0057  H       1  <O>11       0.0624
  26 H4        0.3269     0.8006    -3.1665  H       1  <O>11       0.0624
  27 H5        0.3807     2.8970    -4.3788  H       1  <O>11       0.0618
  28 H6       -1.6764     4.0992    -4.8178  H       1  <O>11       0.0618
  29 H7       -3.7907     3.2117    -4.0377  H       1  <O>11       0.0625
  30 H8       -5.9093    -1.4570    -3.7259  H       1  <O>11       0.0626
  31 H9       -4.7437    -3.1511    -5.0162  H       1  <O>11       0.0618
  32 H10      -3.3547    -2.5055    -6.9050  H       1  <O>11       0.0640
  33 H11      -3.7478     1.8205    -8.1337  H       1  <O>11       0.3292
  34 H12      -4.3031     1.5415    -6.2188  H       1  <O>11       0.0648
@<TRIPOS>BOND
     1     1     2    2
     2     2     3    1
     3     3     4    1
     4     4     5   ar
     5     5     6   ar
     6     6     7   ar
     7     7     8   ar
     8     8     9   ar
     9     9    10   ar
    10    10    11   ar
    11    11    12   ar
    12    12    13   ar
    13     4    13   ar
    14     8    13   ar
    15     2    14    1
    16    14    15   ar
    17    15    16   ar
    18    16    17   ar
    19    17    18   ar
    20    18    19    1
    21    19    20    2
    22    19    21    1
    23    18    22   ar
    24    14    22   ar
    25     5    23    1
    26     6    24    1
    27     7    25    1
    28     9    26    1
    29    10    27    1
    30    11    28    1
    31    12    29    1
    32    15    30    1
    33    16    31    1
    34    17    32    1
    35    21    33    1
    36    22    34    1
@<TRIPOS>MOLECULE
mol10_1_30
 34 36 0 0 0
SMALL
USER_CHARGES
****
VDW energy = 134.72
@<TRIPOS>ATOM
   1 O1       -6.9336     1.6698    -4.4784  O.2     1  <O>11      -0.2445
   2 C1       -5.8797     1.1987    -4.0775  C.2     1  <O>11       0.3445
   3 O2       -5.3500     1.6230    -2.9050  O.3     1  <O>11      -0.4217
   4 C2       -6.1640     2.5720    -2.3540  C.ar    1  <O>11       0.1396
   5 C3       -5.6482     3.8510    -2.1239  C.ar    1  <O>11      -0.0186
   6 C4       -6.4704     4.8384    -1.5876  C.ar    1  <O>11      -0.0577
   7 C5       -7.7960     4.5383    -1.2588  C.ar    1  <O>11      -0.0538
   8 C6       -8.3198     3.2528    -1.4683  C.ar    1  <O>11      -0.0144
   9 C7       -9.6471     2.9355    -1.1380  C.ar    1  <O>11      -0.0539
  10 C8      -10.1511     1.6526    -1.3606  C.ar    1  <O>11      -0.0612
  11 C9       -9.3372     0.6728    -1.9192  C.ar    1  <O>11      -0.0611
  12 C10      -8.0160     0.9712    -2.2542  C.ar    1  <O>11      -0.0505
  13 C11      -7.4927     2.2550    -2.0306  C.ar    1  <O>11       0.0245
  14 C12      -5.1920     0.1800    -4.8610  C.ar    1  <O>11       0.0616
  15 C13      -3.7918     0.1989    -4.9756  C.ar    1  <O>11      -0.0476
  16 C14      -3.1327    -0.7719    -5.7381  C.ar    1  <O>11      -0.0588
  17 C15      -3.8632    -1.7702    -6.3877  C.ar    1  <O>11      -0.0316
  18 C16      -5.2576    -1.7926    -6.2672  C.ar    1  <O>11       0.1224
  19 N1       -6.0053    -2.8259    -6.9373  N.4     1  <O>11       0.0060
  20 O3       -5.7675    -2.7452    -8.3652  O.2     1  <O>11      -0.1300
  21 O4       -7.4188    -2.6488    -6.6713  O.2     1  <O>11      -0.3961
  22 C17      -5.9230    -0.8289    -5.5086  C.ar    1  <O>11      -0.0176
  23 H1       -4.6637     4.0620    -2.3502  H       1  <O>11       0.0654
  24 H2       -6.1022     5.7899    -1.4331  H       1  <O>11       0.0619
  25 H3       -8.3984     5.2730    -0.8559  H       1  <O>11       0.0624
  26 H4      -10.2571     3.6588    -0.7261  H       1  <O>11       0.0624
  27 H5      -11.1275     1.4313    -1.1106  H       1  <O>11       0.0618
  28 H6       -9.7105    -0.2748    -2.0859  H       1  <O>11       0.0618
  29 H7       -7.4173     0.2410    -2.6706  H       1  <O>11       0.0625
  30 H8       -3.2469     0.9321    -4.4954  H       1  <O>11       0.0626
  31 H9       -2.1042    -0.7504    -5.8208  H       1  <O>11       0.0618
  32 H10      -3.3785    -2.4855    -6.9520  H       1  <O>11       0.0640
  33 H11      -7.7366    -2.6746    -5.7902  H       1  <O>11       0.3292
  34 H12      -6.9510    -0.8576    -5.4237  H       1  <O>11       0.0648
@<TRIPOS>BOND
     1     1     2    2
     2     2     3    1
     3     3     4    1
     4     4     5   ar
     5     5     6   ar
     6     6     7   ar
     7     7     8   ar
     8     8     9   ar
     9     9    10   ar
    10    10    11   ar
    11    11    12   ar
    12    12    13   ar
    13     4    13   ar
    14     8    13   ar
    15     2    14    1
    16    14    15   ar
    17    15    16   ar
    18    16    17   ar
    19    17    18   ar
    20    18    19    1
    21    19    20    2
    22    19    21    1
    23    18    22   ar
    24    14    22   ar
    25     5    23    1
    26     6    24    1
    27     7    25    1
    28     9    26    1
    29    10    27    1
    30    11    28    1
    31    12    29    1
    32    15    30    1
    33    16    31    1
    34    17    32    1
    35    21    33    1
    36    22    34    1
