@<TRIPOS>MOLECULE
mol15_1_1
 40 42 0 0 0
SMALL
USER_CHARGES
****
VDW energy = -87.19
@<TRIPOS>ATOM
   1 O1        5.5173     2.9861     6.6958  O.2     1  <O>11      -0.2698
   2 C1        4.8288     3.4514     7.5917  C.2     1  <O>11       0.2494
   3 N1        3.6970     4.1600     7.2880  N.am    1  <O>11      -0.2664
   4 C2        2.9169     4.6869     8.3041  C.ar    1  <O>11       0.1251
   5 C3        1.5965     4.2892     8.4152  C.ar    1  <O>11      -0.0215
   6 C4        0.8338     4.8246     9.4508  C.ar    1  <O>11      -0.0571
   7 C5        1.4334     5.7552    10.3077  C.ar    1  <O>11      -0.0435
   8 C6        2.7713     6.1005    10.1226  C.ar    1  <O>11       0.0297
   9 N2        3.5086     5.5708     9.1327  N.ar    1  <O>11      -0.2401
  10 C7        5.2120     3.2520     8.9830  C.ar    1  <O>11       0.0389
  11 C8        6.0487     4.1795     9.6283  C.ar    1  <O>11      -0.0495
  12 C9        6.4247     3.9801    10.9610  C.ar    1  <O>11      -0.0592
  13 C10       5.9690     2.8612    11.6622  C.ar    1  <O>11      -0.0350
  14 C11       5.1308     1.9411    11.0202  C.ar    1  <O>11       0.1092
  15 S1        4.5593     0.5334    11.9083  S.O2    1  <O>11       0.0724
  16 O2        5.8584    -0.3710    12.4087  O.2     1  <O>11      -0.1500
  17 O3        3.5900    -0.3873    10.9222  O.2     1  <O>11      -0.1500
  18 N3        3.6932     1.0285    13.2262  N.pl3   1  <O>11      -0.2135
  19 C12       3.1136     0.0466    14.1236  C.ar    1  <O>11       0.0831
  20 C13       3.8463    -0.4246    15.2260  C.ar    1  <O>11      -0.0365
  21 C14       3.2908    -1.3809    16.0849  C.ar    1  <O>11      -0.0598
  22 C15       2.0039    -1.8695    15.8539  C.ar    1  <O>11      -0.0589
  23 C16       1.2715    -1.3953    14.7591  C.ar    1  <O>11      -0.0246
  24 C17       1.8152    -0.4410    13.8980  C.ar    1  <O>11       0.1456
  25 F1        1.0964     0.0292    12.8301  F       1  <O>11      -0.2035
  26 C18       4.7482     2.1314     9.6921  C.ar    1  <O>11      -0.0230
  27 H1        3.4293     4.2992     6.3141  H       1  <O>11       0.1566
  28 H2        3.5674     2.0238    13.4090  H       1  <O>11       0.1738
  29 H3        1.1880     3.6147     7.7495  H       1  <O>11       0.0652
  30 H4       -0.1499     4.5418     9.5832  H       1  <O>11       0.0619
  31 H5        0.8882     6.1833    11.0722  H       1  <O>11       0.0633
  32 H6        3.2071     6.7817    10.7636  H       1  <O>11       0.0830
  33 H7        6.3866     5.0100     9.1172  H       1  <O>11       0.0625
  34 H8        7.0416     4.6629    11.4283  H       1  <O>11       0.0618
  35 H9        6.2475     2.7139    12.6449  H       1  <O>11       0.0637
  36 H10       4.7972    -0.0647    15.4033  H       1  <O>11       0.0637
  37 H11       3.8346    -1.7257    16.8913  H       1  <O>11       0.0618
  38 H12       1.5949    -2.5754    16.4859  H       1  <O>11       0.0618
  39 H13       0.3197    -1.7551    14.5870  H       1  <O>11       0.0647
  40 H14       4.1252     1.4498     9.2312  H       1  <O>11       0.0645
@<TRIPOS>BOND
     1     1     2    2
     2     2     3   am
     3     3     4    1
     4     4     5   ar
     5     5     6   ar
     6     6     7   ar
     7     7     8   ar
     8     8     9   ar
     9     4     9   ar
    10     2    10    1
    11    10    11   ar
    12    11    12   ar
    13    12    13   ar
    14    13    14   ar
    15    14    15    1
    16    15    16    2
    17    15    17    2
    18    15    18    1
    19    18    19    1
    20    19    20   ar
    21    20    21   ar
    22    21    22   ar
    23    22    23   ar
    24    23    24   ar
    25    19    24   ar
    26    24    25    1
    27    14    26   ar
    28    10    26   ar
    29     3    27    1
    30    18    28    1
    31     5    29    1
    32     6    30    1
    33     7    31    1
    34     8    32    1
    35    11    33    1
    36    12    34    1
    37    13    35    1
    38    20    36    1
    39    21    37    1
    40    22    38    1
    41    23    39    1
    42    26    40    1
@<TRIPOS>MOLECULE
mol15_1_2
 40 42 0 0 0
SMALL
USER_CHARGES
****
VDW energy = -85.10
@<TRIPOS>ATOM
   1 O1        5.5173     2.9861     6.6958  O.2     1  <O>11      -0.2698
   2 C1        4.8288     3.4514     7.5917  C.2     1  <O>11       0.2494
   3 N1        3.6970     4.1600     7.2880  N.am    1  <O>11      -0.2664
   4 C2        2.9169     4.6869     8.3041  C.ar    1  <O>11       0.1251
   5 C3        1.5965     4.2892     8.4152  C.ar    1  <O>11      -0.0215
   6 C4        0.8338     4.8246     9.4508  C.ar    1  <O>11      -0.0571
   7 C5        1.4334     5.7552    10.3077  C.ar    1  <O>11      -0.0435
   8 C6        2.7713     6.1005    10.1226  C.ar    1  <O>11       0.0297
   9 N2        3.5086     5.5708     9.1327  N.ar    1  <O>11      -0.2401
  10 C7        5.2120     3.2520     8.9830  C.ar    1  <O>11       0.0389
  11 C8        6.0487     4.1795     9.6283  C.ar    1  <O>11      -0.0495
  12 C9        6.4247     3.9801    10.9610  C.ar    1  <O>11      -0.0592
  13 C10       5.9690     2.8612    11.6622  C.ar    1  <O>11      -0.0350
  14 C11       5.1308     1.9411    11.0202  C.ar    1  <O>11       0.1092
  15 S1        4.5593     0.5334    11.9083  S.O2    1  <O>11       0.0724
  16 O2        3.6884     1.0294    13.2319  O.2     1  <O>11      -0.1500
  17 O3        5.8597    -0.3715    12.4080  O.2     1  <O>11      -0.1500
  18 N3        3.5949    -0.3823    10.9267  N.pl3   1  <O>11      -0.2135
  19 C12       2.9972    -1.6039    11.4325  C.ar    1  <O>11       0.0831
  20 C13       1.7344    -1.5722    12.0478  C.ar    1  <O>11      -0.0365
  21 C14       1.1634    -2.7497    12.5462  C.ar    1  <O>11      -0.0598
  22 C15       1.8432    -3.9633    12.4315  C.ar    1  <O>11      -0.0589
  23 C16       3.0986    -3.9958    11.8129  C.ar    1  <O>11      -0.0246
  24 C17       3.6758    -2.8283    11.3113  C.ar    1  <O>11       0.1456
  25 F1        4.9015    -2.8601    10.6992  F       1  <O>11      -0.2035
  26 C18       4.7482     2.1314     9.6921  C.ar    1  <O>11      -0.0230
  27 H1        3.4293     4.2992     6.3141  H       1  <O>11       0.1566
  28 H2        3.4192    -0.0878     9.9663  H       1  <O>11       0.1738
  29 H3        1.1880     3.6147     7.7495  H       1  <O>11       0.0652
  30 H4       -0.1499     4.5418     9.5832  H       1  <O>11       0.0619
  31 H5        0.8882     6.1833    11.0722  H       1  <O>11       0.0633
  32 H6        3.2071     6.7817    10.7636  H       1  <O>11       0.0830
  33 H7        6.3866     5.0100     9.1172  H       1  <O>11       0.0625
  34 H8        7.0416     4.6629    11.4283  H       1  <O>11       0.0618
  35 H9        6.2475     2.7139    12.6449  H       1  <O>11       0.0637
  36 H10       1.2259    -0.6781    12.1326  H       1  <O>11       0.0637
  37 H11       0.2369    -2.7200    12.9998  H       1  <O>11       0.0618
  38 H12       1.4232    -4.8309    12.8002  H       1  <O>11       0.0618
  39 H13       3.6025    -4.8923    11.7270  H       1  <O>11       0.0647
  40 H14       4.1252     1.4498     9.2312  H       1  <O>11       0.0645
@<TRIPOS>BOND
     1     1     2    2
     2     2     3   am
     3     3     4    1
     4     4     5   ar
     5     5     6   ar
     6     6     7   ar
     7     7     8   ar
     8     8     9   ar
     9     4     9   ar
    10     2    10    1
    11    10    11   ar
    12    11    12   ar
    13    12    13   ar
    14    13    14   ar
    15    14    15    1
    16    15    16    2
    17    15    17    2
    18    15    18    1
    19    18    19    1
    20    19    20   ar
    21    20    21   ar
    22    21    22   ar
    23    22    23   ar
    24    23    24   ar
    25    19    24   ar
    26    24    25    1
    27    14    26   ar
    28    10    26   ar
    29     3    27    1
    30    18    28    1
    31     5    29    1
    32     6    30    1
    33     7    31    1
    34     8    32    1
    35    11    33    1
    36    12    34    1
    37    13    35    1
    38    20    36    1
    39    21    37    1
    40    22    38    1
    41    23    39    1
    42    26    40    1
@<TRIPOS>MOLECULE
mol15_1_3
 40 42 0 0 0
SMALL
USER_CHARGES
****
VDW energy = -84.12
@<TRIPOS>ATOM
   1 O1        5.5173     2.9861     6.6958  O.2     1  <O>11      -0.2698
   2 C1        4.8288     3.4514     7.5917  C.2     1  <O>11       0.2494
   3 N1        3.6970     4.1600     7.2880  N.am    1  <O>11      -0.2664
   4 C2        3.3330     4.3490     5.9650  C.ar    1  <O>11       0.1251
   5 C3        3.8022     5.4613     5.2893  C.ar    1  <O>11      -0.0215
   6 C4        3.4314     5.6256     3.9565  C.ar    1  <O>11      -0.0571
   7 C5        2.5837     4.6731     3.3785  C.ar    1  <O>11      -0.0435
   8 C6        2.1568     3.5818     4.1336  C.ar    1  <O>11       0.0297
   9 N2        2.5287     3.4178     5.4138  N.ar    1  <O>11      -0.2401
  10 C7        5.2120     3.2520     8.9830  C.ar    1  <O>11       0.0389
  11 C8        6.0487     4.1795     9.6283  C.ar    1  <O>11      -0.0495
  12 C9        6.4247     3.9801    10.9610  C.ar    1  <O>11      -0.0592
  13 C10       5.9690     2.8612    11.6622  C.ar    1  <O>11      -0.0350
  14 C11       5.1308     1.9411    11.0202  C.ar    1  <O>11       0.1092
  15 S1        4.5593     0.5334    11.9083  S.O2    1  <O>11       0.0724
  16 O2        3.0703     0.0807    11.3302  O.2     1  <O>11      -0.1500
  17 O3        4.4364     0.9090    13.5218  O.2     1  <O>11      -0.1500
  18 N3        5.6278    -0.7123    11.7120  N.pl3   1  <O>11      -0.2135
  19 C12       5.3764    -1.9907    12.3505  C.ar    1  <O>11       0.0831
  20 C13       4.2268    -2.1754    13.1371  C.ar    1  <O>11      -0.0365
  21 C14       3.9909    -3.4058    13.7626  C.ar    1  <O>11      -0.0598
  22 C15       4.8941    -4.4583    13.6056  C.ar    1  <O>11      -0.0589
  23 C16       6.0363    -4.2762    12.8169  C.ar    1  <O>11      -0.0246
  24 C17       6.2799    -3.0545    12.1877  C.ar    1  <O>11       0.1456
  25 F1        7.3940    -2.8774    11.4095  F       1  <O>11      -0.2035
  26 C18       4.7482     2.1314     9.6921  C.ar    1  <O>11      -0.0230
  27 H1        3.1230     4.5480     8.0360  H       1  <O>11       0.1566
  28 H2        6.4628    -0.5824    11.1412  H       1  <O>11       0.1738
  29 H3        4.4100     6.1502     5.7595  H       1  <O>11       0.0652
  30 H4        3.7734     6.4303     3.4083  H       1  <O>11       0.0619
  31 H5        2.2765     4.7782     2.3989  H       1  <O>11       0.0633
  32 H6        1.5381     2.8807     3.6969  H       1  <O>11       0.0830
  33 H7        6.3866     5.0100     9.1172  H       1  <O>11       0.0625
  34 H8        7.0416     4.6629    11.4283  H       1  <O>11       0.0618
  35 H9        6.2475     2.7139    12.6449  H       1  <O>11       0.0637
  36 H10       3.5541    -1.4015    13.2542  H       1  <O>11       0.0637
  37 H11       3.1465    -3.5348    14.3415  H       1  <O>11       0.0618
  38 H12       4.7212    -5.3646    14.0678  H       1  <O>11       0.0618
  39 H13       6.7050    -5.0534    12.6994  H       1  <O>11       0.0647
  40 H14       4.1252     1.4498     9.2312  H       1  <O>11       0.0645
@<TRIPOS>BOND
     1     1     2    2
     2     2     3   am
     3     3     4    1
     4     4     5   ar
     5     5     6   ar
     6     6     7   ar
     7     7     8   ar
     8     8     9   ar
     9     4     9   ar
    10     2    10    1
    11    10    11   ar
    12    11    12   ar
    13    12    13   ar
    14    13    14   ar
    15    14    15    1
    16    15    16    2
    17    15    17    2
    18    15    18    1
    19    18    19    1
    20    19    20   ar
    21    20    21   ar
    22    21    22   ar
    23    22    23   ar
    24    23    24   ar
    25    19    24   ar
    26    24    25    1
    27    14    26   ar
    28    10    26   ar
    29     3    27    1
    30    18    28    1
    31     5    29    1
    32     6    30    1
    33     7    31    1
    34     8    32    1
    35    11    33    1
    36    12    34    1
    37    13    35    1
    38    20    36    1
    39    21    37    1
    40    22    38    1
    41    23    39    1
    42    26    40    1
@<TRIPOS>MOLECULE
mol15_1_4
 40 42 0 0 0
SMALL
USER_CHARGES
****
VDW energy = -83.12
@<TRIPOS>ATOM
   1 O1        5.5173     2.9861     6.6958  O.2     1  <O>11      -0.2698
   2 C1        4.8288     3.4514     7.5917  C.2     1  <O>11       0.2494
   3 N1        3.6970     4.1600     7.2880  N.am    1  <O>11      -0.2664
   4 C2        3.3330     4.3490     5.9650  C.ar    1  <O>11       0.1251
   5 C3        3.2305     5.6375     5.4717  C.ar    1  <O>11      -0.0215
   6 C4        2.8728     5.8032     4.1355  C.ar    1  <O>11      -0.0571
   7 C5        2.6103     4.6612     3.3694  C.ar    1  <O>11      -0.0435
   8 C6        2.7370     3.3992     3.9478  C.ar    1  <O>11       0.0297
   9 N2        3.0972     3.2420     5.2322  N.ar    1  <O>11      -0.2401
  10 C7        5.2120     3.2520     8.9830  C.ar    1  <O>11       0.0389
  11 C8        6.0487     4.1795     9.6283  C.ar    1  <O>11      -0.0495
  12 C9        6.4247     3.9801    10.9610  C.ar    1  <O>11      -0.0592
  13 C10       5.9690     2.8612    11.6622  C.ar    1  <O>11      -0.0350
  14 C11       5.1308     1.9411    11.0202  C.ar    1  <O>11       0.1092
  15 S1        4.5593     0.5334    11.9083  S.O2    1  <O>11       0.0724
  16 O2        5.8584    -0.3710    12.4087  O.2     1  <O>11      -0.1500
  17 O3        3.5900    -0.3873    10.9222  O.2     1  <O>11      -0.1500
  18 N3        3.6932     1.0285    13.2262  N.pl3   1  <O>11      -0.2135
  19 C12       3.1136     0.0466    14.1236  C.ar    1  <O>11       0.0831
  20 C13       3.8463    -0.4246    15.2260  C.ar    1  <O>11      -0.0365
  21 C14       3.2908    -1.3809    16.0849  C.ar    1  <O>11      -0.0598
  22 C15       2.0039    -1.8695    15.8539  C.ar    1  <O>11      -0.0589
  23 C16       1.2715    -1.3953    14.7591  C.ar    1  <O>11      -0.0246
  24 C17       1.8152    -0.4410    13.8980  C.ar    1  <O>11       0.1456
  25 F1        1.0964     0.0292    12.8301  F       1  <O>11      -0.2035
  26 C18       4.7482     2.1314     9.6921  C.ar    1  <O>11      -0.0230
  27 H1        3.1230     4.5480     8.0360  H       1  <O>11       0.1566
  28 H2        3.5674     2.0238    13.4090  H       1  <O>11       0.1738
  29 H3        3.4139     6.4531     6.0768  H       1  <O>11       0.0652
  30 H4        2.8029     6.7455     3.7203  H       1  <O>11       0.0619
  31 H5        2.3246     4.7532     2.3821  H       1  <O>11       0.0633
  32 H6        2.5488     2.5628     3.3735  H       1  <O>11       0.0830
  33 H7        6.3866     5.0100     9.1172  H       1  <O>11       0.0625
  34 H8        7.0416     4.6629    11.4283  H       1  <O>11       0.0618
  35 H9        6.2475     2.7139    12.6449  H       1  <O>11       0.0637
  36 H10       4.7972    -0.0647    15.4033  H       1  <O>11       0.0637
  37 H11       3.8346    -1.7257    16.8913  H       1  <O>11       0.0618
  38 H12       1.5949    -2.5754    16.4859  H       1  <O>11       0.0618
  39 H13       0.3197    -1.7551    14.5870  H       1  <O>11       0.0647
  40 H14       4.1252     1.4498     9.2312  H       1  <O>11       0.0645
@<TRIPOS>BOND
     1     1     2    2
     2     2     3   am
     3     3     4    1
     4     4     5   ar
     5     5     6   ar
     6     6     7   ar
     7     7     8   ar
     8     8     9   ar
     9     4     9   ar
    10     2    10    1
    11    10    11   ar
    12    11    12   ar
    13    12    13   ar
    14    13    14   ar
    15    14    15    1
    16    15    16    2
    17    15    17    2
    18    15    18    1
    19    18    19    1
    20    19    20   ar
    21    20    21   ar
    22    21    22   ar
    23    22    23   ar
    24    23    24   ar
    25    19    24   ar
    26    24    25    1
    27    14    26   ar
    28    10    26   ar
    29     3    27    1
    30    18    28    1
    31     5    29    1
    32     6    30    1
    33     7    31    1
    34     8    32    1
    35    11    33    1
    36    12    34    1
    37    13    35    1
    38    20    36    1
    39    21    37    1
    40    22    38    1
    41    23    39    1
    42    26    40    1
@<TRIPOS>MOLECULE
mol15_1_5
 40 42 0 0 0
SMALL
USER_CHARGES
****
VDW energy = -82.75
@<TRIPOS>ATOM
   1 O1        5.5173     2.9861     6.6958  O.2     1  <O>11      -0.2698
   2 C1        4.8288     3.4514     7.5917  C.2     1  <O>11       0.2494
   3 N1        3.6970     4.1600     7.2880  N.am    1  <O>11      -0.2664
   4 C2        3.3330     4.3490     5.9650  C.ar    1  <O>11       0.1251
   5 C3        2.5096     3.4206     5.3534  C.ar    1  <O>11      -0.0215
   6 C4        2.1484     3.6364     4.0253  C.ar    1  <O>11      -0.0571
   7 C5        2.6571     4.7649     3.3714  C.ar    1  <O>11      -0.0435
   8 C6        3.4823     5.6494     4.0642  C.ar    1  <O>11       0.0297
   9 N2        3.8163     5.4469     5.3493  N.ar    1  <O>11      -0.2401
  10 C7        5.2120     3.2520     8.9830  C.ar    1  <O>11       0.0389
  11 C8        6.0487     4.1795     9.6283  C.ar    1  <O>11      -0.0495
  12 C9        6.4247     3.9801    10.9610  C.ar    1  <O>11      -0.0592
  13 C10       5.9690     2.8612    11.6622  C.ar    1  <O>11      -0.0350
  14 C11       5.1308     1.9411    11.0202  C.ar    1  <O>11       0.1092
  15 S1        4.5593     0.5334    11.9083  S.O2    1  <O>11       0.0724
  16 O2        5.8584    -0.3710    12.4087  O.2     1  <O>11      -0.1500
  17 O3        3.5900    -0.3873    10.9222  O.2     1  <O>11      -0.1500
  18 N3        3.6932     1.0285    13.2262  N.pl3   1  <O>11      -0.2135
  19 C12       3.1136     0.0466    14.1236  C.ar    1  <O>11       0.0831
  20 C13       3.2848    -1.3260    13.8771  C.ar    1  <O>11      -0.0365
  21 C14       2.7152    -2.2731    14.7371  C.ar    1  <O>11      -0.0598
  22 C15       1.9769    -1.8597    15.8471  C.ar    1  <O>11      -0.0589
  23 C16       1.8116    -0.4921    16.0962  C.ar    1  <O>11      -0.0246
  24 C17       2.3766     0.4599    15.2463  C.ar    1  <O>11       0.1456
  25 F1        2.2214     1.7990    15.4932  F       1  <O>11      -0.2035
  26 C18       4.7482     2.1314     9.6921  C.ar    1  <O>11      -0.0230
  27 H1        3.1230     4.5480     8.0360  H       1  <O>11       0.1566
  28 H2        3.5674     2.0238    13.4090  H       1  <O>11       0.1738
  29 H3        2.1724     2.5912     5.8667  H       1  <O>11       0.0652
  30 H4        1.5206     2.9800     3.5352  H       1  <O>11       0.0619
  31 H5        2.4225     4.9411     2.3820  H       1  <O>11       0.0633
  32 H6        3.8467     6.4826     3.5763  H       1  <O>11       0.0830
  33 H7        6.3866     5.0100     9.1172  H       1  <O>11       0.0625
  34 H8        7.0416     4.6629    11.4283  H       1  <O>11       0.0618
  35 H9        6.2475     2.7139    12.6449  H       1  <O>11       0.0637
  36 H10       3.8323    -1.6373    13.0594  H       1  <O>11       0.0637
  37 H11       2.8417    -3.2799    14.5495  H       1  <O>11       0.0618
  38 H12       1.5557    -2.5576    16.4801  H       1  <O>11       0.0618
  39 H13       1.2663    -0.1847    16.9167  H       1  <O>11       0.0647
  40 H14       4.1252     1.4498     9.2312  H       1  <O>11       0.0645
@<TRIPOS>BOND
     1     1     2    2
     2     2     3   am
     3     3     4    1
     4     4     5   ar
     5     5     6   ar
     6     6     7   ar
     7     7     8   ar
     8     8     9   ar
     9     4     9   ar
    10     2    10    1
    11    10    11   ar
    12    11    12   ar
    13    12    13   ar
    14    13    14   ar
    15    14    15    1
    16    15    16    2
    17    15    17    2
    18    15    18    1
    19    18    19    1
    20    19    20   ar
    21    20    21   ar
    22    21    22   ar
    23    22    23   ar
    24    23    24   ar
    25    19    24   ar
    26    24    25    1
    27    14    26   ar
    28    10    26   ar
    29     3    27    1
    30    18    28    1
    31     5    29    1
    32     6    30    1
    33     7    31    1
    34     8    32    1
    35    11    33    1
    36    12    34    1
    37    13    35    1
    38    20    36    1
    39    21    37    1
    40    22    38    1
    41    23    39    1
    42    26    40    1
@<TRIPOS>MOLECULE
mol15_1_6
 40 42 0 0 0
SMALL
USER_CHARGES
****
VDW energy = -82.60
@<TRIPOS>ATOM
   1 O1        5.5173     2.9861     6.6958  O.2     1  <O>11      -0.2698
   2 C1        4.8288     3.4514     7.5917  C.2     1  <O>11       0.2494
   3 N1        3.6970     4.1600     7.2880  N.am    1  <O>11      -0.2664
   4 C2        3.3332     4.3493     5.9650  C.ar    1  <O>11       0.1251
   5 C3        3.2306     5.6378     5.4720  C.ar    1  <O>11      -0.0215
   6 C4        2.8731     5.8039     4.1358  C.ar    1  <O>11      -0.0571
   7 C5        2.6108     4.6620     3.3694  C.ar    1  <O>11      -0.0435
   8 C6        2.7374     3.3998     3.9476  C.ar    1  <O>11       0.0297
   9 N2        3.0976     3.2424     5.2319  N.ar    1  <O>11      -0.2401
  10 C7        5.2120     3.2520     8.9830  C.ar    1  <O>11       0.0389
  11 C8        6.0487     4.1795     9.6283  C.ar    1  <O>11      -0.0495
  12 C9        6.4247     3.9801    10.9610  C.ar    1  <O>11      -0.0592
  13 C10       5.9690     2.8612    11.6622  C.ar    1  <O>11      -0.0350
  14 C11       5.1308     1.9411    11.0202  C.ar    1  <O>11       0.1092
  15 S1        4.5593     0.5334    11.9083  S.O2    1  <O>11       0.0724
  16 O2        3.6884     1.0294    13.2319  O.2     1  <O>11      -0.1500
  17 O3        5.8597    -0.3715    12.4080  O.2     1  <O>11      -0.1500
  18 N3        3.5949    -0.3823    10.9267  N.pl3   1  <O>11      -0.2135
  19 C12       2.9972    -1.6039    11.4325  C.ar    1  <O>11       0.0831
  20 C13       1.7344    -1.5722    12.0478  C.ar    1  <O>11      -0.0365
  21 C14       1.1634    -2.7497    12.5462  C.ar    1  <O>11      -0.0598
  22 C15       1.8432    -3.9633    12.4315  C.ar    1  <O>11      -0.0589
  23 C16       3.0986    -3.9958    11.8129  C.ar    1  <O>11      -0.0246
  24 C17       3.6758    -2.8283    11.3113  C.ar    1  <O>11       0.1456
  25 F1        4.9015    -2.8601    10.6992  F       1  <O>11      -0.2035
  26 C18       4.7482     2.1314     9.6921  C.ar    1  <O>11      -0.0230
  27 H1        3.1229     4.5478     8.0360  H       1  <O>11       0.1566
  28 H2        3.4192    -0.0878     9.9663  H       1  <O>11       0.1738
  29 H3        3.4139     6.4534     6.0773  H       1  <O>11       0.0652
  30 H4        2.8033     6.7462     3.7208  H       1  <O>11       0.0619
  31 H5        2.3253     4.7541     2.3820  H       1  <O>11       0.0633
  32 H6        2.5494     2.5635     3.3730  H       1  <O>11       0.0830
  33 H7        6.3866     5.0100     9.1172  H       1  <O>11       0.0625
  34 H8        7.0416     4.6629    11.4283  H       1  <O>11       0.0618
  35 H9        6.2475     2.7139    12.6449  H       1  <O>11       0.0637
  36 H10       1.2259    -0.6781    12.1326  H       1  <O>11       0.0637
  37 H11       0.2369    -2.7200    12.9998  H       1  <O>11       0.0618
  38 H12       1.4232    -4.8309    12.8002  H       1  <O>11       0.0618
  39 H13       3.6025    -4.8923    11.7270  H       1  <O>11       0.0647
  40 H14       4.1252     1.4498     9.2312  H       1  <O>11       0.0645
@<TRIPOS>BOND
     1     1     2    2
     2     2     3   am
     3     3     4    1
     4     4     5   ar
     5     5     6   ar
     6     6     7   ar
     7     7     8   ar
     8     8     9   ar
     9     4     9   ar
    10     2    10    1
    11    10    11   ar
    12    11    12   ar
    13    12    13   ar
    14    13    14   ar
    15    14    15    1
    16    15    16    2
    17    15    17    2
    18    15    18    1
    19    18    19    1
    20    19    20   ar
    21    20    21   ar
    22    21    22   ar
    23    22    23   ar
    24    23    24   ar
    25    19    24   ar
    26    24    25    1
    27    14    26   ar
    28    10    26   ar
    29     3    27    1
    30    18    28    1
    31     5    29    1
    32     6    30    1
    33     7    31    1
    34     8    32    1
    35    11    33    1
    36    12    34    1
    37    13    35    1
    38    20    36    1
    39    21    37    1
    40    22    38    1
    41    23    39    1
    42    26    40    1
@<TRIPOS>MOLECULE
mol15_1_7
 40 42 0 0 0
SMALL
USER_CHARGES
****
VDW energy = -82.35
@<TRIPOS>ATOM
   1 O1        5.5173     2.9861     6.6958  O.2     1  <O>11      -0.2698
   2 C1        4.8288     3.4514     7.5917  C.2     1  <O>11       0.2494
   3 N1        3.6970     4.1600     7.2880  N.am    1  <O>11      -0.2664
   4 C2        3.3330     4.3490     5.9650  C.ar    1  <O>11       0.1251
   5 C3        3.8022     5.4613     5.2893  C.ar    1  <O>11      -0.0215
   6 C4        3.4314     5.6256     3.9565  C.ar    1  <O>11      -0.0571
   7 C5        2.5837     4.6731     3.3785  C.ar    1  <O>11      -0.0435
   8 C6        2.1568     3.5818     4.1336  C.ar    1  <O>11       0.0297
   9 N2        2.5287     3.4178     5.4138  N.ar    1  <O>11      -0.2401
  10 C7        5.2120     3.2520     8.9830  C.ar    1  <O>11       0.0389
  11 C8        6.3730     2.5260     9.3020  C.ar    1  <O>11      -0.0495
  12 C9        6.7330     2.3260    10.6390  C.ar    1  <O>11      -0.0592
  13 C10       5.9450     2.8490    11.6670  C.ar    1  <O>11      -0.0350
  14 C11       4.7920     3.5770    11.3480  C.ar    1  <O>11       0.1092
  15 S1        3.8030     4.2340    12.6470  S.O2    1  <O>11       0.0724
  16 O2        3.0590     5.6243    12.1278  O.2     1  <O>11      -0.1500
  17 O3        4.7657     4.5765    13.9567  O.2     1  <O>11      -0.1500
  18 N3        2.6564     3.1252    13.0804  N.pl3   1  <O>11      -0.2135
  19 C12       1.7117     3.4343    14.1374  C.ar    1  <O>11       0.0831
  20 C13       2.0138     3.1164    15.4723  C.ar    1  <O>11      -0.0365
  21 C14       1.0965     3.4044    16.4904  C.ar    1  <O>11      -0.0598
  22 C15      -0.1223     4.0128    16.1864  C.ar    1  <O>11      -0.0589
  23 C16      -0.4206     4.3352    14.8572  C.ar    1  <O>11      -0.0246
  24 C17       0.4873     4.0541    13.8352  C.ar    1  <O>11       0.1456
  25 F1        0.1994     4.3758    12.5345  F       1  <O>11      -0.2035
  26 C18       4.4250     3.7840    10.0180  C.ar    1  <O>11      -0.0230
  27 H1        3.1230     4.5480     8.0360  H       1  <O>11       0.1566
  28 H2        2.6124     2.2246    12.6040  H       1  <O>11       0.1738
  29 H3        4.4100     6.1502     5.7595  H       1  <O>11       0.0652
  30 H4        3.7734     6.4303     3.4083  H       1  <O>11       0.0619
  31 H5        2.2765     4.7782     2.3989  H       1  <O>11       0.0633
  32 H6        1.5381     2.8807     3.6969  H       1  <O>11       0.0830
  33 H7        6.9615     2.1394     8.5475  H       1  <O>11       0.0625
  34 H8        7.5847     1.7896    10.8669  H       1  <O>11       0.0618
  35 H9        6.2102     2.7002    12.6532  H       1  <O>11       0.0637
  36 H10       2.9148     2.6691    15.7031  H       1  <O>11       0.0637
  37 H11       1.3224     3.1659    17.4687  H       1  <O>11       0.0618
  38 H12      -0.7991     4.2237    16.9365  H       1  <O>11       0.0618
  39 H13      -1.3212     4.7855    14.6306  H       1  <O>11       0.0647
  40 H14       3.5764     4.3273     9.7948  H       1  <O>11       0.0645
@<TRIPOS>BOND
     1     1     2    2
     2     2     3   am
     3     3     4    1
     4     4     5   ar
     5     5     6   ar
     6     6     7   ar
     7     7     8   ar
     8     8     9   ar
     9     4     9   ar
    10     2    10    1
    11    10    11   ar
    12    11    12   ar
    13    12    13   ar
    14    13    14   ar
    15    14    15    1
    16    15    16    2
    17    15    17    2
    18    15    18    1
    19    18    19    1
    20    19    20   ar
    21    20    21   ar
    22    21    22   ar
    23    22    23   ar
    24    23    24   ar
    25    19    24   ar
    26    24    25    1
    27    14    26   ar
    28    10    26   ar
    29     3    27    1
    30    18    28    1
    31     5    29    1
    32     6    30    1
    33     7    31    1
    34     8    32    1
    35    11    33    1
    36    12    34    1
    37    13    35    1
    38    20    36    1
    39    21    37    1
    40    22    38    1
    41    23    39    1
    42    26    40    1
@<TRIPOS>MOLECULE
mol15_1_8
 40 42 0 0 0
SMALL
USER_CHARGES
****
VDW energy = -82.31
@<TRIPOS>ATOM
   1 O1        5.5173     2.9861     6.6958  O.2     1  <O>11      -0.2698
   2 C1        4.8288     3.4514     7.5917  C.2     1  <O>11       0.2494
   3 N1        3.6970     4.1600     7.2880  N.am    1  <O>11      -0.2664
   4 C2        3.3330     4.3490     5.9650  C.ar    1  <O>11       0.1251
   5 C3        3.8022     5.4613     5.2893  C.ar    1  <O>11      -0.0215
   6 C4        3.4314     5.6256     3.9565  C.ar    1  <O>11      -0.0571
   7 C5        2.5837     4.6731     3.3785  C.ar    1  <O>11      -0.0435
   8 C6        2.1568     3.5818     4.1336  C.ar    1  <O>11       0.0297
   9 N2        2.5287     3.4178     5.4138  N.ar    1  <O>11      -0.2401
  10 C7        5.2120     3.2520     8.9830  C.ar    1  <O>11       0.0389
  11 C8        6.0487     4.1795     9.6283  C.ar    1  <O>11      -0.0495
  12 C9        6.4247     3.9801    10.9610  C.ar    1  <O>11      -0.0592
  13 C10       5.9690     2.8612    11.6622  C.ar    1  <O>11      -0.0350
  14 C11       5.1308     1.9411    11.0202  C.ar    1  <O>11       0.1092
  15 S1        4.5593     0.5334    11.9083  S.O2    1  <O>11       0.0724
  16 O2        5.8584    -0.3710    12.4087  O.2     1  <O>11      -0.1500
  17 O3        3.5900    -0.3873    10.9222  O.2     1  <O>11      -0.1500
  18 N3        3.6932     1.0285    13.2262  N.pl3   1  <O>11      -0.2135
  19 C12       3.1136     0.0466    14.1236  C.ar    1  <O>11       0.0831
  20 C13       3.2848    -1.3260    13.8771  C.ar    1  <O>11      -0.0365
  21 C14       2.7152    -2.2731    14.7371  C.ar    1  <O>11      -0.0598
  22 C15       1.9769    -1.8597    15.8471  C.ar    1  <O>11      -0.0589
  23 C16       1.8116    -0.4921    16.0962  C.ar    1  <O>11      -0.0246
  24 C17       2.3766     0.4599    15.2463  C.ar    1  <O>11       0.1456
  25 F1        2.2214     1.7990    15.4932  F       1  <O>11      -0.2035
  26 C18       4.7482     2.1314     9.6921  C.ar    1  <O>11      -0.0230
  27 H1        3.1230     4.5480     8.0360  H       1  <O>11       0.1566
  28 H2        3.5674     2.0238    13.4090  H       1  <O>11       0.1738
  29 H3        4.4100     6.1502     5.7595  H       1  <O>11       0.0652
  30 H4        3.7734     6.4303     3.4083  H       1  <O>11       0.0619
  31 H5        2.2765     4.7782     2.3989  H       1  <O>11       0.0633
  32 H6        1.5381     2.8807     3.6969  H       1  <O>11       0.0830
  33 H7        6.3866     5.0100     9.1172  H       1  <O>11       0.0625
  34 H8        7.0416     4.6629    11.4283  H       1  <O>11       0.0618
  35 H9        6.2475     2.7139    12.6449  H       1  <O>11       0.0637
  36 H10       3.8323    -1.6373    13.0594  H       1  <O>11       0.0637
  37 H11       2.8417    -3.2799    14.5495  H       1  <O>11       0.0618
  38 H12       1.5557    -2.5576    16.4801  H       1  <O>11       0.0618
  39 H13       1.2663    -0.1847    16.9167  H       1  <O>11       0.0647
  40 H14       4.1252     1.4498     9.2312  H       1  <O>11       0.0645
@<TRIPOS>BOND
     1     1     2    2
     2     2     3   am
     3     3     4    1
     4     4     5   ar
     5     5     6   ar
     6     6     7   ar
     7     7     8   ar
     8     8     9   ar
     9     4     9   ar
    10     2    10    1
    11    10    11   ar
    12    11    12   ar
    13    12    13   ar
    14    13    14   ar
    15    14    15    1
    16    15    16    2
    17    15    17    2
    18    15    18    1
    19    18    19    1
    20    19    20   ar
    21    20    21   ar
    22    21    22   ar
    23    22    23   ar
    24    23    24   ar
    25    19    24   ar
    26    24    25    1
    27    14    26   ar
    28    10    26   ar
    29     3    27    1
    30    18    28    1
    31     5    29    1
    32     6    30    1
    33     7    31    1
    34     8    32    1
    35    11    33    1
    36    12    34    1
    37    13    35    1
    38    20    36    1
    39    21    37    1
    40    22    38    1
    41    23    39    1
    42    26    40    1
@<TRIPOS>MOLECULE
mol15_1_9
 40 42 0 0 0
SMALL
USER_CHARGES
****
VDW energy = -79.57
@<TRIPOS>ATOM
   1 O1        5.5173     2.9861     6.6958  O.2     1  <O>11      -0.2698
   2 C1        4.8288     3.4514     7.5917  C.2     1  <O>11       0.2494
   3 N1        3.6970     4.1600     7.2880  N.am    1  <O>11      -0.2664
   4 C2        3.3330     4.3490     5.9650  C.ar    1  <O>11       0.1251
   5 C3        3.2305     5.6375     5.4717  C.ar    1  <O>11      -0.0215
   6 C4        2.8728     5.8032     4.1355  C.ar    1  <O>11      -0.0571
   7 C5        2.6103     4.6612     3.3694  C.ar    1  <O>11      -0.0435
   8 C6        2.7370     3.3992     3.9478  C.ar    1  <O>11       0.0297
   9 N2        3.0972     3.2420     5.2322  N.ar    1  <O>11      -0.2401
  10 C7        5.2120     3.2520     8.9830  C.ar    1  <O>11       0.0389
  11 C8        6.0487     4.1795     9.6283  C.ar    1  <O>11      -0.0495
  12 C9        6.4247     3.9801    10.9610  C.ar    1  <O>11      -0.0592
  13 C10       5.9690     2.8612    11.6622  C.ar    1  <O>11      -0.0350
  14 C11       5.1308     1.9411    11.0202  C.ar    1  <O>11       0.1092
  15 S1        4.5593     0.5334    11.9083  S.O2    1  <O>11       0.0724
  16 O2        5.8584    -0.3710    12.4087  O.2     1  <O>11      -0.1500
  17 O3        3.5900    -0.3873    10.9222  O.2     1  <O>11      -0.1500
  18 N3        3.6932     1.0285    13.2262  N.pl3   1  <O>11      -0.2135
  19 C12       4.3241     1.8515    14.2411  C.ar    1  <O>11       0.0831
  20 C13       4.2917     3.2524    14.1373  C.ar    1  <O>11      -0.0365
  21 C14       4.9110     4.0458    15.1110  C.ar    1  <O>11      -0.0598
  22 C15       5.5611     3.4503    16.1931  C.ar    1  <O>11      -0.0589
  23 C16       5.5880     2.0547    16.2996  C.ar    1  <O>11      -0.0246
  24 C17       4.9724     1.2550    15.3357  C.ar    1  <O>11       0.1456
  25 F1        4.9919    -0.1112    15.4428  F       1  <O>11      -0.2035
  26 C18       4.7482     2.1314     9.6921  C.ar    1  <O>11      -0.0230
  27 H1        3.1230     4.5480     8.0360  H       1  <O>11       0.1566
  28 H2        2.7154     0.7564    13.3252  H       1  <O>11       0.1738
  29 H3        3.4139     6.4531     6.0768  H       1  <O>11       0.0652
  30 H4        2.8029     6.7455     3.7203  H       1  <O>11       0.0619
  31 H5        2.3246     4.7532     2.3821  H       1  <O>11       0.0633
  32 H6        2.5488     2.5628     3.3735  H       1  <O>11       0.0830
  33 H7        6.3866     5.0100     9.1172  H       1  <O>11       0.0625
  34 H8        7.0416     4.6629    11.4283  H       1  <O>11       0.0618
  35 H9        6.2475     2.7139    12.6449  H       1  <O>11       0.0637
  36 H10       3.8099     3.6981    13.3409  H       1  <O>11       0.0637
  37 H11       4.8866     5.0741    15.0281  H       1  <O>11       0.0618
  38 H12       6.0189     4.0349    16.9098  H       1  <O>11       0.0618
  39 H13       6.0679     1.6128    17.0992  H       1  <O>11       0.0647
  40 H14       4.1252     1.4498     9.2312  H       1  <O>11       0.0645
@<TRIPOS>BOND
     1     1     2    2
     2     2     3   am
     3     3     4    1
     4     4     5   ar
     5     5     6   ar
     6     6     7   ar
     7     7     8   ar
     8     8     9   ar
     9     4     9   ar
    10     2    10    1
    11    10    11   ar
    12    11    12   ar
    13    12    13   ar
    14    13    14   ar
    15    14    15    1
    16    15    16    2
    17    15    17    2
    18    15    18    1
    19    18    19    1
    20    19    20   ar
    21    20    21   ar
    22    21    22   ar
    23    22    23   ar
    24    23    24   ar
    25    19    24   ar
    26    24    25    1
    27    14    26   ar
    28    10    26   ar
    29     3    27    1
    30    18    28    1
    31     5    29    1
    32     6    30    1
    33     7    31    1
    34     8    32    1
    35    11    33    1
    36    12    34    1
    37    13    35    1
    38    20    36    1
    39    21    37    1
    40    22    38    1
    41    23    39    1
    42    26    40    1
@<TRIPOS>MOLECULE
mol15_1_10
 40 42 0 0 0
SMALL
USER_CHARGES
****
VDW energy = -79.49
@<TRIPOS>ATOM
   1 O1        5.5173     2.9861     6.6958  O.2     1  <O>11      -0.2698
   2 C1        4.8288     3.4514     7.5917  C.2     1  <O>11       0.2494
   3 N1        3.6970     4.1600     7.2880  N.am    1  <O>11      -0.2664
   4 C2        3.3330     4.3490     5.9650  C.ar    1  <O>11       0.1251
   5 C3        2.5096     3.4206     5.3534  C.ar    1  <O>11      -0.0215
   6 C4        2.1484     3.6364     4.0253  C.ar    1  <O>11      -0.0571
   7 C5        2.6571     4.7649     3.3714  C.ar    1  <O>11      -0.0435
   8 C6        3.4823     5.6494     4.0642  C.ar    1  <O>11       0.0297
   9 N2        3.8163     5.4469     5.3493  N.ar    1  <O>11      -0.2401
  10 C7        5.2120     3.2520     8.9830  C.ar    1  <O>11       0.0389
  11 C8        6.3730     2.5260     9.3020  C.ar    1  <O>11      -0.0495
  12 C9        6.7330     2.3260    10.6390  C.ar    1  <O>11      -0.0592
  13 C10       5.9450     2.8490    11.6670  C.ar    1  <O>11      -0.0350
  14 C11       4.7920     3.5770    11.3480  C.ar    1  <O>11       0.1092
  15 S1        3.8030     4.2340    12.6470  S.O2    1  <O>11       0.0724
  16 O2        3.0590     5.6243    12.1278  O.2     1  <O>11      -0.1500
  17 O3        4.7657     4.5765    13.9567  O.2     1  <O>11      -0.1500
  18 N3        2.6564     3.1252    13.0804  N.pl3   1  <O>11      -0.2135
  19 C12       1.6894     2.6620    12.1027  C.ar    1  <O>11       0.0831
  20 C13       1.6951     1.3217    11.6814  C.ar    1  <O>11      -0.0365
  21 C14       0.7691     0.8783    10.7290  C.ar    1  <O>11      -0.0598
  22 C15      -0.1682     1.7639    10.1950  C.ar    1  <O>11      -0.0589
  23 C16      -0.1777     3.0979    10.6195  C.ar    1  <O>11      -0.0246
  24 C17       0.7396     3.5496    11.5693  C.ar    1  <O>11       0.1456
  25 F1        0.7265     4.8536    11.9909  F       1  <O>11      -0.2035
  26 C18       4.4250     3.7840    10.0180  C.ar    1  <O>11      -0.0230
  27 H1        3.1230     4.5480     8.0360  H       1  <O>11       0.1566
  28 H2        2.6296     2.7659    14.0344  H       1  <O>11       0.1738
  29 H3        2.1724     2.5912     5.8667  H       1  <O>11       0.0652
  30 H4        1.5206     2.9800     3.5352  H       1  <O>11       0.0619
  31 H5        2.4225     4.9411     2.3820  H       1  <O>11       0.0633
  32 H6        3.8467     6.4826     3.5763  H       1  <O>11       0.0830
  33 H7        6.9615     2.1394     8.5475  H       1  <O>11       0.0625
  34 H8        7.5847     1.7896    10.8669  H       1  <O>11       0.0618
  35 H9        6.2102     2.7002    12.6532  H       1  <O>11       0.0637
  36 H10       2.3840     0.6617    12.0751  H       1  <O>11       0.0637
  37 H11       0.7798    -0.1066    10.4211  H       1  <O>11       0.0618
  38 H12      -0.8496     1.4377     9.4920  H       1  <O>11       0.0618
  39 H13      -0.8703     3.7541    10.2260  H       1  <O>11       0.0647
  40 H14       3.5764     4.3273     9.7948  H       1  <O>11       0.0645
@<TRIPOS>BOND
     1     1     2    2
     2     2     3   am
     3     3     4    1
     4     4     5   ar
     5     5     6   ar
     6     6     7   ar
     7     7     8   ar
     8     8     9   ar
     9     4     9   ar
    10     2    10    1
    11    10    11   ar
    12    11    12   ar
    13    12    13   ar
    14    13    14   ar
    15    14    15    1
    16    15    16    2
    17    15    17    2
    18    15    18    1
    19    18    19    1
    20    19    20   ar
    21    20    21   ar
    22    21    22   ar
    23    22    23   ar
    24    23    24   ar
    25    19    24   ar
    26    24    25    1
    27    14    26   ar
    28    10    26   ar
    29     3    27    1
    30    18    28    1
    31     5    29    1
    32     6    30    1
    33     7    31    1
    34     8    32    1
    35    11    33    1
    36    12    34    1
    37    13    35    1
    38    20    36    1
    39    21    37    1
    40    22    38    1
    41    23    39    1
    42    26    40    1
@<TRIPOS>MOLECULE
mol15_1_11
 40 42 0 0 0
SMALL
USER_CHARGES
****
VDW energy = -79.47
@<TRIPOS>ATOM
   1 O1        5.5173     2.9861     6.6958  O.2     1  <O>11      -0.2698
   2 C1        4.8288     3.4514     7.5917  C.2     1  <O>11       0.2494
   3 N1        3.6970     4.1600     7.2880  N.am    1  <O>11      -0.2664
   4 C2        3.3330     4.3490     5.9650  C.ar    1  <O>11       0.1251
   5 C3        3.2305     5.6375     5.4717  C.ar    1  <O>11      -0.0215
   6 C4        2.8728     5.8032     4.1355  C.ar    1  <O>11      -0.0571
   7 C5        2.6103     4.6612     3.3694  C.ar    1  <O>11      -0.0435
   8 C6        2.7370     3.3992     3.9478  C.ar    1  <O>11       0.0297
   9 N2        3.0972     3.2420     5.2322  N.ar    1  <O>11      -0.2401
  10 C7        5.2120     3.2520     8.9830  C.ar    1  <O>11       0.0389
  11 C8        6.0487     4.1795     9.6283  C.ar    1  <O>11      -0.0495
  12 C9        6.4247     3.9801    10.9610  C.ar    1  <O>11      -0.0592
  13 C10       5.9690     2.8612    11.6622  C.ar    1  <O>11      -0.0350
  14 C11       5.1308     1.9411    11.0202  C.ar    1  <O>11       0.1092
  15 S1        4.5593     0.5334    11.9083  S.O2    1  <O>11       0.0724
  16 O2        5.8584    -0.3710    12.4087  O.2     1  <O>11      -0.1500
  17 O3        3.5900    -0.3873    10.9222  O.2     1  <O>11      -0.1500
  18 N3        3.6932     1.0285    13.2262  N.pl3   1  <O>11      -0.2135
  19 C12       3.1136     0.0466    14.1236  C.ar    1  <O>11       0.0831
  20 C13       1.7182    -0.0734    14.2358  C.ar    1  <O>11      -0.0365
  21 C14       1.1596    -1.0132    15.1109  C.ar    1  <O>11      -0.0598
  22 C15       1.9853    -1.8397    15.8745  C.ar    1  <O>11      -0.0589
  23 C16       3.3756    -1.7243    15.7581  C.ar    1  <O>11      -0.0246
  24 C17       3.9424    -0.7922    14.8877  C.ar    1  <O>11       0.1456
  25 F1        5.3033    -0.6834    14.7676  F       1  <O>11      -0.2035
  26 C18       4.7482     2.1314     9.6921  C.ar    1  <O>11      -0.0230
  27 H1        3.1230     4.5480     8.0360  H       1  <O>11       0.1566
  28 H2        3.5674     2.0238    13.4090  H       1  <O>11       0.1738
  29 H3        3.4139     6.4531     6.0768  H       1  <O>11       0.0652
  30 H4        2.8029     6.7455     3.7203  H       1  <O>11       0.0619
  31 H5        2.3246     4.7532     2.3821  H       1  <O>11       0.0633
  32 H6        2.5488     2.5628     3.3735  H       1  <O>11       0.0830
  33 H7        6.3866     5.0100     9.1172  H       1  <O>11       0.0625
  34 H8        7.0416     4.6629    11.4283  H       1  <O>11       0.0618
  35 H9        6.2475     2.7139    12.6449  H       1  <O>11       0.0637
  36 H10       1.1028     0.5332    13.6714  H       1  <O>11       0.0637
  37 H11       0.1340    -1.0948    15.1914  H       1  <O>11       0.0618
  38 H12       1.5738    -2.5312    16.5206  H       1  <O>11       0.0618
  39 H13       3.9877    -2.3349    16.3216  H       1  <O>11       0.0647
  40 H14       4.1252     1.4498     9.2312  H       1  <O>11       0.0645
@<TRIPOS>BOND
     1     1     2    2
     2     2     3   am
     3     3     4    1
     4     4     5   ar
     5     5     6   ar
     6     6     7   ar
     7     7     8   ar
     8     8     9   ar
     9     4     9   ar
    10     2    10    1
    11    10    11   ar
    12    11    12   ar
    13    12    13   ar
    14    13    14   ar
    15    14    15    1
    16    15    16    2
    17    15    17    2
    18    15    18    1
    19    18    19    1
    20    19    20   ar
    21    20    21   ar
    22    21    22   ar
    23    22    23   ar
    24    23    24   ar
    25    19    24   ar
    26    24    25    1
    27    14    26   ar
    28    10    26   ar
    29     3    27    1
    30    18    28    1
    31     5    29    1
    32     6    30    1
    33     7    31    1
    34     8    32    1
    35    11    33    1
    36    12    34    1
    37    13    35    1
    38    20    36    1
    39    21    37    1
    40    22    38    1
    41    23    39    1
    42    26    40    1
@<TRIPOS>MOLECULE
mol15_1_12
 40 42 0 0 0
SMALL
USER_CHARGES
****
VDW energy = -77.63
@<TRIPOS>ATOM
   1 O1        5.5173     2.9861     6.6958  O.2     1  <O>11      -0.2698
   2 C1        4.8288     3.4514     7.5917  C.2     1  <O>11       0.2494
   3 N1        3.6970     4.1600     7.2880  N.am    1  <O>11      -0.2664
   4 C2        3.3330     4.3490     5.9650  C.ar    1  <O>11       0.1251
   5 C3        2.5096     3.4206     5.3534  C.ar    1  <O>11      -0.0215
   6 C4        2.1484     3.6364     4.0253  C.ar    1  <O>11      -0.0571
   7 C5        2.6571     4.7649     3.3714  C.ar    1  <O>11      -0.0435
   8 C6        3.4823     5.6494     4.0642  C.ar    1  <O>11       0.0297
   9 N2        3.8163     5.4469     5.3493  N.ar    1  <O>11      -0.2401
  10 C7        5.2120     3.2520     8.9830  C.ar    1  <O>11       0.0389
  11 C8        6.0487     4.1795     9.6283  C.ar    1  <O>11      -0.0495
  12 C9        6.4247     3.9801    10.9610  C.ar    1  <O>11      -0.0592
  13 C10       5.9690     2.8612    11.6622  C.ar    1  <O>11      -0.0350
  14 C11       5.1308     1.9411    11.0202  C.ar    1  <O>11       0.1092
  15 S1        4.5593     0.5334    11.9083  S.O2    1  <O>11       0.0724
  16 O2        3.6892     1.0294    13.2324  O.2     1  <O>11      -0.1500
  17 O3        5.8596    -0.3720    12.4072  O.2     1  <O>11      -0.1500
  18 N3        3.5941    -0.3818    10.9270  N.pl3   1  <O>11      -0.2135
  19 C12       4.1283    -0.9358     9.6969  C.ar    1  <O>11       0.0831
  20 C13       5.4648    -0.6971     9.3347  C.ar    1  <O>11      -0.0365
  21 C14       5.9762    -1.2223     8.1416  C.ar    1  <O>11      -0.0598
  22 C15       5.1629    -1.9896     7.3062  C.ar    1  <O>11      -0.0589
  23 C16       3.8331    -2.2325     7.6702  C.ar    1  <O>11      -0.0246
  24 C17       3.3141    -1.7152     8.8579  C.ar    1  <O>11       0.1456
  25 F1        2.0145    -1.9584     9.2188  F       1  <O>11      -0.2035
  26 C18       4.7482     2.1314     9.6921  C.ar    1  <O>11      -0.0230
  27 H1        3.1230     4.5480     8.0360  H       1  <O>11       0.1566
  28 H2        2.6239    -0.5579    11.1869  H       1  <O>11       0.1738
  29 H3        2.1724     2.5912     5.8667  H       1  <O>11       0.0652
  30 H4        1.5206     2.9800     3.5352  H       1  <O>11       0.0619
  31 H5        2.4225     4.9411     2.3820  H       1  <O>11       0.0633
  32 H6        3.8467     6.4826     3.5763  H       1  <O>11       0.0830
  33 H7        6.3866     5.0100     9.1172  H       1  <O>11       0.0625
  34 H8        7.0416     4.6629    11.4283  H       1  <O>11       0.0618
  35 H9        6.2475     2.7139    12.6449  H       1  <O>11       0.0637
  36 H10       6.0715    -0.1329     9.9501  H       1  <O>11       0.0637
  37 H11       6.9577    -1.0413     7.8791  H       1  <O>11       0.0618
  38 H12       5.5393    -2.3753     6.4261  H       1  <O>11       0.0618
  39 H13       3.2305    -2.7999     7.0539  H       1  <O>11       0.0647
  40 H14       4.1252     1.4498     9.2312  H       1  <O>11       0.0645
@<TRIPOS>BOND
     1     1     2    2
     2     2     3   am
     3     3     4    1
     4     4     5   ar
     5     5     6   ar
     6     6     7   ar
     7     7     8   ar
     8     8     9   ar
     9     4     9   ar
    10     2    10    1
    11    10    11   ar
    12    11    12   ar
    13    12    13   ar
    14    13    14   ar
    15    14    15    1
    16    15    16    2
    17    15    17    2
    18    15    18    1
    19    18    19    1
    20    19    20   ar
    21    20    21   ar
    22    21    22   ar
    23    22    23   ar
    24    23    24   ar
    25    19    24   ar
    26    24    25    1
    27    14    26   ar
    28    10    26   ar
    29     3    27    1
    30    18    28    1
    31     5    29    1
    32     6    30    1
    33     7    31    1
    34     8    32    1
    35    11    33    1
    36    12    34    1
    37    13    35    1
    38    20    36    1
    39    21    37    1
    40    22    38    1
    41    23    39    1
    42    26    40    1
@<TRIPOS>MOLECULE
mol15_1_13
 40 42 0 0 0
SMALL
USER_CHARGES
****
VDW energy = -77.23
@<TRIPOS>ATOM
   1 O1        5.5173     2.9861     6.6958  O.2     1  <O>11      -0.2698
   2 C1        4.8288     3.4514     7.5917  C.2     1  <O>11       0.2494
   3 N1        3.6970     4.1600     7.2880  N.am    1  <O>11      -0.2664
   4 C2        3.3330     4.3490     5.9650  C.ar    1  <O>11       0.1251
   5 C3        3.8022     5.4613     5.2893  C.ar    1  <O>11      -0.0215
   6 C4        3.4314     5.6256     3.9565  C.ar    1  <O>11      -0.0571
   7 C5        2.5837     4.6731     3.3785  C.ar    1  <O>11      -0.0435
   8 C6        2.1568     3.5818     4.1336  C.ar    1  <O>11       0.0297
   9 N2        2.5287     3.4178     5.4138  N.ar    1  <O>11      -0.2401
  10 C7        5.2120     3.2520     8.9830  C.ar    1  <O>11       0.0389
  11 C8        6.3730     2.5260     9.3020  C.ar    1  <O>11      -0.0495
  12 C9        6.7330     2.3260    10.6390  C.ar    1  <O>11      -0.0592
  13 C10       5.9450     2.8490    11.6670  C.ar    1  <O>11      -0.0350
  14 C11       4.7920     3.5770    11.3480  C.ar    1  <O>11       0.1092
  15 S1        3.8030     4.2340    12.6470  S.O2    1  <O>11       0.0724
  16 O2        3.0590     5.6243    12.1278  O.2     1  <O>11      -0.1500
  17 O3        4.7657     4.5765    13.9567  O.2     1  <O>11      -0.1500
  18 N3        2.6564     3.1252    13.0804  N.pl3   1  <O>11      -0.2135
  19 C12       1.7117     3.4343    14.1374  C.ar    1  <O>11       0.0831
  20 C13       1.7671     4.6741    14.7962  C.ar    1  <O>11      -0.0365
  21 C14       0.8625     4.9672    15.8242  C.ar    1  <O>11      -0.0598
  22 C15      -0.1028     4.0311    16.1986  C.ar    1  <O>11      -0.0589
  23 C16      -0.1619     2.7983    15.5379  C.ar    1  <O>11      -0.0246
  24 C17       0.7338     2.4970    14.5109  C.ar    1  <O>11       0.1456
  25 F1        0.6721     1.2933    13.8586  F       1  <O>11      -0.2035
  26 C18       4.4250     3.7840    10.0180  C.ar    1  <O>11      -0.0230
  27 H1        3.1230     4.5480     8.0360  H       1  <O>11       0.1566
  28 H2        2.6124     2.2246    12.6040  H       1  <O>11       0.1738
  29 H3        4.4100     6.1502     5.7595  H       1  <O>11       0.0652
  30 H4        3.7734     6.4303     3.4083  H       1  <O>11       0.0619
  31 H5        2.2765     4.7782     2.3989  H       1  <O>11       0.0633
  32 H6        1.5381     2.8807     3.6969  H       1  <O>11       0.0830
  33 H7        6.9615     2.1394     8.5475  H       1  <O>11       0.0625
  34 H8        7.5847     1.7896    10.8669  H       1  <O>11       0.0618
  35 H9        6.2102     2.7002    12.6532  H       1  <O>11       0.0637
  36 H10       2.4769     5.3712    14.5215  H       1  <O>11       0.0637
  37 H11       0.9098     5.8782    16.3066  H       1  <O>11       0.0618
  38 H12      -0.7684     4.2463    16.9572  H       1  <O>11       0.0618
  39 H13      -0.8752     2.1051    15.8132  H       1  <O>11       0.0647
  40 H14       3.5764     4.3273     9.7948  H       1  <O>11       0.0645
@<TRIPOS>BOND
     1     1     2    2
     2     2     3   am
     3     3     4    1
     4     4     5   ar
     5     5     6   ar
     6     6     7   ar
     7     7     8   ar
     8     8     9   ar
     9     4     9   ar
    10     2    10    1
    11    10    11   ar
    12    11    12   ar
    13    12    13   ar
    14    13    14   ar
    15    14    15    1
    16    15    16    2
    17    15    17    2
    18    15    18    1
    19    18    19    1
    20    19    20   ar
    21    20    21   ar
    22    21    22   ar
    23    22    23   ar
    24    23    24   ar
    25    19    24   ar
    26    24    25    1
    27    14    26   ar
    28    10    26   ar
    29     3    27    1
    30    18    28    1
    31     5    29    1
    32     6    30    1
    33     7    31    1
    34     8    32    1
    35    11    33    1
    36    12    34    1
    37    13    35    1
    38    20    36    1
    39    21    37    1
    40    22    38    1
    41    23    39    1
    42    26    40    1
@<TRIPOS>MOLECULE
mol15_1_14
 40 42 0 0 0
SMALL
USER_CHARGES
****
VDW energy = -77.10
@<TRIPOS>ATOM
   1 O1        5.5173     2.9861     6.6958  O.2     1  <O>11      -0.2698
   2 C1        4.8288     3.4514     7.5917  C.2     1  <O>11       0.2494
   3 N1        3.6970     4.1600     7.2880  N.am    1  <O>11      -0.2664
   4 C2        3.3330     4.3490     5.9650  C.ar    1  <O>11       0.1251
   5 C3        2.1111     3.8701     5.5272  C.ar    1  <O>11      -0.0215
   6 C4        1.7617     4.0806     4.1952  C.ar    1  <O>11      -0.0571
   7 C5        2.6739     4.7408     3.3633  C.ar    1  <O>11      -0.0435
   8 C6        3.8849     5.1898     3.8878  C.ar    1  <O>11       0.0297
   9 N2        4.2123     4.9992     5.1764  N.ar    1  <O>11      -0.2401
  10 C7        5.2120     3.2520     8.9830  C.ar    1  <O>11       0.0389
  11 C8        6.0487     4.1795     9.6283  C.ar    1  <O>11      -0.0495
  12 C9        6.4247     3.9801    10.9610  C.ar    1  <O>11      -0.0592
  13 C10       5.9690     2.8612    11.6622  C.ar    1  <O>11      -0.0350
  14 C11       5.1308     1.9411    11.0202  C.ar    1  <O>11       0.1092
  15 S1        4.5593     0.5334    11.9083  S.O2    1  <O>11       0.0724
  16 O2        3.6892     1.0294    13.2324  O.2     1  <O>11      -0.1500
  17 O3        5.8596    -0.3720    12.4072  O.2     1  <O>11      -0.1500
  18 N3        3.5941    -0.3818    10.9270  N.pl3   1  <O>11      -0.2135
  19 C12       2.9963    -1.6033    11.4329  C.ar    1  <O>11       0.0831
  20 C13       3.2347    -2.0132    12.7555  C.ar    1  <O>11      -0.0365
  21 C14       2.6669    -3.1984    13.2393  C.ar    1  <O>11      -0.0598
  22 C15       1.8571    -3.9782    12.4120  C.ar    1  <O>11      -0.0589
  23 C16       1.6147    -3.5665    11.0962  C.ar    1  <O>11      -0.0246
  24 C17       2.1743    -2.3862    10.6048  C.ar    1  <O>11       0.1456
  25 F1        1.9317    -1.9785     9.3190  F       1  <O>11      -0.2035
  26 C18       4.7482     2.1314     9.6921  C.ar    1  <O>11      -0.0230
  27 H1        3.1230     4.5480     8.0360  H       1  <O>11       0.1566
  28 H2        3.4181    -0.0871     9.9668  H       1  <O>11       0.1738
  29 H3        1.4761     3.3710     6.1696  H       1  <O>11       0.0652
  30 H4        0.8520     3.7574     3.8302  H       1  <O>11       0.0619
  31 H5        2.4510     4.8942     2.3674  H       1  <O>11       0.0633
  32 H6        4.5480     5.6821     3.2690  H       1  <O>11       0.0830
  33 H7        6.3866     5.0100     9.1172  H       1  <O>11       0.0625
  34 H8        7.0416     4.6629    11.4283  H       1  <O>11       0.0618
  35 H9        6.2475     2.7139    12.6449  H       1  <O>11       0.0637
  36 H10       3.8302    -1.4390    13.3725  H       1  <O>11       0.0637
  37 H11       2.8478    -3.4961    14.2106  H       1  <O>11       0.0618
  38 H12       1.4400    -4.8524    12.7680  H       1  <O>11       0.0618
  39 H13       1.0159    -4.1417    10.4833  H       1  <O>11       0.0647
  40 H14       4.1252     1.4498     9.2312  H       1  <O>11       0.0645
@<TRIPOS>BOND
     1     1     2    2
     2     2     3   am
     3     3     4    1
     4     4     5   ar
     5     5     6   ar
     6     6     7   ar
     7     7     8   ar
     8     8     9   ar
     9     4     9   ar
    10     2    10    1
    11    10    11   ar
    12    11    12   ar
    13    12    13   ar
    14    13    14   ar
    15    14    15    1
    16    15    16    2
    17    15    17    2
    18    15    18    1
    19    18    19    1
    20    19    20   ar
    21    20    21   ar
    22    21    22   ar
    23    22    23   ar
    24    23    24   ar
    25    19    24   ar
    26    24    25    1
    27    14    26   ar
    28    10    26   ar
    29     3    27    1
    30    18    28    1
    31     5    29    1
    32     6    30    1
    33     7    31    1
    34     8    32    1
    35    11    33    1
    36    12    34    1
    37    13    35    1
    38    20    36    1
    39    21    37    1
    40    22    38    1
    41    23    39    1
    42    26    40    1
@<TRIPOS>MOLECULE
mol15_1_15
 40 42 0 0 0
SMALL
USER_CHARGES
****
VDW energy = -69.16
@<TRIPOS>ATOM
   1 O1        5.5173     2.9861     6.6958  O.2     1  <O>11      -0.2698
   2 C1        4.8288     3.4514     7.5917  C.2     1  <O>11       0.2494
   3 N1        3.6970     4.1600     7.2880  N.am    1  <O>11      -0.2664
   4 C2        3.3330     4.3490     5.9650  C.ar    1  <O>11       0.1251
   5 C3        2.5096     3.4206     5.3534  C.ar    1  <O>11      -0.0215
   6 C4        2.1484     3.6364     4.0253  C.ar    1  <O>11      -0.0571
   7 C5        2.6571     4.7649     3.3714  C.ar    1  <O>11      -0.0435
   8 C6        3.4823     5.6494     4.0642  C.ar    1  <O>11       0.0297
   9 N2        3.8163     5.4469     5.3493  N.ar    1  <O>11      -0.2401
  10 C7        5.2120     3.2520     8.9830  C.ar    1  <O>11       0.0389
  11 C8        6.3730     2.5260     9.3020  C.ar    1  <O>11      -0.0495
  12 C9        6.7330     2.3260    10.6390  C.ar    1  <O>11      -0.0592
  13 C10       5.9450     2.8490    11.6670  C.ar    1  <O>11      -0.0350
  14 C11       4.7920     3.5770    11.3480  C.ar    1  <O>11       0.1092
  15 S1        3.8030     4.2340    12.6470  S.O2    1  <O>11       0.0724
  16 O2        4.7120     5.2810    13.5600  O.2     1  <O>11      -0.1500
  17 O3        3.2550     2.9940    13.6070  O.2     1  <O>11      -0.1500
  18 N3        2.5140     5.0430    12.0020  N.pl3   1  <O>11      -0.2135
  19 C12       1.5648     4.3402    11.1591  C.ar    1  <O>11       0.0831
  20 C13       1.7366     2.9724    10.8875  C.ar    1  <O>11      -0.0365
  21 C14       0.8267     2.2975    10.0643  C.ar    1  <O>11      -0.0598
  22 C15      -0.2592     2.9782     9.5115  C.ar    1  <O>11      -0.0589
  23 C16      -0.4338     4.3395     9.7873  C.ar    1  <O>11      -0.0246
  24 C17       0.4663     5.0210    10.6077  C.ar    1  <O>11       0.1456
  25 F1        0.2924     6.3521    10.8842  F       1  <O>11      -0.2035
  26 C18       4.4250     3.7840    10.0180  C.ar    1  <O>11      -0.0230
  27 H1        3.1230     4.5480     8.0360  H       1  <O>11       0.1566
  28 H2        2.3854     6.0356    12.1976  H       1  <O>11       0.1738
  29 H3        2.1724     2.5912     5.8667  H       1  <O>11       0.0652
  30 H4        1.5206     2.9800     3.5352  H       1  <O>11       0.0619
  31 H5        2.4225     4.9411     2.3820  H       1  <O>11       0.0633
  32 H6        3.8467     6.4826     3.5763  H       1  <O>11       0.0830
  33 H7        6.9615     2.1394     8.5475  H       1  <O>11       0.0625
  34 H8        7.5847     1.7896    10.8669  H       1  <O>11       0.0618
  35 H9        6.2102     2.7002    12.6532  H       1  <O>11       0.0637
  36 H10       2.5362     2.4634    11.2959  H       1  <O>11       0.0637
  37 H11       0.9595     1.2935     9.8658  H       1  <O>11       0.0618
  38 H12      -0.9290     2.4813     8.9036  H       1  <O>11       0.0618
  39 H13      -1.2363     4.8443     9.3797  H       1  <O>11       0.0647
  40 H14       3.5764     4.3273     9.7948  H       1  <O>11       0.0645
@<TRIPOS>BOND
     1     1     2    2
     2     2     3   am
     3     3     4    1
     4     4     5   ar
     5     5     6   ar
     6     6     7   ar
     7     7     8   ar
     8     8     9   ar
     9     4     9   ar
    10     2    10    1
    11    10    11   ar
    12    11    12   ar
    13    12    13   ar
    14    13    14   ar
    15    14    15    1
    16    15    16    2
    17    15    17    2
    18    15    18    1
    19    18    19    1
    20    19    20   ar
    21    20    21   ar
    22    21    22   ar
    23    22    23   ar
    24    23    24   ar
    25    19    24   ar
    26    24    25    1
    27    14    26   ar
    28    10    26   ar
    29     3    27    1
    30    18    28    1
    31     5    29    1
    32     6    30    1
    33     7    31    1
    34     8    32    1
    35    11    33    1
    36    12    34    1
    37    13    35    1
    38    20    36    1
    39    21    37    1
    40    22    38    1
    41    23    39    1
    42    26    40    1
@<TRIPOS>MOLECULE
mol15_1_16
 40 42 0 0 0
SMALL
USER_CHARGES
****
VDW energy = -56.44
@<TRIPOS>ATOM
   1 O1        5.5173     2.9861     6.6958  O.2     1  <O>11      -0.2698
   2 C1        4.8288     3.4514     7.5917  C.2     1  <O>11       0.2494
   3 N1        3.6970     4.1600     7.2880  N.am    1  <O>11      -0.2664
   4 C2        3.3330     4.3490     5.9650  C.ar    1  <O>11       0.1251
   5 C3        4.1260     3.8150     4.9650  C.ar    1  <O>11      -0.0215
   6 C4        3.7350     4.0090     3.6420  C.ar    1  <O>11      -0.0571
   7 C5        2.5770     4.7550     3.3920  C.ar    1  <O>11      -0.0435
   8 C6        1.8370     5.2580     4.4610  C.ar    1  <O>11       0.0297
   9 N2        2.2080     5.0560     5.7360  N.ar    1  <O>11      -0.2401
  10 C7        5.2120     3.2520     8.9830  C.ar    1  <O>11       0.0389
  11 C8        6.0487     4.1795     9.6283  C.ar    1  <O>11      -0.0495
  12 C9        6.4247     3.9801    10.9610  C.ar    1  <O>11      -0.0592
  13 C10       5.9690     2.8612    11.6622  C.ar    1  <O>11      -0.0350
  14 C11       5.1308     1.9411    11.0202  C.ar    1  <O>11       0.1092
  15 S1        4.5593     0.5334    11.9083  S.O2    1  <O>11       0.0724
  16 O2        5.8584    -0.3710    12.4087  O.2     1  <O>11      -0.1500
  17 O3        3.5900    -0.3873    10.9222  O.2     1  <O>11      -0.1500
  18 N3        3.6932     1.0285    13.2262  N.pl3   1  <O>11      -0.2135
  19 C12       3.1136     0.0466    14.1236  C.ar    1  <O>11       0.0831
  20 C13       3.8463    -0.4246    15.2260  C.ar    1  <O>11      -0.0365
  21 C14       3.2908    -1.3809    16.0849  C.ar    1  <O>11      -0.0598
  22 C15       2.0039    -1.8695    15.8539  C.ar    1  <O>11      -0.0589
  23 C16       1.2715    -1.3953    14.7591  C.ar    1  <O>11      -0.0246
  24 C17       1.8152    -0.4410    13.8980  C.ar    1  <O>11       0.1456
  25 F1        1.0964     0.0292    12.8301  F       1  <O>11      -0.2035
  26 C18       4.7482     2.1314     9.6921  C.ar    1  <O>11      -0.0230
  27 H1        3.1230     4.5480     8.0360  H       1  <O>11       0.1566
  28 H2        3.5674     2.0238    13.4090  H       1  <O>11       0.1738
  29 H3        4.9833     3.2876     5.1928  H       1  <O>11       0.0652
  30 H4        4.2859     3.6122     2.8647  H       1  <O>11       0.0619
  31 H5        2.2729     4.9316     2.4218  H       1  <O>11       0.0633
  32 H6        0.9807     5.8004     4.2674  H       1  <O>11       0.0830
  33 H7        6.3866     5.0100     9.1172  H       1  <O>11       0.0625
  34 H8        7.0416     4.6629    11.4283  H       1  <O>11       0.0618
  35 H9        6.2475     2.7139    12.6449  H       1  <O>11       0.0637
  36 H10       4.7972    -0.0647    15.4033  H       1  <O>11       0.0637
  37 H11       3.8346    -1.7257    16.8913  H       1  <O>11       0.0618
  38 H12       1.5949    -2.5754    16.4859  H       1  <O>11       0.0618
  39 H13       0.3197    -1.7551    14.5870  H       1  <O>11       0.0647
  40 H14       4.1252     1.4498     9.2312  H       1  <O>11       0.0645
@<TRIPOS>BOND
     1     1     2    2
     2     2     3   am
     3     3     4    1
     4     4     5   ar
     5     5     6   ar
     6     6     7   ar
     7     7     8   ar
     8     8     9   ar
     9     4     9   ar
    10     2    10    1
    11    10    11   ar
    12    11    12   ar
    13    12    13   ar
    14    13    14   ar
    15    14    15    1
    16    15    16    2
    17    15    17    2
    18    15    18    1
    19    18    19    1
    20    19    20   ar
    21    20    21   ar
    22    21    22   ar
    23    22    23   ar
    24    23    24   ar
    25    19    24   ar
    26    24    25    1
    27    14    26   ar
    28    10    26   ar
    29     3    27    1
    30    18    28    1
    31     5    29    1
    32     6    30    1
    33     7    31    1
    34     8    32    1
    35    11    33    1
    36    12    34    1
    37    13    35    1
    38    20    36    1
    39    21    37    1
    40    22    38    1
    41    23    39    1
    42    26    40    1
@<TRIPOS>MOLECULE
mol15_1_17
 40 42 0 0 0
SMALL
USER_CHARGES
****
VDW energy = -51.55
@<TRIPOS>ATOM
   1 O1        5.5173     2.9861     6.6958  O.2     1  <O>11      -0.2698
   2 C1        4.8288     3.4514     7.5917  C.2     1  <O>11       0.2494
   3 N1        3.6970     4.1600     7.2880  N.am    1  <O>11      -0.2664
   4 C2        3.3330     4.3490     5.9650  C.ar    1  <O>11       0.1251
   5 C3        4.1260     3.8150     4.9650  C.ar    1  <O>11      -0.0215
   6 C4        3.7350     4.0090     3.6420  C.ar    1  <O>11      -0.0571
   7 C5        2.5770     4.7550     3.3920  C.ar    1  <O>11      -0.0435
   8 C6        1.8370     5.2580     4.4610  C.ar    1  <O>11       0.0297
   9 N2        2.2080     5.0560     5.7360  N.ar    1  <O>11      -0.2401
  10 C7        5.2120     3.2520     8.9830  C.ar    1  <O>11       0.0389
  11 C8        6.0487     4.1795     9.6283  C.ar    1  <O>11      -0.0495
  12 C9        6.4247     3.9801    10.9610  C.ar    1  <O>11      -0.0592
  13 C10       5.9690     2.8612    11.6622  C.ar    1  <O>11      -0.0350
  14 C11       5.1308     1.9411    11.0202  C.ar    1  <O>11       0.1092
  15 S1        4.5593     0.5334    11.9083  S.O2    1  <O>11       0.0724
  16 O2        5.8584    -0.3710    12.4087  O.2     1  <O>11      -0.1500
  17 O3        3.5900    -0.3873    10.9222  O.2     1  <O>11      -0.1500
  18 N3        3.6932     1.0285    13.2262  N.pl3   1  <O>11      -0.2135
  19 C12       3.1136     0.0466    14.1236  C.ar    1  <O>11       0.0831
  20 C13       3.2848    -1.3260    13.8771  C.ar    1  <O>11      -0.0365
  21 C14       2.7152    -2.2731    14.7371  C.ar    1  <O>11      -0.0598
  22 C15       1.9769    -1.8597    15.8471  C.ar    1  <O>11      -0.0589
  23 C16       1.8116    -0.4921    16.0962  C.ar    1  <O>11      -0.0246
  24 C17       2.3766     0.4599    15.2463  C.ar    1  <O>11       0.1456
  25 F1        2.2214     1.7990    15.4932  F       1  <O>11      -0.2035
  26 C18       4.7482     2.1314     9.6921  C.ar    1  <O>11      -0.0230
  27 H1        3.1230     4.5480     8.0360  H       1  <O>11       0.1566
  28 H2        3.5674     2.0238    13.4090  H       1  <O>11       0.1738
  29 H3        4.9833     3.2876     5.1928  H       1  <O>11       0.0652
  30 H4        4.2859     3.6122     2.8647  H       1  <O>11       0.0619
  31 H5        2.2729     4.9316     2.4218  H       1  <O>11       0.0633
  32 H6        0.9807     5.8004     4.2674  H       1  <O>11       0.0830
  33 H7        6.3866     5.0100     9.1172  H       1  <O>11       0.0625
  34 H8        7.0416     4.6629    11.4283  H       1  <O>11       0.0618
  35 H9        6.2475     2.7139    12.6449  H       1  <O>11       0.0637
  36 H10       3.8323    -1.6373    13.0594  H       1  <O>11       0.0637
  37 H11       2.8417    -3.2799    14.5495  H       1  <O>11       0.0618
  38 H12       1.5557    -2.5576    16.4801  H       1  <O>11       0.0618
  39 H13       1.2663    -0.1847    16.9167  H       1  <O>11       0.0647
  40 H14       4.1252     1.4498     9.2312  H       1  <O>11       0.0645
@<TRIPOS>BOND
     1     1     2    2
     2     2     3   am
     3     3     4    1
     4     4     5   ar
     5     5     6   ar
     6     6     7   ar
     7     7     8   ar
     8     8     9   ar
     9     4     9   ar
    10     2    10    1
    11    10    11   ar
    12    11    12   ar
    13    12    13   ar
    14    13    14   ar
    15    14    15    1
    16    15    16    2
    17    15    17    2
    18    15    18    1
    19    18    19    1
    20    19    20   ar
    21    20    21   ar
    22    21    22   ar
    23    22    23   ar
    24    23    24   ar
    25    19    24   ar
    26    24    25    1
    27    14    26   ar
    28    10    26   ar
    29     3    27    1
    30    18    28    1
    31     5    29    1
    32     6    30    1
    33     7    31    1
    34     8    32    1
    35    11    33    1
    36    12    34    1
    37    13    35    1
    38    20    36    1
    39    21    37    1
    40    22    38    1
    41    23    39    1
    42    26    40    1
@<TRIPOS>MOLECULE
mol15_1_18
 40 42 0 0 0
SMALL
USER_CHARGES
****
VDW energy = -51.47
@<TRIPOS>ATOM
   1 O1        5.5173     2.9861     6.6958  O.2     1  <O>11      -0.2698
   2 C1        4.8288     3.4514     7.5917  C.2     1  <O>11       0.2494
   3 N1        3.6970     4.1600     7.2880  N.am    1  <O>11      -0.2664
   4 C2        3.3330     4.3490     5.9650  C.ar    1  <O>11       0.1251
   5 C3        4.1260     3.8150     4.9650  C.ar    1  <O>11      -0.0215
   6 C4        3.7350     4.0090     3.6420  C.ar    1  <O>11      -0.0571
   7 C5        2.5770     4.7550     3.3920  C.ar    1  <O>11      -0.0435
   8 C6        1.8370     5.2580     4.4610  C.ar    1  <O>11       0.0297
   9 N2        2.2080     5.0560     5.7360  N.ar    1  <O>11      -0.2401
  10 C7        5.2120     3.2520     8.9830  C.ar    1  <O>11       0.0389
  11 C8        6.0487     4.1795     9.6283  C.ar    1  <O>11      -0.0495
  12 C9        6.4247     3.9801    10.9610  C.ar    1  <O>11      -0.0592
  13 C10       5.9690     2.8612    11.6622  C.ar    1  <O>11      -0.0350
  14 C11       5.1308     1.9411    11.0202  C.ar    1  <O>11       0.1092
  15 S1        4.5593     0.5334    11.9083  S.O2    1  <O>11       0.0724
  16 O2        5.6884     0.0999    13.0455  O.2     1  <O>11      -0.1500
  17 O3        4.3225    -0.7280    10.8536  O.2     1  <O>11      -0.1500
  18 N3        3.1333     0.8987    12.6601  N.pl3   1  <O>11      -0.2135
  19 C12       2.4581    -0.1051    13.4613  C.ar    1  <O>11       0.0831
  20 C13       3.0114    -1.3890    13.6013  C.ar    1  <O>11      -0.0365
  21 C14       2.3532    -2.3607    14.3651  C.ar    1  <O>11      -0.0598
  22 C15       1.1451    -2.0591    14.9957  C.ar    1  <O>11      -0.0589
  23 C16       0.5970    -0.7780    14.8614  C.ar    1  <O>11      -0.0246
  24 C17       1.2458     0.1983    14.1039  C.ar    1  <O>11       0.1456
  25 F1        0.7138     1.4550    13.9775  F       1  <O>11      -0.2035
  26 C18       4.7482     2.1314     9.6921  C.ar    1  <O>11      -0.0230
  27 H1        3.1230     4.5480     8.0360  H       1  <O>11       0.1566
  28 H2        2.7290     1.8297    12.5616  H       1  <O>11       0.1738
  29 H3        4.9833     3.2876     5.1928  H       1  <O>11       0.0652
  30 H4        4.2859     3.6122     2.8647  H       1  <O>11       0.0619
  31 H5        2.2729     4.9316     2.4218  H       1  <O>11       0.0633
  32 H6        0.9807     5.8004     4.2674  H       1  <O>11       0.0830
  33 H7        6.3866     5.0100     9.1172  H       1  <O>11       0.0625
  34 H8        7.0416     4.6629    11.4283  H       1  <O>11       0.0618
  35 H9        6.2475     2.7139    12.6449  H       1  <O>11       0.0637
  36 H10       3.9059    -1.6166    13.1396  H       1  <O>11       0.0637
  37 H11       2.7627    -3.3030    14.4620  H       1  <O>11       0.0618
  38 H12       0.6591    -2.7757    15.5574  H       1  <O>11       0.0618
  39 H13      -0.2959    -0.5531    15.3273  H       1  <O>11       0.0647
  40 H14       4.1252     1.4498     9.2312  H       1  <O>11       0.0645
@<TRIPOS>BOND
     1     1     2    2
     2     2     3   am
     3     3     4    1
     4     4     5   ar
     5     5     6   ar
     6     6     7   ar
     7     7     8   ar
     8     8     9   ar
     9     4     9   ar
    10     2    10    1
    11    10    11   ar
    12    11    12   ar
    13    12    13   ar
    14    13    14   ar
    15    14    15    1
    16    15    16    2
    17    15    17    2
    18    15    18    1
    19    18    19    1
    20    19    20   ar
    21    20    21   ar
    22    21    22   ar
    23    22    23   ar
    24    23    24   ar
    25    19    24   ar
    26    24    25    1
    27    14    26   ar
    28    10    26   ar
    29     3    27    1
    30    18    28    1
    31     5    29    1
    32     6    30    1
    33     7    31    1
    34     8    32    1
    35    11    33    1
    36    12    34    1
    37    13    35    1
    38    20    36    1
    39    21    37    1
    40    22    38    1
    41    23    39    1
    42    26    40    1
@<TRIPOS>MOLECULE
mol15_1_19
 40 42 0 0 0
SMALL
USER_CHARGES
****
VDW energy = -49.86
@<TRIPOS>ATOM
   1 O1        5.5173     2.9861     6.6958  O.2     1  <O>11      -0.2698
   2 C1        4.8288     3.4514     7.5917  C.2     1  <O>11       0.2494
   3 N1        3.6970     4.1600     7.2880  N.am    1  <O>11      -0.2664
   4 C2        3.3330     4.3490     5.9650  C.ar    1  <O>11       0.1251
   5 C3        4.1260     3.8150     4.9650  C.ar    1  <O>11      -0.0215
   6 C4        3.7350     4.0090     3.6420  C.ar    1  <O>11      -0.0571
   7 C5        2.5770     4.7550     3.3920  C.ar    1  <O>11      -0.0435
   8 C6        1.8370     5.2580     4.4610  C.ar    1  <O>11       0.0297
   9 N2        2.2080     5.0560     5.7360  N.ar    1  <O>11      -0.2401
  10 C7        5.2120     3.2520     8.9830  C.ar    1  <O>11       0.0389
  11 C8        6.0487     4.1795     9.6283  C.ar    1  <O>11      -0.0495
  12 C9        6.4247     3.9801    10.9610  C.ar    1  <O>11      -0.0592
  13 C10       5.9690     2.8612    11.6622  C.ar    1  <O>11      -0.0350
  14 C11       5.1308     1.9411    11.0202  C.ar    1  <O>11       0.1092
  15 S1        4.5593     0.5334    11.9083  S.O2    1  <O>11       0.0724
  16 O2        3.6892     1.0294    13.2324  O.2     1  <O>11      -0.1500
  17 O3        5.8596    -0.3720    12.4072  O.2     1  <O>11      -0.1500
  18 N3        3.5941    -0.3818    10.9270  N.pl3   1  <O>11      -0.2135
  19 C12       2.9963    -1.6033    11.4329  C.ar    1  <O>11       0.0831
  20 C13       3.2347    -2.0132    12.7555  C.ar    1  <O>11      -0.0365
  21 C14       2.6669    -3.1984    13.2393  C.ar    1  <O>11      -0.0598
  22 C15       1.8571    -3.9782    12.4120  C.ar    1  <O>11      -0.0589
  23 C16       1.6147    -3.5665    11.0962  C.ar    1  <O>11      -0.0246
  24 C17       2.1743    -2.3862    10.6048  C.ar    1  <O>11       0.1456
  25 F1        1.9317    -1.9785     9.3190  F       1  <O>11      -0.2035
  26 C18       4.7482     2.1314     9.6921  C.ar    1  <O>11      -0.0230
  27 H1        3.1230     4.5480     8.0360  H       1  <O>11       0.1566
  28 H2        3.4181    -0.0871     9.9668  H       1  <O>11       0.1738
  29 H3        4.9833     3.2876     5.1928  H       1  <O>11       0.0652
  30 H4        4.2859     3.6122     2.8647  H       1  <O>11       0.0619
  31 H5        2.2729     4.9316     2.4218  H       1  <O>11       0.0633
  32 H6        0.9807     5.8004     4.2674  H       1  <O>11       0.0830
  33 H7        6.3866     5.0100     9.1172  H       1  <O>11       0.0625
  34 H8        7.0416     4.6629    11.4283  H       1  <O>11       0.0618
  35 H9        6.2475     2.7139    12.6449  H       1  <O>11       0.0637
  36 H10       3.8302    -1.4390    13.3725  H       1  <O>11       0.0637
  37 H11       2.8478    -3.4961    14.2106  H       1  <O>11       0.0618
  38 H12       1.4400    -4.8524    12.7680  H       1  <O>11       0.0618
  39 H13       1.0159    -4.1417    10.4833  H       1  <O>11       0.0647
  40 H14       4.1252     1.4498     9.2312  H       1  <O>11       0.0645
@<TRIPOS>BOND
     1     1     2    2
     2     2     3   am
     3     3     4    1
     4     4     5   ar
     5     5     6   ar
     6     6     7   ar
     7     7     8   ar
     8     8     9   ar
     9     4     9   ar
    10     2    10    1
    11    10    11   ar
    12    11    12   ar
    13    12    13   ar
    14    13    14   ar
    15    14    15    1
    16    15    16    2
    17    15    17    2
    18    15    18    1
    19    18    19    1
    20    19    20   ar
    21    20    21   ar
    22    21    22   ar
    23    22    23   ar
    24    23    24   ar
    25    19    24   ar
    26    24    25    1
    27    14    26   ar
    28    10    26   ar
    29     3    27    1
    30    18    28    1
    31     5    29    1
    32     6    30    1
    33     7    31    1
    34     8    32    1
    35    11    33    1
    36    12    34    1
    37    13    35    1
    38    20    36    1
    39    21    37    1
    40    22    38    1
    41    23    39    1
    42    26    40    1
@<TRIPOS>MOLECULE
mol15_1_20
 40 42 0 0 0
SMALL
USER_CHARGES
****
VDW energy = -48.13
@<TRIPOS>ATOM
   1 O1        5.5173     2.9861     6.6958  O.2     1  <O>11      -0.2698
   2 C1        4.8288     3.4514     7.5917  C.2     1  <O>11       0.2494
   3 N1        3.6970     4.1600     7.2880  N.am    1  <O>11      -0.2664
   4 C2        3.3330     4.3490     5.9650  C.ar    1  <O>11       0.1251
   5 C3        4.1260     3.8150     4.9650  C.ar    1  <O>11      -0.0215
   6 C4        3.7350     4.0090     3.6420  C.ar    1  <O>11      -0.0571
   7 C5        2.5770     4.7550     3.3920  C.ar    1  <O>11      -0.0435
   8 C6        1.8370     5.2580     4.4610  C.ar    1  <O>11       0.0297
   9 N2        2.2080     5.0560     5.7360  N.ar    1  <O>11      -0.2401
  10 C7        5.2120     3.2520     8.9830  C.ar    1  <O>11       0.0389
  11 C8        6.3730     2.5260     9.3020  C.ar    1  <O>11      -0.0495
  12 C9        6.7330     2.3260    10.6390  C.ar    1  <O>11      -0.0592
  13 C10       5.9450     2.8490    11.6670  C.ar    1  <O>11      -0.0350
  14 C11       4.7920     3.5770    11.3480  C.ar    1  <O>11       0.1092
  15 S1        3.8030     4.2340    12.6470  S.O2    1  <O>11       0.0724
  16 O2        3.0590     5.6243    12.1278  O.2     1  <O>11      -0.1500
  17 O3        4.7657     4.5765    13.9567  O.2     1  <O>11      -0.1500
  18 N3        2.6564     3.1252    13.0804  N.pl3   1  <O>11      -0.2135
  19 C12       1.6894     2.6620    12.1027  C.ar    1  <O>11       0.0831
  20 C13       1.6951     1.3217    11.6814  C.ar    1  <O>11      -0.0365
  21 C14       0.7691     0.8783    10.7290  C.ar    1  <O>11      -0.0598
  22 C15      -0.1682     1.7639    10.1950  C.ar    1  <O>11      -0.0589
  23 C16      -0.1777     3.0979    10.6195  C.ar    1  <O>11      -0.0246
  24 C17       0.7396     3.5496    11.5693  C.ar    1  <O>11       0.1456
  25 F1        0.7265     4.8536    11.9909  F       1  <O>11      -0.2035
  26 C18       4.4250     3.7840    10.0180  C.ar    1  <O>11      -0.0230
  27 H1        3.1230     4.5480     8.0360  H       1  <O>11       0.1566
  28 H2        2.6296     2.7659    14.0344  H       1  <O>11       0.1738
  29 H3        4.9833     3.2876     5.1928  H       1  <O>11       0.0652
  30 H4        4.2859     3.6122     2.8647  H       1  <O>11       0.0619
  31 H5        2.2729     4.9316     2.4218  H       1  <O>11       0.0633
  32 H6        0.9807     5.8004     4.2674  H       1  <O>11       0.0830
  33 H7        6.9615     2.1394     8.5475  H       1  <O>11       0.0625
  34 H8        7.5847     1.7896    10.8669  H       1  <O>11       0.0618
  35 H9        6.2102     2.7002    12.6532  H       1  <O>11       0.0637
  36 H10       2.3840     0.6617    12.0751  H       1  <O>11       0.0637
  37 H11       0.7798    -0.1066    10.4211  H       1  <O>11       0.0618
  38 H12      -0.8496     1.4377     9.4920  H       1  <O>11       0.0618
  39 H13      -0.8703     3.7541    10.2260  H       1  <O>11       0.0647
  40 H14       3.5764     4.3273     9.7948  H       1  <O>11       0.0645
@<TRIPOS>BOND
     1     1     2    2
     2     2     3   am
     3     3     4    1
     4     4     5   ar
     5     5     6   ar
     6     6     7   ar
     7     7     8   ar
     8     8     9   ar
     9     4     9   ar
    10     2    10    1
    11    10    11   ar
    12    11    12   ar
    13    12    13   ar
    14    13    14   ar
    15    14    15    1
    16    15    16    2
    17    15    17    2
    18    15    18    1
    19    18    19    1
    20    19    20   ar
    21    20    21   ar
    22    21    22   ar
    23    22    23   ar
    24    23    24   ar
    25    19    24   ar
    26    24    25    1
    27    14    26   ar
    28    10    26   ar
    29     3    27    1
    30    18    28    1
    31     5    29    1
    32     6    30    1
    33     7    31    1
    34     8    32    1
    35    11    33    1
    36    12    34    1
    37    13    35    1
    38    20    36    1
    39    21    37    1
    40    22    38    1
    41    23    39    1
    42    26    40    1
@<TRIPOS>MOLECULE
mol15_1_21
 40 42 0 0 0
SMALL
USER_CHARGES
****
VDW energy = -48.09
@<TRIPOS>ATOM
   1 O1        5.5173     2.9861     6.6958  O.2     1  <O>11      -0.2698
   2 C1        4.8288     3.4514     7.5917  C.2     1  <O>11       0.2494
   3 N1        3.6970     4.1600     7.2880  N.am    1  <O>11      -0.2664
   4 C2        3.3330     4.3490     5.9650  C.ar    1  <O>11       0.1251
   5 C3        4.1260     3.8150     4.9650  C.ar    1  <O>11      -0.0215
   6 C4        3.7350     4.0090     3.6420  C.ar    1  <O>11      -0.0571
   7 C5        2.5770     4.7550     3.3920  C.ar    1  <O>11      -0.0435
   8 C6        1.8370     5.2580     4.4610  C.ar    1  <O>11       0.0297
   9 N2        2.2080     5.0560     5.7360  N.ar    1  <O>11      -0.2401
  10 C7        5.2120     3.2520     8.9830  C.ar    1  <O>11       0.0389
  11 C8        4.2338     2.9847     9.9569  C.ar    1  <O>11      -0.0495
  12 C9        4.6029     2.8048    11.2943  C.ar    1  <O>11      -0.0592
  13 C10       5.9453     2.8850    11.6721  C.ar    1  <O>11      -0.0350
  14 C11       6.9193     3.1455    10.7002  C.ar    1  <O>11       0.1092
  15 S1        8.6092     3.2453    11.1816  S.O2    1  <O>11       0.0724
  16 O2        9.0782     1.8041    11.8591  O.2     1  <O>11      -0.1500
  17 O3        8.7975     4.4668    12.2915  O.2     1  <O>11      -0.1500
  18 N3        9.5421     3.5584     9.8535  N.pl3   1  <O>11      -0.2135
  19 C12      10.9808     3.6864     9.9918  C.ar    1  <O>11       0.0831
  20 C13      11.5861     3.5457    11.2520  C.ar    1  <O>11      -0.0365
  21 C14      12.9734     3.6811    11.3865  C.ar    1  <O>11      -0.0598
  22 C15      13.7644     3.9527    10.2691  C.ar    1  <O>11      -0.0589
  23 C16      13.1619     4.0867     9.0126  C.ar    1  <O>11      -0.0246
  24 C17      11.7804     3.9519     8.8673  C.ar    1  <O>11       0.1456
  25 F1       11.1903     4.0757     7.6366  F       1  <O>11      -0.2035
  26 C18       6.5624     3.3245     9.3635  C.ar    1  <O>11      -0.0230
  27 H1        3.1230     4.5480     8.0360  H       1  <O>11       0.1566
  28 H2        9.1065     3.6603     8.9371  H       1  <O>11       0.1738
  29 H3        4.9833     3.2876     5.1928  H       1  <O>11       0.0652
  30 H4        4.2859     3.6122     2.8647  H       1  <O>11       0.0619
  31 H5        2.2729     4.9316     2.4218  H       1  <O>11       0.0633
  32 H6        0.9807     5.8004     4.2674  H       1  <O>11       0.0830
  33 H7        3.2405     2.9209     9.6844  H       1  <O>11       0.0625
  34 H8        3.8800     2.6118    12.0051  H       1  <O>11       0.0618
  35 H9        6.2170     2.7535    12.6590  H       1  <O>11       0.0637
  36 H10      11.0064     3.3420    12.0812  H       1  <O>11       0.0637
  37 H11      13.4123     3.5798    12.3150  H       1  <O>11       0.0618
  38 H12      14.7866     4.0541    10.3684  H       1  <O>11       0.0618
  39 H13      13.7453     4.2871     8.1853  H       1  <O>11       0.0647
  40 H14       7.2896     3.5100     8.6550  H       1  <O>11       0.0645
@<TRIPOS>BOND
     1     1     2    2
     2     2     3   am
     3     3     4    1
     4     4     5   ar
     5     5     6   ar
     6     6     7   ar
     7     7     8   ar
     8     8     9   ar
     9     4     9   ar
    10     2    10    1
    11    10    11   ar
    12    11    12   ar
    13    12    13   ar
    14    13    14   ar
    15    14    15    1
    16    15    16    2
    17    15    17    2
    18    15    18    1
    19    18    19    1
    20    19    20   ar
    21    20    21   ar
    22    21    22   ar
    23    22    23   ar
    24    23    24   ar
    25    19    24   ar
    26    24    25    1
    27    14    26   ar
    28    10    26   ar
    29     3    27    1
    30    18    28    1
    31     5    29    1
    32     6    30    1
    33     7    31    1
    34     8    32    1
    35    11    33    1
    36    12    34    1
    37    13    35    1
    38    20    36    1
    39    21    37    1
    40    22    38    1
    41    23    39    1
    42    26    40    1
@<TRIPOS>MOLECULE
mol15_1_22
 40 42 0 0 0
SMALL
USER_CHARGES
****
VDW energy = -47.67
@<TRIPOS>ATOM
   1 O1        5.5173     2.9861     6.6958  O.2     1  <O>11      -0.2698
   2 C1        4.8288     3.4514     7.5917  C.2     1  <O>11       0.2494
   3 N1        3.6970     4.1600     7.2880  N.am    1  <O>11      -0.2664
   4 C2        3.3330     4.3490     5.9650  C.ar    1  <O>11       0.1251
   5 C3        4.1260     3.8150     4.9650  C.ar    1  <O>11      -0.0215
   6 C4        3.7350     4.0090     3.6420  C.ar    1  <O>11      -0.0571
   7 C5        2.5770     4.7550     3.3920  C.ar    1  <O>11      -0.0435
   8 C6        1.8370     5.2580     4.4610  C.ar    1  <O>11       0.0297
   9 N2        2.2080     5.0560     5.7360  N.ar    1  <O>11      -0.2401
  10 C7        5.2120     3.2520     8.9830  C.ar    1  <O>11       0.0389
  11 C8        6.3730     2.5260     9.3020  C.ar    1  <O>11      -0.0495
  12 C9        6.7330     2.3260    10.6390  C.ar    1  <O>11      -0.0592
  13 C10       5.9450     2.8490    11.6670  C.ar    1  <O>11      -0.0350
  14 C11       4.7920     3.5770    11.3480  C.ar    1  <O>11       0.1092
  15 S1        3.8030     4.2340    12.6470  S.O2    1  <O>11       0.0724
  16 O2        3.0590     5.6243    12.1278  O.2     1  <O>11      -0.1500
  17 O3        4.7657     4.5765    13.9567  O.2     1  <O>11      -0.1500
  18 N3        2.6564     3.1252    13.0804  N.pl3   1  <O>11      -0.2135
  19 C12       3.0585     1.8201    13.5709  C.ar    1  <O>11       0.0831
  20 C13       2.7882     1.4488    14.8988  C.ar    1  <O>11      -0.0365
  21 C14       3.1871     0.1937    15.3748  C.ar    1  <O>11      -0.0598
  22 C15       3.8523    -0.6983    14.5321  C.ar    1  <O>11      -0.0589
  23 C16       4.1160    -0.3306    13.2074  C.ar    1  <O>11      -0.0246
  24 C17       3.7212     0.9171    12.7225  C.ar    1  <O>11       0.1456
  25 F1        3.9725     1.2753    11.4237  F       1  <O>11      -0.2035
  26 C18       4.4250     3.7840    10.0180  C.ar    1  <O>11      -0.0230
  27 H1        3.1230     4.5480     8.0360  H       1  <O>11       0.1566
  28 H2        1.6667     3.3589    13.0041  H       1  <O>11       0.1738
  29 H3        4.9833     3.2876     5.1928  H       1  <O>11       0.0652
  30 H4        4.2859     3.6122     2.8647  H       1  <O>11       0.0619
  31 H5        2.2729     4.9316     2.4218  H       1  <O>11       0.0633
  32 H6        0.9807     5.8004     4.2674  H       1  <O>11       0.0830
  33 H7        6.9615     2.1394     8.5475  H       1  <O>11       0.0625
  34 H8        7.5847     1.7896    10.8669  H       1  <O>11       0.0618
  35 H9        6.2102     2.7002    12.6532  H       1  <O>11       0.0637
  36 H10       2.2941     2.1032    15.5254  H       1  <O>11       0.0637
  37 H11       2.9886    -0.0726    16.3518  H       1  <O>11       0.0618
  38 H12       4.1477    -1.6227    14.8833  H       1  <O>11       0.0618
  39 H13       4.6074    -0.9890    12.5828  H       1  <O>11       0.0647
  40 H14       3.5764     4.3273     9.7948  H       1  <O>11       0.0645
@<TRIPOS>BOND
     1     1     2    2
     2     2     3   am
     3     3     4    1
     4     4     5   ar
     5     5     6   ar
     6     6     7   ar
     7     7     8   ar
     8     8     9   ar
     9     4     9   ar
    10     2    10    1
    11    10    11   ar
    12    11    12   ar
    13    12    13   ar
    14    13    14   ar
    15    14    15    1
    16    15    16    2
    17    15    17    2
    18    15    18    1
    19    18    19    1
    20    19    20   ar
    21    20    21   ar
    22    21    22   ar
    23    22    23   ar
    24    23    24   ar
    25    19    24   ar
    26    24    25    1
    27    14    26   ar
    28    10    26   ar
    29     3    27    1
    30    18    28    1
    31     5    29    1
    32     6    30    1
    33     7    31    1
    34     8    32    1
    35    11    33    1
    36    12    34    1
    37    13    35    1
    38    20    36    1
    39    21    37    1
    40    22    38    1
    41    23    39    1
    42    26    40    1
@<TRIPOS>MOLECULE
mol15_1_23
 40 42 0 0 0
SMALL
USER_CHARGES
****
VDW energy = -46.98
@<TRIPOS>ATOM
   1 O1        5.5173     2.9861     6.6958  O.2     1  <O>11      -0.2698
   2 C1        4.8288     3.4514     7.5917  C.2     1  <O>11       0.2494
   3 N1        3.6970     4.1600     7.2880  N.am    1  <O>11      -0.2664
   4 C2        3.3330     4.3490     5.9650  C.ar    1  <O>11       0.1251
   5 C3        4.1260     3.8150     4.9650  C.ar    1  <O>11      -0.0215
   6 C4        3.7350     4.0090     3.6420  C.ar    1  <O>11      -0.0571
   7 C5        2.5770     4.7550     3.3920  C.ar    1  <O>11      -0.0435
   8 C6        1.8370     5.2580     4.4610  C.ar    1  <O>11       0.0297
   9 N2        2.2080     5.0560     5.7360  N.ar    1  <O>11      -0.2401
  10 C7        5.2120     3.2520     8.9830  C.ar    1  <O>11       0.0389
  11 C8        6.3730     2.5260     9.3020  C.ar    1  <O>11      -0.0495
  12 C9        6.7330     2.3260    10.6390  C.ar    1  <O>11      -0.0592
  13 C10       5.9450     2.8490    11.6670  C.ar    1  <O>11      -0.0350
  14 C11       4.7920     3.5770    11.3480  C.ar    1  <O>11       0.1092
  15 S1        3.8030     4.2340    12.6470  S.O2    1  <O>11       0.0724
  16 O2        3.9244     3.2573    13.9839  O.2     1  <O>11      -0.1500
  17 O3        2.2181     4.3048    12.1546  O.2     1  <O>11      -0.1500
  18 N3        4.3311     5.7537    13.0260  N.pl3   1  <O>11      -0.2135
  19 C12       3.6725     6.5097    14.0749  C.ar    1  <O>11       0.0831
  20 C13       4.3617     6.8289    15.2569  C.ar    1  <O>11      -0.0365
  21 C14       3.7217     7.5484    16.2736  C.ar    1  <O>11      -0.0598
  22 C15       2.3960     7.9565    16.1179  C.ar    1  <O>11      -0.0589
  23 C16       1.7114     7.6437    14.9375  C.ar    1  <O>11      -0.0246
  24 C17       2.3406     6.9287    13.9175  C.ar    1  <O>11       0.1456
  25 F1        1.6735     6.6282    12.7586  F       1  <O>11      -0.2035
  26 C18       4.4250     3.7840    10.0180  C.ar    1  <O>11      -0.0230
  27 H1        3.1230     4.5480     8.0360  H       1  <O>11       0.1566
  28 H2        5.1204     6.1592    12.5234  H       1  <O>11       0.1738
  29 H3        4.9833     3.2876     5.1928  H       1  <O>11       0.0652
  30 H4        4.2859     3.6122     2.8647  H       1  <O>11       0.0619
  31 H5        2.2729     4.9316     2.4218  H       1  <O>11       0.0633
  32 H6        0.9807     5.8004     4.2674  H       1  <O>11       0.0830
  33 H7        6.9615     2.1394     8.5475  H       1  <O>11       0.0625
  34 H8        7.5847     1.7896    10.8669  H       1  <O>11       0.0618
  35 H9        6.2102     2.7002    12.6532  H       1  <O>11       0.0637
  36 H10       5.3430     6.5322    15.3762  H       1  <O>11       0.0637
  37 H11       4.2318     7.7775    17.1409  H       1  <O>11       0.0618
  38 H12       1.9237     8.4853    16.8678  H       1  <O>11       0.0618
  39 H13       0.7313     7.9450    14.8205  H       1  <O>11       0.0647
  40 H14       3.5764     4.3273     9.7948  H       1  <O>11       0.0645
@<TRIPOS>BOND
     1     1     2    2
     2     2     3   am
     3     3     4    1
     4     4     5   ar
     5     5     6   ar
     6     6     7   ar
     7     7     8   ar
     8     8     9   ar
     9     4     9   ar
    10     2    10    1
    11    10    11   ar
    12    11    12   ar
    13    12    13   ar
    14    13    14   ar
    15    14    15    1
    16    15    16    2
    17    15    17    2
    18    15    18    1
    19    18    19    1
    20    19    20   ar
    21    20    21   ar
    22    21    22   ar
    23    22    23   ar
    24    23    24   ar
    25    19    24   ar
    26    24    25    1
    27    14    26   ar
    28    10    26   ar
    29     3    27    1
    30    18    28    1
    31     5    29    1
    32     6    30    1
    33     7    31    1
    34     8    32    1
    35    11    33    1
    36    12    34    1
    37    13    35    1
    38    20    36    1
    39    21    37    1
    40    22    38    1
    41    23    39    1
    42    26    40    1
@<TRIPOS>MOLECULE
mol15_1_24
 40 42 0 0 0
SMALL
USER_CHARGES
****
VDW energy = -46.76
@<TRIPOS>ATOM
   1 O1        5.5173     2.9861     6.6958  O.2     1  <O>11      -0.2698
   2 C1        4.8288     3.4514     7.5917  C.2     1  <O>11       0.2494
   3 N1        3.6970     4.1600     7.2880  N.am    1  <O>11      -0.2664
   4 C2        3.3330     4.3490     5.9650  C.ar    1  <O>11       0.1251
   5 C3        4.1260     3.8150     4.9650  C.ar    1  <O>11      -0.0215
   6 C4        3.7350     4.0090     3.6420  C.ar    1  <O>11      -0.0571
   7 C5        2.5770     4.7550     3.3920  C.ar    1  <O>11      -0.0435
   8 C6        1.8370     5.2580     4.4610  C.ar    1  <O>11       0.0297
   9 N2        2.2080     5.0560     5.7360  N.ar    1  <O>11      -0.2401
  10 C7        5.2120     3.2520     8.9830  C.ar    1  <O>11       0.0389
  11 C8        6.3730     2.5260     9.3020  C.ar    1  <O>11      -0.0495
  12 C9        6.7330     2.3260    10.6390  C.ar    1  <O>11      -0.0592
  13 C10       5.9450     2.8490    11.6670  C.ar    1  <O>11      -0.0350
  14 C11       4.7920     3.5770    11.3480  C.ar    1  <O>11       0.1092
  15 S1        3.8030     4.2340    12.6470  S.O2    1  <O>11       0.0724
  16 O2        3.0590     5.6243    12.1278  O.2     1  <O>11      -0.1500
  17 O3        4.7657     4.5765    13.9567  O.2     1  <O>11      -0.1500
  18 N3        2.6564     3.1252    13.0804  N.pl3   1  <O>11      -0.2135
  19 C12       1.7117     3.4343    14.1374  C.ar    1  <O>11       0.0831
  20 C13       0.3432     3.5663    13.8475  C.ar    1  <O>11      -0.0365
  21 C14      -0.5664     3.8763    14.8662  C.ar    1  <O>11      -0.0598
  22 C15      -0.1201     4.0523    16.1769  C.ar    1  <O>11      -0.0589
  23 C16       1.2426     3.9147    16.4667  C.ar    1  <O>11      -0.0246
  24 C17       2.1571     3.6042    15.4592  C.ar    1  <O>11       0.1456
  25 F1        3.4903     3.4621    15.7431  F       1  <O>11      -0.2035
  26 C18       4.4250     3.7840    10.0180  C.ar    1  <O>11      -0.0230
  27 H1        3.1230     4.5480     8.0360  H       1  <O>11       0.1566
  28 H2        2.6124     2.2246    12.6040  H       1  <O>11       0.1738
  29 H3        4.9833     3.2876     5.1928  H       1  <O>11       0.0652
  30 H4        4.2859     3.6122     2.8647  H       1  <O>11       0.0619
  31 H5        2.2729     4.9316     2.4218  H       1  <O>11       0.0633
  32 H6        0.9807     5.8004     4.2674  H       1  <O>11       0.0830
  33 H7        6.9615     2.1394     8.5475  H       1  <O>11       0.0625
  34 H8        7.5847     1.7896    10.8669  H       1  <O>11       0.0618
  35 H9        6.2102     2.7002    12.6532  H       1  <O>11       0.0637
  36 H10       0.0072     3.4343    12.8807  H       1  <O>11       0.0637
  37 H11      -1.5700     3.9749    14.6470  H       1  <O>11       0.0618
  38 H12      -0.7901     4.2823    16.9273  H       1  <O>11       0.0618
  39 H13       1.5743     4.0441    17.4353  H       1  <O>11       0.0647
  40 H14       3.5764     4.3273     9.7948  H       1  <O>11       0.0645
@<TRIPOS>BOND
     1     1     2    2
     2     2     3   am
     3     3     4    1
     4     4     5   ar
     5     5     6   ar
     6     6     7   ar
     7     7     8   ar
     8     8     9   ar
     9     4     9   ar
    10     2    10    1
    11    10    11   ar
    12    11    12   ar
    13    12    13   ar
    14    13    14   ar
    15    14    15    1
    16    15    16    2
    17    15    17    2
    18    15    18    1
    19    18    19    1
    20    19    20   ar
    21    20    21   ar
    22    21    22   ar
    23    22    23   ar
    24    23    24   ar
    25    19    24   ar
    26    24    25    1
    27    14    26   ar
    28    10    26   ar
    29     3    27    1
    30    18    28    1
    31     5    29    1
    32     6    30    1
    33     7    31    1
    34     8    32    1
    35    11    33    1
    36    12    34    1
    37    13    35    1
    38    20    36    1
    39    21    37    1
    40    22    38    1
    41    23    39    1
    42    26    40    1
@<TRIPOS>MOLECULE
mol15_1_25
 40 42 0 0 0
SMALL
USER_CHARGES
****
VDW energy = -46.48
@<TRIPOS>ATOM
   1 O1        5.5173     2.9861     6.6958  O.2     1  <O>11      -0.2698
   2 C1        4.8288     3.4514     7.5917  C.2     1  <O>11       0.2494
   3 N1        3.6970     4.1600     7.2880  N.am    1  <O>11      -0.2664
   4 C2        3.3330     4.3490     5.9650  C.ar    1  <O>11       0.1251
   5 C3        4.1260     3.8150     4.9650  C.ar    1  <O>11      -0.0215
   6 C4        3.7350     4.0090     3.6420  C.ar    1  <O>11      -0.0571
   7 C5        2.5770     4.7550     3.3920  C.ar    1  <O>11      -0.0435
   8 C6        1.8370     5.2580     4.4610  C.ar    1  <O>11       0.0297
   9 N2        2.2080     5.0560     5.7360  N.ar    1  <O>11      -0.2401
  10 C7        5.2120     3.2520     8.9830  C.ar    1  <O>11       0.0389
  11 C8        6.0487     4.1795     9.6283  C.ar    1  <O>11      -0.0495
  12 C9        6.4247     3.9801    10.9610  C.ar    1  <O>11      -0.0592
  13 C10       5.9690     2.8612    11.6622  C.ar    1  <O>11      -0.0350
  14 C11       5.1308     1.9411    11.0202  C.ar    1  <O>11       0.1092
  15 S1        4.5593     0.5334    11.9083  S.O2    1  <O>11       0.0724
  16 O2        3.6892     1.0294    13.2324  O.2     1  <O>11      -0.1500
  17 O3        5.8596    -0.3720    12.4072  O.2     1  <O>11      -0.1500
  18 N3        3.5941    -0.3818    10.9270  N.pl3   1  <O>11      -0.2135
  19 C12       4.1283    -0.9358     9.6969  C.ar    1  <O>11       0.0831
  20 C13       5.4648    -0.6971     9.3347  C.ar    1  <O>11      -0.0365
  21 C14       5.9762    -1.2223     8.1416  C.ar    1  <O>11      -0.0598
  22 C15       5.1629    -1.9896     7.3062  C.ar    1  <O>11      -0.0589
  23 C16       3.8331    -2.2325     7.6702  C.ar    1  <O>11      -0.0246
  24 C17       3.3141    -1.7152     8.8579  C.ar    1  <O>11       0.1456
  25 F1        2.0145    -1.9584     9.2188  F       1  <O>11      -0.2035
  26 C18       4.7482     2.1314     9.6921  C.ar    1  <O>11      -0.0230
  27 H1        3.1230     4.5480     8.0360  H       1  <O>11       0.1566
  28 H2        2.6239    -0.5579    11.1869  H       1  <O>11       0.1738
  29 H3        4.9833     3.2876     5.1928  H       1  <O>11       0.0652
  30 H4        4.2859     3.6122     2.8647  H       1  <O>11       0.0619
  31 H5        2.2729     4.9316     2.4218  H       1  <O>11       0.0633
  32 H6        0.9807     5.8004     4.2674  H       1  <O>11       0.0830
  33 H7        6.3866     5.0100     9.1172  H       1  <O>11       0.0625
  34 H8        7.0416     4.6629    11.4283  H       1  <O>11       0.0618
  35 H9        6.2475     2.7139    12.6449  H       1  <O>11       0.0637
  36 H10       6.0715    -0.1329     9.9501  H       1  <O>11       0.0637
  37 H11       6.9577    -1.0413     7.8791  H       1  <O>11       0.0618
  38 H12       5.5393    -2.3753     6.4261  H       1  <O>11       0.0618
  39 H13       3.2305    -2.7999     7.0539  H       1  <O>11       0.0647
  40 H14       4.1252     1.4498     9.2312  H       1  <O>11       0.0645
@<TRIPOS>BOND
     1     1     2    2
     2     2     3   am
     3     3     4    1
     4     4     5   ar
     5     5     6   ar
     6     6     7   ar
     7     7     8   ar
     8     8     9   ar
     9     4     9   ar
    10     2    10    1
    11    10    11   ar
    12    11    12   ar
    13    12    13   ar
    14    13    14   ar
    15    14    15    1
    16    15    16    2
    17    15    17    2
    18    15    18    1
    19    18    19    1
    20    19    20   ar
    21    20    21   ar
    22    21    22   ar
    23    22    23   ar
    24    23    24   ar
    25    19    24   ar
    26    24    25    1
    27    14    26   ar
    28    10    26   ar
    29     3    27    1
    30    18    28    1
    31     5    29    1
    32     6    30    1
    33     7    31    1
    34     8    32    1
    35    11    33    1
    36    12    34    1
    37    13    35    1
    38    20    36    1
    39    21    37    1
    40    22    38    1
    41    23    39    1
    42    26    40    1
@<TRIPOS>MOLECULE
mol15_1_26
 40 42 0 0 0
SMALL
USER_CHARGES
****
VDW energy = -46.35
@<TRIPOS>ATOM
   1 O1        5.5173     2.9861     6.6958  O.2     1  <O>11      -0.2698
   2 C1        4.8288     3.4514     7.5917  C.2     1  <O>11       0.2494
   3 N1        3.6970     4.1600     7.2880  N.am    1  <O>11      -0.2664
   4 C2        3.3330     4.3490     5.9650  C.ar    1  <O>11       0.1251
   5 C3        4.1260     3.8150     4.9650  C.ar    1  <O>11      -0.0215
   6 C4        3.7350     4.0090     3.6420  C.ar    1  <O>11      -0.0571
   7 C5        2.5770     4.7550     3.3920  C.ar    1  <O>11      -0.0435
   8 C6        1.8370     5.2580     4.4610  C.ar    1  <O>11       0.0297
   9 N2        2.2080     5.0560     5.7360  N.ar    1  <O>11      -0.2401
  10 C7        5.2120     3.2520     8.9830  C.ar    1  <O>11       0.0389
  11 C8        6.0487     4.1795     9.6283  C.ar    1  <O>11      -0.0495
  12 C9        6.4247     3.9801    10.9610  C.ar    1  <O>11      -0.0592
  13 C10       5.9690     2.8612    11.6622  C.ar    1  <O>11      -0.0350
  14 C11       5.1308     1.9411    11.0202  C.ar    1  <O>11       0.1092
  15 S1        4.5593     0.5334    11.9083  S.O2    1  <O>11       0.0724
  16 O2        3.6892     1.0294    13.2324  O.2     1  <O>11      -0.1500
  17 O3        5.8596    -0.3720    12.4072  O.2     1  <O>11      -0.1500
  18 N3        3.5941    -0.3818    10.9270  N.pl3   1  <O>11      -0.2135
  19 C12       2.3869     0.1896    10.3600  C.ar    1  <O>11       0.0831
  20 C13       2.0332     1.5199    10.6421  C.ar    1  <O>11      -0.0365
  21 C14       0.8618     2.0670    10.1040  C.ar    1  <O>11      -0.0598
  22 C15       0.0399     1.2957     9.2808  C.ar    1  <O>11      -0.0589
  23 C16       0.3957    -0.0277     8.9948  C.ar    1  <O>11      -0.0246
  24 C17       1.5618    -0.5820     9.5245  C.ar    1  <O>11       0.1456
  25 F1        1.9148    -1.8752     9.2394  F       1  <O>11      -0.2035
  26 C18       4.7482     2.1314     9.6921  C.ar    1  <O>11      -0.0230
  27 H1        3.1230     4.5480     8.0360  H       1  <O>11       0.1566
  28 H2        3.8480    -1.3474    10.7193  H       1  <O>11       0.1738
  29 H3        4.9833     3.2876     5.1928  H       1  <O>11       0.0652
  30 H4        4.2859     3.6122     2.8647  H       1  <O>11       0.0619
  31 H5        2.2729     4.9316     2.4218  H       1  <O>11       0.0633
  32 H6        0.9807     5.8004     4.2674  H       1  <O>11       0.0830
  33 H7        6.3866     5.0100     9.1172  H       1  <O>11       0.0625
  34 H8        7.0416     4.6629    11.4283  H       1  <O>11       0.0618
  35 H9        6.2475     2.7139    12.6449  H       1  <O>11       0.0637
  36 H10       2.6387     2.0957    11.2478  H       1  <O>11       0.0637
  37 H11       0.6054     3.0436    10.3170  H       1  <O>11       0.0618
  38 H12      -0.8242     1.6983     8.8855  H       1  <O>11       0.0618
  39 H13      -0.2107    -0.5994     8.3860  H       1  <O>11       0.0647
  40 H14       4.1252     1.4498     9.2312  H       1  <O>11       0.0645
@<TRIPOS>BOND
     1     1     2    2
     2     2     3   am
     3     3     4    1
     4     4     5   ar
     5     5     6   ar
     6     6     7   ar
     7     7     8   ar
     8     8     9   ar
     9     4     9   ar
    10     2    10    1
    11    10    11   ar
    12    11    12   ar
    13    12    13   ar
    14    13    14   ar
    15    14    15    1
    16    15    16    2
    17    15    17    2
    18    15    18    1
    19    18    19    1
    20    19    20   ar
    21    20    21   ar
    22    21    22   ar
    23    22    23   ar
    24    23    24   ar
    25    19    24   ar
    26    24    25    1
    27    14    26   ar
    28    10    26   ar
    29     3    27    1
    30    18    28    1
    31     5    29    1
    32     6    30    1
    33     7    31    1
    34     8    32    1
    35    11    33    1
    36    12    34    1
    37    13    35    1
    38    20    36    1
    39    21    37    1
    40    22    38    1
    41    23    39    1
    42    26    40    1
@<TRIPOS>MOLECULE
mol15_1_27
 40 42 0 0 0
SMALL
USER_CHARGES
****
VDW energy = -45.27
@<TRIPOS>ATOM
   1 O1        5.5173     2.9861     6.6958  O.2     1  <O>11      -0.2698
   2 C1        4.8288     3.4514     7.5917  C.2     1  <O>11       0.2494
   3 N1        3.6970     4.1600     7.2880  N.am    1  <O>11      -0.2664
   4 C2        3.3330     4.3490     5.9650  C.ar    1  <O>11       0.1251
   5 C3        4.1260     3.8150     4.9650  C.ar    1  <O>11      -0.0215
   6 C4        3.7350     4.0090     3.6420  C.ar    1  <O>11      -0.0571
   7 C5        2.5770     4.7550     3.3920  C.ar    1  <O>11      -0.0435
   8 C6        1.8370     5.2580     4.4610  C.ar    1  <O>11       0.0297
   9 N2        2.2080     5.0560     5.7360  N.ar    1  <O>11      -0.2401
  10 C7        5.2120     3.2520     8.9830  C.ar    1  <O>11       0.0389
  11 C8        6.3730     2.5260     9.3020  C.ar    1  <O>11      -0.0495
  12 C9        6.7330     2.3260    10.6390  C.ar    1  <O>11      -0.0592
  13 C10       5.9450     2.8490    11.6670  C.ar    1  <O>11      -0.0350
  14 C11       4.7920     3.5770    11.3480  C.ar    1  <O>11       0.1092
  15 S1        3.8030     4.2340    12.6470  S.O2    1  <O>11       0.0724
  16 O2        3.0590     5.6243    12.1278  O.2     1  <O>11      -0.1500
  17 O3        4.7657     4.5765    13.9567  O.2     1  <O>11      -0.1500
  18 N3        2.6564     3.1252    13.0804  N.pl3   1  <O>11      -0.2135
  19 C12       1.7117     3.4343    14.1374  C.ar    1  <O>11       0.0831
  20 C13       1.7671     4.6741    14.7962  C.ar    1  <O>11      -0.0365
  21 C14       0.8625     4.9672    15.8242  C.ar    1  <O>11      -0.0598
  22 C15      -0.1028     4.0311    16.1986  C.ar    1  <O>11      -0.0589
  23 C16      -0.1619     2.7983    15.5379  C.ar    1  <O>11      -0.0246
  24 C17       0.7338     2.4970    14.5109  C.ar    1  <O>11       0.1456
  25 F1        0.6721     1.2933    13.8586  F       1  <O>11      -0.2035
  26 C18       4.4250     3.7840    10.0180  C.ar    1  <O>11      -0.0230
  27 H1        3.1230     4.5480     8.0360  H       1  <O>11       0.1566
  28 H2        2.6124     2.2246    12.6040  H       1  <O>11       0.1738
  29 H3        4.9833     3.2876     5.1928  H       1  <O>11       0.0652
  30 H4        4.2859     3.6122     2.8647  H       1  <O>11       0.0619
  31 H5        2.2729     4.9316     2.4218  H       1  <O>11       0.0633
  32 H6        0.9807     5.8004     4.2674  H       1  <O>11       0.0830
  33 H7        6.9615     2.1394     8.5475  H       1  <O>11       0.0625
  34 H8        7.5847     1.7896    10.8669  H       1  <O>11       0.0618
  35 H9        6.2102     2.7002    12.6532  H       1  <O>11       0.0637
  36 H10       2.4769     5.3712    14.5215  H       1  <O>11       0.0637
  37 H11       0.9098     5.8782    16.3066  H       1  <O>11       0.0618
  38 H12      -0.7684     4.2463    16.9572  H       1  <O>11       0.0618
  39 H13      -0.8752     2.1051    15.8132  H       1  <O>11       0.0647
  40 H14       3.5764     4.3273     9.7948  H       1  <O>11       0.0645
@<TRIPOS>BOND
     1     1     2    2
     2     2     3   am
     3     3     4    1
     4     4     5   ar
     5     5     6   ar
     6     6     7   ar
     7     7     8   ar
     8     8     9   ar
     9     4     9   ar
    10     2    10    1
    11    10    11   ar
    12    11    12   ar
    13    12    13   ar
    14    13    14   ar
    15    14    15    1
    16    15    16    2
    17    15    17    2
    18    15    18    1
    19    18    19    1
    20    19    20   ar
    21    20    21   ar
    22    21    22   ar
    23    22    23   ar
    24    23    24   ar
    25    19    24   ar
    26    24    25    1
    27    14    26   ar
    28    10    26   ar
    29     3    27    1
    30    18    28    1
    31     5    29    1
    32     6    30    1
    33     7    31    1
    34     8    32    1
    35    11    33    1
    36    12    34    1
    37    13    35    1
    38    20    36    1
    39    21    37    1
    40    22    38    1
    41    23    39    1
    42    26    40    1
@<TRIPOS>MOLECULE
mol15_1_28
 40 42 0 0 0
SMALL
USER_CHARGES
****
VDW energy = -41.21
@<TRIPOS>ATOM
   1 O1        5.5173     2.9861     6.6958  O.2     1  <O>11      -0.2698
   2 C1        4.8288     3.4514     7.5917  C.2     1  <O>11       0.2494
   3 N1        3.6970     4.1600     7.2880  N.am    1  <O>11      -0.2664
   4 C2        3.3330     4.3490     5.9650  C.ar    1  <O>11       0.1251
   5 C3        4.1260     3.8150     4.9650  C.ar    1  <O>11      -0.0215
   6 C4        3.7350     4.0090     3.6420  C.ar    1  <O>11      -0.0571
   7 C5        2.5770     4.7550     3.3920  C.ar    1  <O>11      -0.0435
   8 C6        1.8370     5.2580     4.4610  C.ar    1  <O>11       0.0297
   9 N2        2.2080     5.0560     5.7360  N.ar    1  <O>11      -0.2401
  10 C7        5.2120     3.2520     8.9830  C.ar    1  <O>11       0.0389
  11 C8        6.3730     2.5260     9.3020  C.ar    1  <O>11      -0.0495
  12 C9        6.7330     2.3260    10.6390  C.ar    1  <O>11      -0.0592
  13 C10       5.9450     2.8490    11.6670  C.ar    1  <O>11      -0.0350
  14 C11       4.7920     3.5770    11.3480  C.ar    1  <O>11       0.1092
  15 S1        3.8030     4.2340    12.6470  S.O2    1  <O>11       0.0724
  16 O2        4.7120     5.2810    13.5600  O.2     1  <O>11      -0.1500
  17 O3        3.2550     2.9940    13.6070  O.2     1  <O>11      -0.1500
  18 N3        2.5140     5.0430    12.0020  N.pl3   1  <O>11      -0.2135
  19 C12       1.5460     5.6790    12.8760  C.ar    1  <O>11       0.0831
  20 C13       1.6990     5.6100    14.2710  C.ar    1  <O>11      -0.0365
  21 C14       0.7580     6.2140    15.1140  C.ar    1  <O>11      -0.0598
  22 C15      -0.3360     6.8920    14.5740  C.ar    1  <O>11      -0.0589
  23 C16      -0.4850     6.9660    13.1840  C.ar    1  <O>11      -0.0246
  24 C17       0.4480     6.3690    12.3350  C.ar    1  <O>11       0.1456
  25 F1        0.3070     6.4470    10.9740  F       1  <O>11      -0.2035
  26 C18       4.4250     3.7840    10.0180  C.ar    1  <O>11      -0.0230
  27 H1        3.1230     4.5480     8.0360  H       1  <O>11       0.1566
  28 H2        2.4000     5.0960    10.9900  H       1  <O>11       0.1738
  29 H3        4.9833     3.2876     5.1928  H       1  <O>11       0.0652
  30 H4        4.2859     3.6122     2.8647  H       1  <O>11       0.0619
  31 H5        2.2729     4.9316     2.4218  H       1  <O>11       0.0633
  32 H6        0.9807     5.8004     4.2674  H       1  <O>11       0.0830
  33 H7        6.9615     2.1394     8.5475  H       1  <O>11       0.0625
  34 H8        7.5847     1.7896    10.8669  H       1  <O>11       0.0618
  35 H9        6.2102     2.7002    12.6532  H       1  <O>11       0.0637
  36 H10       2.5076     5.1125    14.6757  H       1  <O>11       0.0637
  37 H11       0.8738     6.1576    16.1379  H       1  <O>11       0.0618
  38 H12      -1.0304     7.3358    15.1952  H       1  <O>11       0.0618
  39 H13      -1.2931     7.4672    12.7830  H       1  <O>11       0.0647
  40 H14       3.5764     4.3273     9.7948  H       1  <O>11       0.0645
@<TRIPOS>BOND
     1     1     2    2
     2     2     3   am
     3     3     4    1
     4     4     5   ar
     5     5     6   ar
     6     6     7   ar
     7     7     8   ar
     8     8     9   ar
     9     4     9   ar
    10     2    10    1
    11    10    11   ar
    12    11    12   ar
    13    12    13   ar
    14    13    14   ar
    15    14    15    1
    16    15    16    2
    17    15    17    2
    18    15    18    1
    19    18    19    1
    20    19    20   ar
    21    20    21   ar
    22    21    22   ar
    23    22    23   ar
    24    23    24   ar
    25    19    24   ar
    26    24    25    1
    27    14    26   ar
    28    10    26   ar
    29     3    27    1
    30    18    28    1
    31     5    29    1
    32     6    30    1
    33     7    31    1
    34     8    32    1
    35    11    33    1
    36    12    34    1
    37    13    35    1
    38    20    36    1
    39    21    37    1
    40    22    38    1
    41    23    39    1
    42    26    40    1
@<TRIPOS>MOLECULE
mol15_1_29
 40 42 0 0 0
SMALL
USER_CHARGES
****
VDW energy = -38.31
@<TRIPOS>ATOM
   1 O1        5.5173     2.9861     6.6958  O.2     1  <O>11      -0.2698
   2 C1        4.8288     3.4514     7.5917  C.2     1  <O>11       0.2494
   3 N1        3.6970     4.1600     7.2880  N.am    1  <O>11      -0.2664
   4 C2        3.3330     4.3490     5.9650  C.ar    1  <O>11       0.1251
   5 C3        4.1260     3.8150     4.9650  C.ar    1  <O>11      -0.0215
   6 C4        3.7350     4.0090     3.6420  C.ar    1  <O>11      -0.0571
   7 C5        2.5770     4.7550     3.3920  C.ar    1  <O>11      -0.0435
   8 C6        1.8370     5.2580     4.4610  C.ar    1  <O>11       0.0297
   9 N2        2.2080     5.0560     5.7360  N.ar    1  <O>11      -0.2401
  10 C7        5.2120     3.2520     8.9830  C.ar    1  <O>11       0.0389
  11 C8        6.3730     2.5260     9.3020  C.ar    1  <O>11      -0.0495
  12 C9        6.7330     2.3260    10.6390  C.ar    1  <O>11      -0.0592
  13 C10       5.9450     2.8490    11.6670  C.ar    1  <O>11      -0.0350
  14 C11       4.7920     3.5770    11.3480  C.ar    1  <O>11       0.1092
  15 S1        3.8030     4.2340    12.6470  S.O2    1  <O>11       0.0724
  16 O2        4.7120     5.2810    13.5600  O.2     1  <O>11      -0.1500
  17 O3        3.2550     2.9940    13.6070  O.2     1  <O>11      -0.1500
  18 N3        2.5140     5.0430    12.0020  N.pl3   1  <O>11      -0.2135
  19 C12       1.5648     4.3402    11.1591  C.ar    1  <O>11       0.0831
  20 C13       1.7366     2.9724    10.8875  C.ar    1  <O>11      -0.0365
  21 C14       0.8267     2.2975    10.0643  C.ar    1  <O>11      -0.0598
  22 C15      -0.2592     2.9782     9.5115  C.ar    1  <O>11      -0.0589
  23 C16      -0.4338     4.3395     9.7873  C.ar    1  <O>11      -0.0246
  24 C17       0.4663     5.0210    10.6077  C.ar    1  <O>11       0.1456
  25 F1        0.2924     6.3521    10.8842  F       1  <O>11      -0.2035
  26 C18       4.4250     3.7840    10.0180  C.ar    1  <O>11      -0.0230
  27 H1        3.1230     4.5480     8.0360  H       1  <O>11       0.1566
  28 H2        2.3854     6.0356    12.1976  H       1  <O>11       0.1738
  29 H3        4.9833     3.2876     5.1928  H       1  <O>11       0.0652
  30 H4        4.2859     3.6122     2.8647  H       1  <O>11       0.0619
  31 H5        2.2729     4.9316     2.4218  H       1  <O>11       0.0633
  32 H6        0.9807     5.8004     4.2674  H       1  <O>11       0.0830
  33 H7        6.9615     2.1394     8.5475  H       1  <O>11       0.0625
  34 H8        7.5847     1.7896    10.8669  H       1  <O>11       0.0618
  35 H9        6.2102     2.7002    12.6532  H       1  <O>11       0.0637
  36 H10       2.5362     2.4634    11.2959  H       1  <O>11       0.0637
  37 H11       0.9595     1.2935     9.8658  H       1  <O>11       0.0618
  38 H12      -0.9290     2.4813     8.9036  H       1  <O>11       0.0618
  39 H13      -1.2363     4.8443     9.3797  H       1  <O>11       0.0647
  40 H14       3.5764     4.3273     9.7948  H       1  <O>11       0.0645
@<TRIPOS>BOND
     1     1     2    2
     2     2     3   am
     3     3     4    1
     4     4     5   ar
     5     5     6   ar
     6     6     7   ar
     7     7     8   ar
     8     8     9   ar
     9     4     9   ar
    10     2    10    1
    11    10    11   ar
    12    11    12   ar
    13    12    13   ar
    14    13    14   ar
    15    14    15    1
    16    15    16    2
    17    15    17    2
    18    15    18    1
    19    18    19    1
    20    19    20   ar
    21    20    21   ar
    22    21    22   ar
    23    22    23   ar
    24    23    24   ar
    25    19    24   ar
    26    24    25    1
    27    14    26   ar
    28    10    26   ar
    29     3    27    1
    30    18    28    1
    31     5    29    1
    32     6    30    1
    33     7    31    1
    34     8    32    1
    35    11    33    1
    36    12    34    1
    37    13    35    1
    38    20    36    1
    39    21    37    1
    40    22    38    1
    41    23    39    1
    42    26    40    1
@<TRIPOS>MOLECULE
mol15_1_30
 40 42 0 0 0
SMALL
USER_CHARGES
****
VDW energy = -38.12
@<TRIPOS>ATOM
   1 O1        5.5173     2.9861     6.6958  O.2     1  <O>11      -0.2698
   2 C1        4.8288     3.4514     7.5917  C.2     1  <O>11       0.2494
   3 N1        3.6970     4.1600     7.2880  N.am    1  <O>11      -0.2664
   4 C2        3.3330     4.3490     5.9650  C.ar    1  <O>11       0.1251
   5 C3        4.1260     3.8150     4.9650  C.ar    1  <O>11      -0.0215
   6 C4        3.7350     4.0090     3.6420  C.ar    1  <O>11      -0.0571
   7 C5        2.5770     4.7550     3.3920  C.ar    1  <O>11      -0.0435
   8 C6        1.8370     5.2580     4.4610  C.ar    1  <O>11       0.0297
   9 N2        2.2080     5.0560     5.7360  N.ar    1  <O>11      -0.2401
  10 C7        5.2120     3.2520     8.9830  C.ar    1  <O>11       0.0389
  11 C8        6.3730     2.5260     9.3020  C.ar    1  <O>11      -0.0495
  12 C9        6.7330     2.3260    10.6390  C.ar    1  <O>11      -0.0592
  13 C10       5.9450     2.8490    11.6670  C.ar    1  <O>11      -0.0350
  14 C11       4.7920     3.5770    11.3480  C.ar    1  <O>11       0.1092
  15 S1        3.8030     4.2340    12.6470  S.O2    1  <O>11       0.0724
  16 O2        4.7120     5.2810    13.5600  O.2     1  <O>11      -0.1500
  17 O3        3.2550     2.9940    13.6070  O.2     1  <O>11      -0.1500
  18 N3        2.5140     5.0430    12.0020  N.pl3   1  <O>11      -0.2135
  19 C12       2.7352     6.1753    11.1220  C.ar    1  <O>11       0.0831
  20 C13       4.0425     6.5887    10.8151  C.ar    1  <O>11      -0.0365
  21 C14       4.2550     7.6888     9.9752  C.ar    1  <O>11      -0.0598
  22 C15       3.1696     8.3795     9.4340  C.ar    1  <O>11      -0.0589
  23 C16       1.8671     7.9637     9.7349  C.ar    1  <O>11      -0.0246
  24 C17       1.6444     6.8676    10.5694  C.ar    1  <O>11       0.1456
  25 F1        0.3698     6.4552    10.8588  F       1  <O>11      -0.2035
  26 C18       4.4250     3.7840    10.0180  C.ar    1  <O>11      -0.0230
  27 H1        3.1230     4.5480     8.0360  H       1  <O>11       0.1566
  28 H2        1.5637     4.7454    12.2217  H       1  <O>11       0.1738
  29 H3        4.9833     3.2876     5.1928  H       1  <O>11       0.0652
  30 H4        4.2859     3.6122     2.8647  H       1  <O>11       0.0619
  31 H5        2.2729     4.9316     2.4218  H       1  <O>11       0.0633
  32 H6        0.9807     5.8004     4.2674  H       1  <O>11       0.0830
  33 H7        6.9615     2.1394     8.5475  H       1  <O>11       0.0625
  34 H8        7.5847     1.7896    10.8669  H       1  <O>11       0.0618
  35 H9        6.2102     2.7002    12.6532  H       1  <O>11       0.0637
  36 H10       4.8488     6.0798    11.2101  H       1  <O>11       0.0637
  37 H11       5.2174     7.9898     9.7556  H       1  <O>11       0.0618
  38 H12       3.3261     9.1912     8.8163  H       1  <O>11       0.0618
  39 H13       1.0634     8.4730     9.3353  H       1  <O>11       0.0647
  40 H14       3.5764     4.3273     9.7948  H       1  <O>11       0.0645
@<TRIPOS>BOND
     1     1     2    2
     2     2     3   am
     3     3     4    1
     4     4     5   ar
     5     5     6   ar
     6     6     7   ar
     7     7     8   ar
     8     8     9   ar
     9     4     9   ar
    10     2    10    1
    11    10    11   ar
    12    11    12   ar
    13    12    13   ar
    14    13    14   ar
    15    14    15    1
    16    15    16    2
    17    15    17    2
    18    15    18    1
    19    18    19    1
    20    19    20   ar
    21    20    21   ar
    22    21    22   ar
    23    22    23   ar
    24    23    24   ar
    25    19    24   ar
    26    24    25    1
    27    14    26   ar
    28    10    26   ar
    29     3    27    1
    30    18    28    1
    31     5    29    1
    32     6    30    1
    33     7    31    1
    34     8    32    1
    35    11    33    1
    36    12    34    1
    37    13    35    1
    38    20    36    1
    39    21    37    1
    40    22    38    1
    41    23    39    1
    42    26    40    1
@<TRIPOS>MOLECULE
mol15_2_1
 40 42 0 0 0
SMALL
USER_CHARGES
****
VDW energy = -83.02
@<TRIPOS>ATOM
   1 O1        3.4420    -9.1855    -5.2979  O.2     1  <O>11      -0.2698
   2 C1        2.8552    -9.8129    -4.4288  C.2     1  <O>11       0.2494
   3 N1        3.5160   -10.1860    -3.2900  N.am    1  <O>11      -0.2664
   4 C2        4.8600    -9.8500    -3.1210  C.ar    1  <O>11       0.1251
   5 C3        5.8636   -10.7444    -3.5796  C.ar    1  <O>11      -0.0215
   6 C4        7.2015   -10.3960    -3.4153  C.ar    1  <O>11      -0.0571
   7 C5        7.5015    -9.1849    -2.7806  C.ar    1  <O>11      -0.0435
   8 C6        6.4643    -8.3547    -2.3548  C.ar    1  <O>11       0.0297
   9 N2        5.1754    -8.6857    -2.5284  N.ar    1  <O>11      -0.2401
  10 C7        1.4620   -10.1610    -4.6040  C.ar    1  <O>11       0.0389
  11 C8        1.1306   -11.3698    -5.2192  C.ar    1  <O>11      -0.0495
  12 C9       -0.2153   -11.7066    -5.4026  C.ar    1  <O>11      -0.0592
  13 C10      -1.2229   -10.8409    -4.9699  C.ar    1  <O>11      -0.0350
  14 C11      -0.8747    -9.6351    -4.3496  C.ar    1  <O>11       0.1092
  15 S1       -2.1487    -8.5493    -3.8059  S.O2    1  <O>11       0.0724
  16 O2       -1.6203    -7.6946    -2.4842  O.2     1  <O>11      -0.1500
  17 O3       -3.4911    -9.4350    -3.3916  O.2     1  <O>11      -0.1500
  18 N3       -2.5343    -7.5006    -5.0216  N.pl3   1  <O>11      -0.2135
  19 C12      -3.5646    -6.4996    -4.8174  C.ar    1  <O>11       0.0831
  20 C13      -4.2401    -6.4157    -3.5875  C.ar    1  <O>11      -0.0365
  21 C14      -5.2417    -5.4593    -3.3959  C.ar    1  <O>11      -0.0598
  22 C15      -5.5757    -4.5755    -4.4250  C.ar    1  <O>11      -0.0589
  23 C16      -4.8989    -4.6541    -5.6475  C.ar    1  <O>11      -0.0246
  24 C17      -3.8976    -5.6053    -5.8476  C.ar    1  <O>11       0.1456
  25 F1       -3.2292    -5.6767    -7.0425  F       1  <O>11      -0.2035
  26 C18       0.4636    -9.2913    -4.1600  C.ar    1  <O>11      -0.0230
  27 H1        3.0270   -10.7100    -2.5640  H       1  <O>11       0.1566
  28 H2       -2.0476    -7.5562    -5.9180  H       1  <O>11       0.1738
  29 H3        5.6054   -11.6377    -4.0271  H       1  <O>11       0.0652
  30 H4        7.9541   -11.0158    -3.7534  H       1  <O>11       0.0619
  31 H5        8.4840    -8.9078    -2.6287  H       1  <O>11       0.0633
  32 H6        6.6947    -7.4607    -1.8935  H       1  <O>11       0.0830
  33 H7        1.8739   -12.0113    -5.5368  H       1  <O>11       0.0625
  34 H8       -0.4644   -12.5978    -5.8593  H       1  <O>11       0.0618
  35 H9       -2.2155   -11.0882    -5.1063  H       1  <O>11       0.0637
  36 H10      -3.9954    -7.0633    -2.8221  H       1  <O>11       0.0637
  37 H11      -5.7358    -5.4060    -2.4914  H       1  <O>11       0.0618
  38 H12      -6.3158    -3.8701    -4.2847  H       1  <O>11       0.0618
  39 H13      -5.1430    -4.0018    -6.4090  H       1  <O>11       0.0647
  40 H14       0.7134    -8.4037    -3.6966  H       1  <O>11       0.0645
@<TRIPOS>BOND
     1     1     2    2
     2     2     3   am
     3     3     4    1
     4     4     5   ar
     5     5     6   ar
     6     6     7   ar
     7     7     8   ar
     8     8     9   ar
     9     4     9   ar
    10     2    10    1
    11    10    11   ar
    12    11    12   ar
    13    12    13   ar
    14    13    14   ar
    15    14    15    1
    16    15    16    2
    17    15    17    2
    18    15    18    1
    19    18    19    1
    20    19    20   ar
    21    20    21   ar
    22    21    22   ar
    23    22    23   ar
    24    23    24   ar
    25    19    24   ar
    26    24    25    1
    27    14    26   ar
    28    10    26   ar
    29     3    27    1
    30    18    28    1
    31     5    29    1
    32     6    30    1
    33     7    31    1
    34     8    32    1
    35    11    33    1
    36    12    34    1
    37    13    35    1
    38    20    36    1
    39    21    37    1
    40    22    38    1
    41    23    39    1
    42    26    40    1
@<TRIPOS>MOLECULE
mol15_2_2
 40 42 0 0 0
SMALL
USER_CHARGES
****
VDW energy = -81.19
@<TRIPOS>ATOM
   1 O1        3.4420    -9.1855    -5.2979  O.2     1  <O>11      -0.2698
   2 C1        2.8552    -9.8129    -4.4288  C.2     1  <O>11       0.2494
   3 N1        3.5160   -10.1860    -3.2900  N.am    1  <O>11      -0.2664
   4 C2        4.8600    -9.8500    -3.1210  C.ar    1  <O>11       0.1251
   5 C3        5.8636   -10.7444    -3.5796  C.ar    1  <O>11      -0.0215
   6 C4        7.2015   -10.3960    -3.4153  C.ar    1  <O>11      -0.0571
   7 C5        7.5015    -9.1849    -2.7806  C.ar    1  <O>11      -0.0435
   8 C6        6.4643    -8.3547    -2.3548  C.ar    1  <O>11       0.0297
   9 N2        5.1754    -8.6857    -2.5284  N.ar    1  <O>11      -0.2401
  10 C7        1.4620   -10.1610    -4.6040  C.ar    1  <O>11       0.0389
  11 C8        1.1306   -11.3698    -5.2192  C.ar    1  <O>11      -0.0495
  12 C9       -0.2153   -11.7066    -5.4026  C.ar    1  <O>11      -0.0592
  13 C10      -1.2229   -10.8409    -4.9699  C.ar    1  <O>11      -0.0350
  14 C11      -0.8747    -9.6351    -4.3496  C.ar    1  <O>11       0.1092
  15 S1       -2.1487    -8.5493    -3.8059  S.O2    1  <O>11       0.0724
  16 O2       -3.0778    -8.0928    -5.1039  O.2     1  <O>11      -0.1500
  17 O3       -1.4689    -7.2028    -3.1110  O.2     1  <O>11      -0.1500
  18 N3       -3.0954    -9.3234    -2.6963  N.pl3   1  <O>11      -0.2135
  19 C12      -4.2214    -8.6334    -2.0952  C.ar    1  <O>11       0.0831
  20 C13      -4.5135    -7.3054    -2.4516  C.ar    1  <O>11      -0.0365
  21 C14      -5.5909    -6.6370    -1.8624  C.ar    1  <O>11      -0.0598
  22 C15      -6.3892    -7.2865    -0.9177  C.ar    1  <O>11      -0.0589
  23 C16      -6.1029    -8.6109    -0.5673  C.ar    1  <O>11      -0.0246
  24 C17      -5.0298    -9.2860    -1.1505  C.ar    1  <O>11       0.1456
  25 F1       -4.7546   -10.5860    -0.8131  F       1  <O>11      -0.2035
  26 C18       0.4636    -9.2913    -4.1600  C.ar    1  <O>11      -0.0230
  27 H1        3.0270   -10.7100    -2.5640  H       1  <O>11       0.1566
  28 H2       -2.8885   -10.2884    -2.4326  H       1  <O>11       0.1738
  29 H3        5.6054   -11.6377    -4.0271  H       1  <O>11       0.0652
  30 H4        7.9541   -11.0158    -3.7534  H       1  <O>11       0.0619
  31 H5        8.4840    -8.9078    -2.6287  H       1  <O>11       0.0633
  32 H6        6.6947    -7.4607    -1.8935  H       1  <O>11       0.0830
  33 H7        1.8739   -12.0113    -5.5368  H       1  <O>11       0.0625
  34 H8       -0.4644   -12.5978    -5.8593  H       1  <O>11       0.0618
  35 H9       -2.2155   -11.0882    -5.1063  H       1  <O>11       0.0637
  36 H10      -3.9298    -6.8214    -3.1517  H       1  <O>11       0.0637
  37 H11      -5.7972    -5.6609    -2.1263  H       1  <O>11       0.0618
  38 H12      -7.1839    -6.7934    -0.4814  H       1  <O>11       0.0618
  39 H13      -6.6916    -9.0933     0.1296  H       1  <O>11       0.0647
  40 H14       0.7134    -8.4037    -3.6966  H       1  <O>11       0.0645
@<TRIPOS>BOND
     1     1     2    2
     2     2     3   am
     3     3     4    1
     4     4     5   ar
     5     5     6   ar
     6     6     7   ar
     7     7     8   ar
     8     8     9   ar
     9     4     9   ar
    10     2    10    1
    11    10    11   ar
    12    11    12   ar
    13    12    13   ar
    14    13    14   ar
    15    14    15    1
    16    15    16    2
    17    15    17    2
    18    15    18    1
    19    18    19    1
    20    19    20   ar
    21    20    21   ar
    22    21    22   ar
    23    22    23   ar
    24    23    24   ar
    25    19    24   ar
    26    24    25    1
    27    14    26   ar
    28    10    26   ar
    29     3    27    1
    30    18    28    1
    31     5    29    1
    32     6    30    1
    33     7    31    1
    34     8    32    1
    35    11    33    1
    36    12    34    1
    37    13    35    1
    38    20    36    1
    39    21    37    1
    40    22    38    1
    41    23    39    1
    42    26    40    1
@<TRIPOS>MOLECULE
mol15_2_3
 40 42 0 0 0
SMALL
USER_CHARGES
****
VDW energy = -80.49
@<TRIPOS>ATOM
   1 O1        3.4420    -9.1855    -5.2979  O.2     1  <O>11      -0.2698
   2 C1        2.8552    -9.8129    -4.4288  C.2     1  <O>11       0.2494
   3 N1        3.5160   -10.1860    -3.2900  N.am    1  <O>11      -0.2664
   4 C2        4.8600    -9.8500    -3.1210  C.ar    1  <O>11       0.1251
   5 C3        5.8636   -10.7444    -3.5796  C.ar    1  <O>11      -0.0215
   6 C4        7.2015   -10.3960    -3.4153  C.ar    1  <O>11      -0.0571
   7 C5        7.5015    -9.1849    -2.7806  C.ar    1  <O>11      -0.0435
   8 C6        6.4643    -8.3547    -2.3548  C.ar    1  <O>11       0.0297
   9 N2        5.1754    -8.6857    -2.5284  N.ar    1  <O>11      -0.2401
  10 C7        1.4620   -10.1610    -4.6040  C.ar    1  <O>11       0.0389
  11 C8        1.1306   -11.3698    -5.2192  C.ar    1  <O>11      -0.0495
  12 C9       -0.2153   -11.7066    -5.4026  C.ar    1  <O>11      -0.0592
  13 C10      -1.2229   -10.8409    -4.9699  C.ar    1  <O>11      -0.0350
  14 C11      -0.8747    -9.6351    -4.3496  C.ar    1  <O>11       0.1092
  15 S1       -2.1487    -8.5493    -3.8059  S.O2    1  <O>11       0.0724
  16 O2       -3.1004    -9.3280    -2.6903  O.2     1  <O>11      -0.1500
  17 O3       -3.0784    -8.0931    -5.1042  O.2     1  <O>11      -0.1500
  18 N3       -1.4732    -7.2106    -3.1145  N.pl3   1  <O>11      -0.2135
  19 C12      -2.3224    -6.1601    -2.5849  C.ar    1  <O>11       0.0831
  20 C13      -3.7216    -6.2737    -2.6565  C.ar    1  <O>11      -0.0365
  21 C14      -4.5391    -5.2551    -2.1576  C.ar    1  <O>11      -0.0598
  22 C15      -3.9707    -4.1177    -1.5790  C.ar    1  <O>11      -0.0589
  23 C16      -2.5777    -4.0070    -1.5014  C.ar    1  <O>11      -0.0246
  24 C17      -1.7539    -5.0188    -1.9965  C.ar    1  <O>11       0.1456
  25 F1       -0.3895    -4.9138    -1.9129  F       1  <O>11      -0.2035
  26 C18       0.4636    -9.2913    -4.1600  C.ar    1  <O>11      -0.0230
  27 H1        3.0270   -10.7100    -2.5640  H       1  <O>11       0.1566
  28 H2       -0.4570    -7.1215    -3.0595  H       1  <O>11       0.1738
  29 H3        5.6054   -11.6377    -4.0271  H       1  <O>11       0.0652
  30 H4        7.9541   -11.0158    -3.7534  H       1  <O>11       0.0619
  31 H5        8.4840    -8.9078    -2.6287  H       1  <O>11       0.0633
  32 H6        6.6947    -7.4607    -1.8935  H       1  <O>11       0.0830
  33 H7        1.8739   -12.0113    -5.5368  H       1  <O>11       0.0625
  34 H8       -0.4644   -12.5978    -5.8593  H       1  <O>11       0.0618
  35 H9       -2.2155   -11.0882    -5.1063  H       1  <O>11       0.0637
  36 H10      -4.1477    -7.1132    -3.0794  H       1  <O>11       0.0637
  37 H11      -5.5656    -5.3438    -2.2169  H       1  <O>11       0.0618
  38 H12      -4.5734    -3.3648    -1.2116  H       1  <O>11       0.0618
  39 H13      -2.1552    -3.1682    -1.0735  H       1  <O>11       0.0647
  40 H14       0.7134    -8.4037    -3.6966  H       1  <O>11       0.0645
@<TRIPOS>BOND
     1     1     2    2
     2     2     3   am
     3     3     4    1
     4     4     5   ar
     5     5     6   ar
     6     6     7   ar
     7     7     8   ar
     8     8     9   ar
     9     4     9   ar
    10     2    10    1
    11    10    11   ar
    12    11    12   ar
    13    12    13   ar
    14    13    14   ar
    15    14    15    1
    16    15    16    2
    17    15    17    2
    18    15    18    1
    19    18    19    1
    20    19    20   ar
    21    20    21   ar
    22    21    22   ar
    23    22    23   ar
    24    23    24   ar
    25    19    24   ar
    26    24    25    1
    27    14    26   ar
    28    10    26   ar
    29     3    27    1
    30    18    28    1
    31     5    29    1
    32     6    30    1
    33     7    31    1
    34     8    32    1
    35    11    33    1
    36    12    34    1
    37    13    35    1
    38    20    36    1
    39    21    37    1
    40    22    38    1
    41    23    39    1
    42    26    40    1
@<TRIPOS>MOLECULE
mol15_2_4
 40 42 0 0 0
SMALL
USER_CHARGES
****
VDW energy = -76.66
@<TRIPOS>ATOM
   1 O1        3.4420    -9.1855    -5.2979  O.2     1  <O>11      -0.2698
   2 C1        2.8552    -9.8129    -4.4288  C.2     1  <O>11       0.2494
   3 N1        3.5160   -10.1860    -3.2900  N.am    1  <O>11      -0.2664
   4 C2        4.8600    -9.8500    -3.1210  C.ar    1  <O>11       0.1251
   5 C3        5.2419    -9.0445    -2.0152  C.ar    1  <O>11      -0.0215
   6 C4        6.5863    -8.7227    -1.8496  C.ar    1  <O>11      -0.0571
   7 C5        7.5047    -9.1888    -2.7978  C.ar    1  <O>11      -0.0435
   8 C6        7.0588    -9.9758    -3.8600  C.ar    1  <O>11       0.0297
   9 N2        5.7644   -10.2975    -4.0087  N.ar    1  <O>11      -0.2401
  10 C7        1.4620   -10.1610    -4.6040  C.ar    1  <O>11       0.0389
  11 C8        0.5946   -10.0837    -3.5126  C.ar    1  <O>11      -0.0495
  12 C9       -0.7516   -10.4309    -3.6727  C.ar    1  <O>11      -0.0592
  13 C10      -1.2274   -10.8492    -4.9180  C.ar    1  <O>11      -0.0350
  14 C11      -0.3466   -10.9160    -6.0041  C.ar    1  <O>11       0.1092
  15 S1       -0.9524   -11.4428    -7.5704  S.O2    1  <O>11       0.0724
  16 O2       -2.1531   -10.4127    -8.0740  O.2     1  <O>11      -0.1500
  17 O3       -1.5627   -12.9817    -7.4385  O.2     1  <O>11      -0.1500
  18 N3        0.2799   -11.4312    -8.6695  N.pl3   1  <O>11      -0.2135
  19 C12       0.0316   -11.8280   -10.0428  C.ar    1  <O>11       0.0831
  20 C13       0.6297   -12.9873   -10.5667  C.ar    1  <O>11      -0.0365
  21 C14       0.4001   -13.3619   -11.8940  C.ar    1  <O>11      -0.0598
  22 C15      -0.4303   -12.5887   -12.7089  C.ar    1  <O>11      -0.0589
  23 C16      -1.0313   -11.4381   -12.1860  C.ar    1  <O>11      -0.0246
  24 C17      -0.8082   -11.0566   -10.8623  C.ar    1  <O>11       0.1456
  25 F1       -1.4037    -9.9339   -10.3479  F       1  <O>11      -0.2035
  26 C18       0.9963   -10.5699    -5.8555  C.ar    1  <O>11      -0.0230
  27 H1        3.0270   -10.7100    -2.5640  H       1  <O>11       0.1566
  28 H2        1.2176   -11.1446    -8.3828  H       1  <O>11       0.1738
  29 H3        4.5347    -8.7034    -1.3456  H       1  <O>11       0.0652
  30 H4        6.8984    -8.1541    -1.0469  H       1  <O>11       0.0619
  31 H5        8.5054    -8.9518    -2.7115  H       1  <O>11       0.0633
  32 H6        7.7437   -10.3202    -4.5509  H       1  <O>11       0.0830
  33 H7        0.9443    -9.7723    -2.5929  H       1  <O>11       0.0625
  34 H8       -1.3953   -10.3778    -2.8679  H       1  <O>11       0.0618
  35 H9       -2.2197   -11.1068    -5.0362  H       1  <O>11       0.0637
  36 H10       1.2412   -13.5647    -9.9686  H       1  <O>11       0.0637
  37 H11       0.8455   -14.2123   -12.2728  H       1  <O>11       0.0618
  38 H12      -0.5992   -12.8639   -13.6891  H       1  <O>11       0.0618
  39 H13      -1.6460   -10.8657   -12.7856  H       1  <O>11       0.0647
  40 H14       1.6389   -10.6156    -6.6617  H       1  <O>11       0.0645
@<TRIPOS>BOND
     1     1     2    2
     2     2     3   am
     3     3     4    1
     4     4     5   ar
     5     5     6   ar
     6     6     7   ar
     7     7     8   ar
     8     8     9   ar
     9     4     9   ar
    10     2    10    1
    11    10    11   ar
    12    11    12   ar
    13    12    13   ar
    14    13    14   ar
    15    14    15    1
    16    15    16    2
    17    15    17    2
    18    15    18    1
    19    18    19    1
    20    19    20   ar
    21    20    21   ar
    22    21    22   ar
    23    22    23   ar
    24    23    24   ar
    25    19    24   ar
    26    24    25    1
    27    14    26   ar
    28    10    26   ar
    29     3    27    1
    30    18    28    1
    31     5    29    1
    32     6    30    1
    33     7    31    1
    34     8    32    1
    35    11    33    1
    36    12    34    1
    37    13    35    1
    38    20    36    1
    39    21    37    1
    40    22    38    1
    41    23    39    1
    42    26    40    1
@<TRIPOS>MOLECULE
mol15_2_5
 40 42 0 0 0
SMALL
USER_CHARGES
****
VDW energy = -76.42
@<TRIPOS>ATOM
   1 O1        3.4420    -9.1855    -5.2979  O.2     1  <O>11      -0.2698
   2 C1        2.8552    -9.8129    -4.4288  C.2     1  <O>11       0.2494
   3 N1        3.5160   -10.1860    -3.2900  N.am    1  <O>11      -0.2664
   4 C2        4.8600    -9.8500    -3.1210  C.ar    1  <O>11       0.1251
   5 C3        5.8200   -10.8837    -2.9554  C.ar    1  <O>11      -0.0215
   6 C4        7.1595   -10.5390    -2.7973  C.ar    1  <O>11      -0.0571
   7 C5        7.5011    -9.1815    -2.7840  C.ar    1  <O>11      -0.0435
   8 C6        6.5054    -8.2188    -2.9520  C.ar    1  <O>11       0.0297
   9 N2        5.2169    -8.5543    -3.1198  N.ar    1  <O>11      -0.2401
  10 C7        1.4620   -10.1610    -4.6040  C.ar    1  <O>11       0.0389
  11 C8        0.8010    -9.7730    -5.7710  C.ar    1  <O>11      -0.0495
  12 C9       -0.5500   -10.0960    -5.9410  C.ar    1  <O>11      -0.0592
  13 C10      -1.2340   -10.8060    -4.9510  C.ar    1  <O>11      -0.0350
  14 C11      -0.5560   -11.1930    -3.7890  C.ar    1  <O>11       0.1092
  15 S1       -1.4230   -12.0880    -2.5460  S.O2    1  <O>11       0.0724
  16 O2       -3.0248   -11.6519    -2.5661  O.2     1  <O>11      -0.1500
  17 O3       -0.7731   -11.7391    -1.0581  O.2     1  <O>11      -0.1500
  18 N3       -1.2895   -13.7075    -2.8395  N.pl3   1  <O>11      -0.2135
  19 C12      -1.9231   -14.6613    -1.9485  C.ar    1  <O>11       0.0831
  20 C13      -3.2410   -15.0886    -2.1858  C.ar    1  <O>11      -0.0365
  21 C14      -3.8553   -15.9979    -1.3195  C.ar    1  <O>11      -0.0598
  22 C15      -3.1611   -16.4932    -0.2130  C.ar    1  <O>11      -0.0589
  23 C16      -1.8466   -16.0733     0.0202  C.ar    1  <O>11      -0.0246
  24 C17      -1.2253   -15.1662    -0.8393  C.ar    1  <O>11       0.1456
  25 F1        0.0652   -14.7615    -0.6152  F       1  <O>11      -0.2035
  26 C18       0.7910   -10.8780    -3.6110  C.ar    1  <O>11      -0.0230
  27 H1        3.0270   -10.7100    -2.5640  H       1  <O>11       0.1566
  28 H2       -0.7607   -14.0383    -3.6484  H       1  <O>11       0.1738
  29 H3        5.5293   -11.8739    -2.9524  H       1  <O>11       0.0652
  30 H4        7.8834   -11.2669    -2.6924  H       1  <O>11       0.0619
  31 H5        8.4835    -8.8946    -2.6508  H       1  <O>11       0.0633
  32 H6        6.7671    -7.2205    -2.9471  H       1  <O>11       0.0830
  33 H7        1.3059    -9.2509    -6.5042  H       1  <O>11       0.0625
  34 H8       -1.0429    -9.8087    -6.8009  H       1  <O>11       0.0618
  35 H9       -2.2307   -11.0431    -5.0753  H       1  <O>11       0.0637
  36 H10      -3.7578   -14.7292    -3.0037  H       1  <O>11       0.0637
  37 H11      -4.8244   -16.3043    -1.4981  H       1  <O>11       0.0618
  38 H12      -3.6143   -17.1635     0.4277  H       1  <O>11       0.0618
  39 H13      -1.3312   -16.4384     0.8364  H       1  <O>11       0.0647
  40 H14       1.2865   -11.1716    -2.7547  H       1  <O>11       0.0645
@<TRIPOS>BOND
     1     1     2    2
     2     2     3   am
     3     3     4    1
     4     4     5   ar
     5     5     6   ar
     6     6     7   ar
     7     7     8   ar
     8     8     9   ar
     9     4     9   ar
    10     2    10    1
    11    10    11   ar
    12    11    12   ar
    13    12    13   ar
    14    13    14   ar
    15    14    15    1
    16    15    16    2
    17    15    17    2
    18    15    18    1
    19    18    19    1
    20    19    20   ar
    21    20    21   ar
    22    21    22   ar
    23    22    23   ar
    24    23    24   ar
    25    19    24   ar
    26    24    25    1
    27    14    26   ar
    28    10    26   ar
    29     3    27    1
    30    18    28    1
    31     5    29    1
    32     6    30    1
    33     7    31    1
    34     8    32    1
    35    11    33    1
    36    12    34    1
    37    13    35    1
    38    20    36    1
    39    21    37    1
    40    22    38    1
    41    23    39    1
    42    26    40    1
@<TRIPOS>MOLECULE
mol15_2_6
 40 42 0 0 0
SMALL
USER_CHARGES
****
VDW energy = -75.92
@<TRIPOS>ATOM
   1 O1        3.4420    -9.1855    -5.2979  O.2     1  <O>11      -0.2698
   2 C1        2.8552    -9.8129    -4.4288  C.2     1  <O>11       0.2494
   3 N1        3.5160   -10.1860    -3.2900  N.am    1  <O>11      -0.2664
   4 C2        4.8600    -9.8500    -3.1210  C.ar    1  <O>11       0.1251
   5 C3        5.8200   -10.8837    -2.9554  C.ar    1  <O>11      -0.0215
   6 C4        7.1595   -10.5390    -2.7973  C.ar    1  <O>11      -0.0571
   7 C5        7.5011    -9.1815    -2.7840  C.ar    1  <O>11      -0.0435
   8 C6        6.5054    -8.2188    -2.9520  C.ar    1  <O>11       0.0297
   9 N2        5.2169    -8.5543    -3.1198  N.ar    1  <O>11      -0.2401
  10 C7        1.4620   -10.1610    -4.6040  C.ar    1  <O>11       0.0389
  11 C8        0.8010    -9.7730    -5.7710  C.ar    1  <O>11      -0.0495
  12 C9       -0.5500   -10.0960    -5.9410  C.ar    1  <O>11      -0.0592
  13 C10      -1.2340   -10.8060    -4.9510  C.ar    1  <O>11      -0.0350
  14 C11      -0.5560   -11.1930    -3.7890  C.ar    1  <O>11       0.1092
  15 S1       -1.4230   -12.0880    -2.5460  S.O2    1  <O>11       0.0724
  16 O2       -3.0248   -11.6519    -2.5661  O.2     1  <O>11      -0.1500
  17 O3       -0.7731   -11.7391    -1.0581  O.2     1  <O>11      -0.1500
  18 N3       -1.2895   -13.7075    -2.8395  N.pl3   1  <O>11      -0.2135
  19 C12      -1.9231   -14.6613    -1.9485  C.ar    1  <O>11       0.0831
  20 C13      -1.2257   -15.1685    -0.8383  C.ar    1  <O>11      -0.0365
  21 C14      -1.8324   -16.0974     0.0124  C.ar    1  <O>11      -0.0598
  22 C15      -3.1396   -16.5252    -0.2320  C.ar    1  <O>11      -0.0589
  23 C16      -3.8369   -16.0156    -1.3333  C.ar    1  <O>11      -0.0246
  24 C17      -3.2394   -15.0879    -2.1876  C.ar    1  <O>11       0.1456
  25 F1       -3.9256   -14.5827    -3.2617  F       1  <O>11      -0.2035
  26 C18       0.7910   -10.8780    -3.6110  C.ar    1  <O>11      -0.0230
  27 H1        3.0270   -10.7100    -2.5640  H       1  <O>11       0.1566
  28 H2       -0.7607   -14.0383    -3.6484  H       1  <O>11       0.1738
  29 H3        5.5293   -11.8739    -2.9524  H       1  <O>11       0.0652
  30 H4        7.8834   -11.2669    -2.6924  H       1  <O>11       0.0619
  31 H5        8.4835    -8.8946    -2.6508  H       1  <O>11       0.0633
  32 H6        6.7671    -7.2205    -2.9471  H       1  <O>11       0.0830
  33 H7        1.3059    -9.2509    -6.5042  H       1  <O>11       0.0625
  34 H8       -1.0429    -9.8087    -6.8009  H       1  <O>11       0.0618
  35 H9       -2.2307   -11.0431    -5.0753  H       1  <O>11       0.0637
  36 H10      -0.2610   -14.8536    -0.6503  H       1  <O>11       0.0637
  37 H11      -1.3129   -16.4681     0.8234  H       1  <O>11       0.0618
  38 H12      -3.5877   -17.2118     0.3948  H       1  <O>11       0.0618
  39 H13      -4.8030   -16.3293    -1.5156  H       1  <O>11       0.0647
  40 H14       1.2865   -11.1716    -2.7547  H       1  <O>11       0.0645
@<TRIPOS>BOND
     1     1     2    2
     2     2     3   am
     3     3     4    1
     4     4     5   ar
     5     5     6   ar
     6     6     7   ar
     7     7     8   ar
     8     8     9   ar
     9     4     9   ar
    10     2    10    1
    11    10    11   ar
    12    11    12   ar
    13    12    13   ar
    14    13    14   ar
    15    14    15    1
    16    15    16    2
    17    15    17    2
    18    15    18    1
    19    18    19    1
    20    19    20   ar
    21    20    21   ar
    22    21    22   ar
    23    22    23   ar
    24    23    24   ar
    25    19    24   ar
    26    24    25    1
    27    14    26   ar
    28    10    26   ar
    29     3    27    1
    30    18    28    1
    31     5    29    1
    32     6    30    1
    33     7    31    1
    34     8    32    1
    35    11    33    1
    36    12    34    1
    37    13    35    1
    38    20    36    1
    39    21    37    1
    40    22    38    1
    41    23    39    1
    42    26    40    1
@<TRIPOS>MOLECULE
mol15_2_7
 40 42 0 0 0
SMALL
USER_CHARGES
****
VDW energy = -75.33
@<TRIPOS>ATOM
   1 O1        3.4420    -9.1855    -5.2979  O.2     1  <O>11      -0.2698
   2 C1        2.8552    -9.8129    -4.4288  C.2     1  <O>11       0.2494
   3 N1        3.5160   -10.1860    -3.2900  N.am    1  <O>11      -0.2664
   4 C2        4.8600    -9.8500    -3.1210  C.ar    1  <O>11       0.1251
   5 C3        5.8636   -10.7444    -3.5796  C.ar    1  <O>11      -0.0215
   6 C4        7.2015   -10.3960    -3.4153  C.ar    1  <O>11      -0.0571
   7 C5        7.5015    -9.1849    -2.7806  C.ar    1  <O>11      -0.0435
   8 C6        6.4643    -8.3547    -2.3548  C.ar    1  <O>11       0.0297
   9 N2        5.1754    -8.6857    -2.5284  N.ar    1  <O>11      -0.2401
  10 C7        1.4620   -10.1610    -4.6040  C.ar    1  <O>11       0.0389
  11 C8        0.8010    -9.7730    -5.7710  C.ar    1  <O>11      -0.0495
  12 C9       -0.5500   -10.0960    -5.9410  C.ar    1  <O>11      -0.0592
  13 C10      -1.2340   -10.8060    -4.9510  C.ar    1  <O>11      -0.0350
  14 C11      -0.5560   -11.1930    -3.7890  C.ar    1  <O>11       0.1092
  15 S1       -1.4230   -12.0880    -2.5460  S.O2    1  <O>11       0.0724
  16 O2       -0.3661   -13.0866    -1.7447  O.2     1  <O>11      -0.1500
  17 O3       -2.6180   -12.9995    -3.2525  O.2     1  <O>11      -0.1500
  18 N3       -2.0988   -11.0284    -1.4750  N.pl3   1  <O>11      -0.2135
  19 C12      -2.8706   -11.5252    -0.3513  C.ar    1  <O>11       0.0831
  20 C13      -3.0483   -12.9073    -0.1668  C.ar    1  <O>11      -0.0365
  21 C14      -3.8028   -13.3847     0.9090  C.ar    1  <O>11      -0.0598
  22 C15      -4.3824   -12.4908     1.8127  C.ar    1  <O>11      -0.0589
  23 C16      -4.2003   -11.1148     1.6333  C.ar    1  <O>11      -0.0246
  24 C17      -3.4485   -10.6292     0.5627  C.ar    1  <O>11       0.1456
  25 F1       -3.2634    -9.2815     0.3920  F       1  <O>11      -0.2035
  26 C18       0.7910   -10.8780    -3.6110  C.ar    1  <O>11      -0.0230
  27 H1        3.0270   -10.7100    -2.5640  H       1  <O>11       0.1566
  28 H2       -1.9739   -10.0227    -1.6033  H       1  <O>11       0.1738
  29 H3        5.6054   -11.6377    -4.0271  H       1  <O>11       0.0652
  30 H4        7.9541   -11.0158    -3.7534  H       1  <O>11       0.0619
  31 H5        8.4840    -8.9078    -2.6287  H       1  <O>11       0.0633
  32 H6        6.6947    -7.4607    -1.8935  H       1  <O>11       0.0830
  33 H7        1.3059    -9.2509    -6.5042  H       1  <O>11       0.0625
  34 H8       -1.0429    -9.8087    -6.8009  H       1  <O>11       0.0618
  35 H9       -2.2307   -11.0431    -5.0753  H       1  <O>11       0.0637
  36 H10      -2.6196   -13.5730    -0.8287  H       1  <O>11       0.0637
  37 H11      -3.9321   -14.4007     1.0361  H       1  <O>11       0.0618
  38 H12      -4.9406   -12.8423     2.6063  H       1  <O>11       0.0618
  39 H13      -4.6265   -10.4522     2.3000  H       1  <O>11       0.0647
  40 H14       1.2865   -11.1716    -2.7547  H       1  <O>11       0.0645
@<TRIPOS>BOND
     1     1     2    2
     2     2     3   am
     3     3     4    1
     4     4     5   ar
     5     5     6   ar
     6     6     7   ar
     7     7     8   ar
     8     8     9   ar
     9     4     9   ar
    10     2    10    1
    11    10    11   ar
    12    11    12   ar
    13    12    13   ar
    14    13    14   ar
    15    14    15    1
    16    15    16    2
    17    15    17    2
    18    15    18    1
    19    18    19    1
    20    19    20   ar
    21    20    21   ar
    22    21    22   ar
    23    22    23   ar
    24    23    24   ar
    25    19    24   ar
    26    24    25    1
    27    14    26   ar
    28    10    26   ar
    29     3    27    1
    30    18    28    1
    31     5    29    1
    32     6    30    1
    33     7    31    1
    34     8    32    1
    35    11    33    1
    36    12    34    1
    37    13    35    1
    38    20    36    1
    39    21    37    1
    40    22    38    1
    41    23    39    1
    42    26    40    1
@<TRIPOS>MOLECULE
mol15_2_8
 40 42 0 0 0
SMALL
USER_CHARGES
****
VDW energy = -75.00
@<TRIPOS>ATOM
   1 O1        3.4420    -9.1855    -5.2979  O.2     1  <O>11      -0.2698
   2 C1        2.8552    -9.8129    -4.4288  C.2     1  <O>11       0.2494
   3 N1        3.5160   -10.1860    -3.2900  N.am    1  <O>11      -0.2664
   4 C2        4.8600    -9.8500    -3.1210  C.ar    1  <O>11       0.1251
   5 C3        5.8200   -10.8837    -2.9554  C.ar    1  <O>11      -0.0215
   6 C4        7.1595   -10.5390    -2.7973  C.ar    1  <O>11      -0.0571
   7 C5        7.5011    -9.1815    -2.7840  C.ar    1  <O>11      -0.0435
   8 C6        6.5054    -8.2188    -2.9520  C.ar    1  <O>11       0.0297
   9 N2        5.2169    -8.5543    -3.1198  N.ar    1  <O>11      -0.2401
  10 C7        1.4620   -10.1610    -4.6040  C.ar    1  <O>11       0.0389
  11 C8        1.0134   -11.4175    -4.1926  C.ar    1  <O>11      -0.0495
  12 C9       -0.3305   -11.7649    -4.3706  C.ar    1  <O>11      -0.0592
  13 C10      -1.2205   -10.8590    -4.9532  C.ar    1  <O>11      -0.0350
  14 C11      -0.7568    -9.6008    -5.3553  C.ar    1  <O>11       0.1092
  15 S1       -1.8831    -8.4638    -6.0878  S.O2    1  <O>11       0.0724
  16 O2       -3.0678    -9.3012    -6.8951  O.2     1  <O>11      -0.1500
  17 O3       -1.0681    -7.4887    -7.1569  O.2     1  <O>11      -0.1500
  18 N3       -2.5716    -7.5345    -4.9092  N.pl3   1  <O>11      -0.2135
  19 C12      -3.5417    -6.5151    -5.2627  C.ar    1  <O>11       0.0831
  20 C13      -3.9012    -6.3116    -6.6063  C.ar    1  <O>11      -0.0365
  21 C14      -4.8264    -5.3204    -6.9472  C.ar    1  <O>11      -0.0598
  22 C15      -5.4050    -4.5272    -5.9533  C.ar    1  <O>11      -0.0589
  23 C16      -5.0525    -4.7338    -4.6148  C.ar    1  <O>11      -0.0246
  24 C17      -4.1302    -5.7210    -4.2651  C.ar    1  <O>11       0.1456
  25 F1       -3.7913    -5.9286    -2.9530  F       1  <O>11      -0.2035
  26 C18       0.5801    -9.2441    -5.1802  C.ar    1  <O>11      -0.0230
  27 H1        3.0270   -10.7100    -2.5640  H       1  <O>11       0.1566
  28 H2       -2.3146    -7.6769    -3.9309  H       1  <O>11       0.1738
  29 H3        5.5293   -11.8739    -2.9524  H       1  <O>11       0.0652
  30 H4        7.8834   -11.2669    -2.6924  H       1  <O>11       0.0619
  31 H5        8.4835    -8.8946    -2.6508  H       1  <O>11       0.0633
  32 H6        6.7671    -7.2205    -2.9471  H       1  <O>11       0.0830
  33 H7        1.6693   -12.0865    -3.7596  H       1  <O>11       0.0625
  34 H8       -0.6655   -12.6936    -4.0704  H       1  <O>11       0.0618
  35 H9       -2.2113   -11.1153    -5.0861  H       1  <O>11       0.0637
  36 H10      -3.4801    -6.8967    -7.3447  H       1  <O>11       0.0637
  37 H11      -5.0828    -5.1743    -7.9361  H       1  <O>11       0.0618
  38 H12      -6.0871    -3.7946    -6.2043  H       1  <O>11       0.0618
  39 H13      -5.4792    -4.1499    -3.8785  H       1  <O>11       0.0647
  40 H14       0.9141    -8.3127    -5.4733  H       1  <O>11       0.0645
@<TRIPOS>BOND
     1     1     2    2
     2     2     3   am
     3     3     4    1
     4     4     5   ar
     5     5     6   ar
     6     6     7   ar
     7     7     8   ar
     8     8     9   ar
     9     4     9   ar
    10     2    10    1
    11    10    11   ar
    12    11    12   ar
    13    12    13   ar
    14    13    14   ar
    15    14    15    1
    16    15    16    2
    17    15    17    2
    18    15    18    1
    19    18    19    1
    20    19    20   ar
    21    20    21   ar
    22    21    22   ar
    23    22    23   ar
    24    23    24   ar
    25    19    24   ar
    26    24    25    1
    27    14    26   ar
    28    10    26   ar
    29     3    27    1
    30    18    28    1
    31     5    29    1
    32     6    30    1
    33     7    31    1
    34     8    32    1
    35    11    33    1
    36    12    34    1
    37    13    35    1
    38    20    36    1
    39    21    37    1
    40    22    38    1
    41    23    39    1
    42    26    40    1
@<TRIPOS>MOLECULE
mol15_2_9
 40 42 0 0 0
SMALL
USER_CHARGES
****
VDW energy = -71.32
@<TRIPOS>ATOM
   1 O1        3.4420    -9.1855    -5.2979  O.2     1  <O>11      -0.2698
   2 C1        2.8552    -9.8129    -4.4288  C.2     1  <O>11       0.2494
   3 N1        3.5160   -10.1860    -3.2900  N.am    1  <O>11      -0.2664
   4 C2        4.8600    -9.8500    -3.1210  C.ar    1  <O>11       0.1251
   5 C3        5.8200   -10.8837    -2.9554  C.ar    1  <O>11      -0.0215
   6 C4        7.1595   -10.5390    -2.7973  C.ar    1  <O>11      -0.0571
   7 C5        7.5011    -9.1815    -2.7840  C.ar    1  <O>11      -0.0435
   8 C6        6.5054    -8.2188    -2.9520  C.ar    1  <O>11       0.0297
   9 N2        5.2169    -8.5543    -3.1198  N.ar    1  <O>11      -0.2401
  10 C7        1.4620   -10.1610    -4.6040  C.ar    1  <O>11       0.0389
  11 C8        0.8010    -9.7730    -5.7710  C.ar    1  <O>11      -0.0495
  12 C9       -0.5500   -10.0960    -5.9410  C.ar    1  <O>11      -0.0592
  13 C10      -1.2340   -10.8060    -4.9510  C.ar    1  <O>11      -0.0350
  14 C11      -0.5560   -11.1930    -3.7890  C.ar    1  <O>11       0.1092
  15 S1       -1.4230   -12.0880    -2.5460  S.O2    1  <O>11       0.0724
  16 O2       -3.0248   -11.6519    -2.5661  O.2     1  <O>11      -0.1500
  17 O3       -0.7731   -11.7391    -1.0581  O.2     1  <O>11      -0.1500
  18 N3       -1.2895   -13.7075    -2.8395  N.pl3   1  <O>11      -0.2135
  19 C12      -1.9231   -14.6613    -1.9485  C.ar    1  <O>11       0.0831
  20 C13      -2.6524   -14.2155    -0.8326  C.ar    1  <O>11      -0.0365
  21 C14      -3.2517   -15.1357     0.0327  C.ar    1  <O>11      -0.0598
  22 C15      -3.1343   -16.5067    -0.2084  C.ar    1  <O>11      -0.0589
  23 C16      -2.4139   -16.9511    -1.3230  C.ar    1  <O>11      -0.0246
  24 C17      -1.8126   -16.0399    -2.1922  C.ar    1  <O>11       0.1456
  25 F1       -1.1139   -16.4753    -3.2885  F       1  <O>11      -0.2035
  26 C18       0.7910   -10.8780    -3.6110  C.ar    1  <O>11      -0.0230
  27 H1        3.0270   -10.7100    -2.5640  H       1  <O>11       0.1566
  28 H2       -0.7607   -14.0383    -3.6484  H       1  <O>11       0.1738
  29 H3        5.5293   -11.8739    -2.9524  H       1  <O>11       0.0652
  30 H4        7.8834   -11.2669    -2.6924  H       1  <O>11       0.0619
  31 H5        8.4835    -8.8946    -2.6508  H       1  <O>11       0.0633
  32 H6        6.7671    -7.2205    -2.9471  H       1  <O>11       0.0830
  33 H7        1.3059    -9.2509    -6.5042  H       1  <O>11       0.0625
  34 H8       -1.0429    -9.8087    -6.8009  H       1  <O>11       0.0618
  35 H9       -2.2307   -11.0431    -5.0753  H       1  <O>11       0.0637
  36 H10      -2.7459   -13.2039    -0.6511  H       1  <O>11       0.0637
  37 H11      -3.7826   -14.8011     0.8520  H       1  <O>11       0.0618
  38 H12      -3.5753   -17.1867     0.4305  H       1  <O>11       0.0618
  39 H13      -2.3264   -17.9634    -1.5040  H       1  <O>11       0.0647
  40 H14       1.2865   -11.1716    -2.7547  H       1  <O>11       0.0645
@<TRIPOS>BOND
     1     1     2    2
     2     2     3   am
     3     3     4    1
     4     4     5   ar
     5     5     6   ar
     6     6     7   ar
     7     7     8   ar
     8     8     9   ar
     9     4     9   ar
    10     2    10    1
    11    10    11   ar
    12    11    12   ar
    13    12    13   ar
    14    13    14   ar
    15    14    15    1
    16    15    16    2
    17    15    17    2
    18    15    18    1
    19    18    19    1
    20    19    20   ar
    21    20    21   ar
    22    21    22   ar
    23    22    23   ar
    24    23    24   ar
    25    19    24   ar
    26    24    25    1
    27    14    26   ar
    28    10    26   ar
    29     3    27    1
    30    18    28    1
    31     5    29    1
    32     6    30    1
    33     7    31    1
    34     8    32    1
    35    11    33    1
    36    12    34    1
    37    13    35    1
    38    20    36    1
    39    21    37    1
    40    22    38    1
    41    23    39    1
    42    26    40    1
@<TRIPOS>MOLECULE
mol15_2_10
 40 42 0 0 0
SMALL
USER_CHARGES
****
VDW energy = -71.31
@<TRIPOS>ATOM
   1 O1        3.4420    -9.1855    -5.2979  O.2     1  <O>11      -0.2698
   2 C1        2.8552    -9.8129    -4.4288  C.2     1  <O>11       0.2494
   3 N1        3.5160   -10.1860    -3.2900  N.am    1  <O>11      -0.2664
   4 C2        4.8600    -9.8500    -3.1210  C.ar    1  <O>11       0.1251
   5 C3        5.2419    -9.0445    -2.0152  C.ar    1  <O>11      -0.0215
   6 C4        6.5863    -8.7227    -1.8496  C.ar    1  <O>11      -0.0571
   7 C5        7.5047    -9.1888    -2.7978  C.ar    1  <O>11      -0.0435
   8 C6        7.0588    -9.9758    -3.8600  C.ar    1  <O>11       0.0297
   9 N2        5.7644   -10.2975    -4.0087  N.ar    1  <O>11      -0.2401
  10 C7        1.4620   -10.1610    -4.6040  C.ar    1  <O>11       0.0389
  11 C8        0.8010    -9.7730    -5.7710  C.ar    1  <O>11      -0.0495
  12 C9       -0.5500   -10.0960    -5.9410  C.ar    1  <O>11      -0.0592
  13 C10      -1.2340   -10.8060    -4.9510  C.ar    1  <O>11      -0.0350
  14 C11      -0.5560   -11.1930    -3.7890  C.ar    1  <O>11       0.1092
  15 S1       -1.4230   -12.0880    -2.5460  S.O2    1  <O>11       0.0724
  16 O2       -0.3661   -13.0866    -1.7447  O.2     1  <O>11      -0.1500
  17 O3       -2.6180   -12.9995    -3.2525  O.2     1  <O>11      -0.1500
  18 N3       -2.0988   -11.0284    -1.4750  N.pl3   1  <O>11      -0.2135
  19 C12      -2.8706   -11.5252    -0.3513  C.ar    1  <O>11       0.0831
  20 C13      -3.0483   -12.9073    -0.1668  C.ar    1  <O>11      -0.0365
  21 C14      -3.8028   -13.3847     0.9090  C.ar    1  <O>11      -0.0598
  22 C15      -4.3824   -12.4908     1.8127  C.ar    1  <O>11      -0.0589
  23 C16      -4.2003   -11.1148     1.6333  C.ar    1  <O>11      -0.0246
  24 C17      -3.4485   -10.6292     0.5627  C.ar    1  <O>11       0.1456
  25 F1       -3.2634    -9.2815     0.3920  F       1  <O>11      -0.2035
  26 C18       0.7910   -10.8780    -3.6110  C.ar    1  <O>11      -0.0230
  27 H1        3.0270   -10.7100    -2.5640  H       1  <O>11       0.1566
  28 H2       -1.9739   -10.0227    -1.6033  H       1  <O>11       0.1738
  29 H3        4.5347    -8.7034    -1.3456  H       1  <O>11       0.0652
  30 H4        6.8984    -8.1541    -1.0469  H       1  <O>11       0.0619
  31 H5        8.5054    -8.9518    -2.7115  H       1  <O>11       0.0633
  32 H6        7.7437   -10.3202    -4.5509  H       1  <O>11       0.0830
  33 H7        1.3059    -9.2509    -6.5042  H       1  <O>11       0.0625
  34 H8       -1.0429    -9.8087    -6.8009  H       1  <O>11       0.0618
  35 H9       -2.2307   -11.0431    -5.0753  H       1  <O>11       0.0637
  36 H10      -2.6196   -13.5730    -0.8287  H       1  <O>11       0.0637
  37 H11      -3.9321   -14.4007     1.0361  H       1  <O>11       0.0618
  38 H12      -4.9406   -12.8423     2.6063  H       1  <O>11       0.0618
  39 H13      -4.6265   -10.4522     2.3000  H       1  <O>11       0.0647
  40 H14       1.2865   -11.1716    -2.7547  H       1  <O>11       0.0645
@<TRIPOS>BOND
     1     1     2    2
     2     2     3   am
     3     3     4    1
     4     4     5   ar
     5     5     6   ar
     6     6     7   ar
     7     7     8   ar
     8     8     9   ar
     9     4     9   ar
    10     2    10    1
    11    10    11   ar
    12    11    12   ar
    13    12    13   ar
    14    13    14   ar
    15    14    15    1
    16    15    16    2
    17    15    17    2
    18    15    18    1
    19    18    19    1
    20    19    20   ar
    21    20    21   ar
    22    21    22   ar
    23    22    23   ar
    24    23    24   ar
    25    19    24   ar
    26    24    25    1
    27    14    26   ar
    28    10    26   ar
    29     3    27    1
    30    18    28    1
    31     5    29    1
    32     6    30    1
    33     7    31    1
    34     8    32    1
    35    11    33    1
    36    12    34    1
    37    13    35    1
    38    20    36    1
    39    21    37    1
    40    22    38    1
    41    23    39    1
    42    26    40    1
@<TRIPOS>MOLECULE
mol15_2_11
 40 42 0 0 0
SMALL
USER_CHARGES
****
VDW energy = -66.77
@<TRIPOS>ATOM
   1 O1        3.4420    -9.1855    -5.2979  O.2     1  <O>11      -0.2698
   2 C1        2.8552    -9.8129    -4.4288  C.2     1  <O>11       0.2494
   3 N1        3.5160   -10.1860    -3.2900  N.am    1  <O>11      -0.2664
   4 C2        4.8600    -9.8500    -3.1210  C.ar    1  <O>11       0.1251
   5 C3        5.8200   -10.8837    -2.9554  C.ar    1  <O>11      -0.0215
   6 C4        7.1595   -10.5390    -2.7973  C.ar    1  <O>11      -0.0571
   7 C5        7.5011    -9.1815    -2.7840  C.ar    1  <O>11      -0.0435
   8 C6        6.5054    -8.2188    -2.9520  C.ar    1  <O>11       0.0297
   9 N2        5.2169    -8.5543    -3.1198  N.ar    1  <O>11      -0.2401
  10 C7        1.4620   -10.1610    -4.6040  C.ar    1  <O>11       0.0389
  11 C8        0.8010    -9.7730    -5.7710  C.ar    1  <O>11      -0.0495
  12 C9       -0.5500   -10.0960    -5.9410  C.ar    1  <O>11      -0.0592
  13 C10      -1.2340   -10.8060    -4.9510  C.ar    1  <O>11      -0.0350
  14 C11      -0.5560   -11.1930    -3.7890  C.ar    1  <O>11       0.1092
  15 S1       -1.4230   -12.0880    -2.5460  S.O2    1  <O>11       0.0724
  16 O2       -1.9940   -13.5100    -3.1850  O.2     1  <O>11      -0.1500
  17 O3       -2.6980   -11.1770    -1.9960  O.2     1  <O>11      -0.1500
  18 N3       -0.4010   -12.4190    -1.2920  N.pl3   1  <O>11      -0.2135
  19 C12      -0.8830   -13.1530    -0.1370  C.ar    1  <O>11       0.0831
  20 C13      -2.2190   -13.5860    -0.0770  C.ar    1  <O>11      -0.0365
  21 C14      -2.6860   -14.2820     1.0420  C.ar    1  <O>11      -0.0598
  22 C15      -1.8260   -14.5570     2.1080  C.ar    1  <O>11      -0.0589
  23 C16      -0.4940   -14.1320     2.0460  C.ar    1  <O>11      -0.0246
  24 C17      -0.0190   -13.4370     0.9330  C.ar    1  <O>11       0.1456
  25 F1        1.2880   -13.0280     0.8690  F       1  <O>11      -0.2035
  26 C18       0.7910   -10.8780    -3.6110  C.ar    1  <O>11      -0.0230
  27 H1        3.0270   -10.7100    -2.5640  H       1  <O>11       0.1566
  28 H2        0.5710   -12.1070    -1.3290  H       1  <O>11       0.1738
  29 H3        5.5293   -11.8739    -2.9524  H       1  <O>11       0.0652
  30 H4        7.8834   -11.2669    -2.6924  H       1  <O>11       0.0619
  31 H5        8.4835    -8.8946    -2.6508  H       1  <O>11       0.0633
  32 H6        6.7671    -7.2205    -2.9471  H       1  <O>11       0.0830
  33 H7        1.3059    -9.2509    -6.5042  H       1  <O>11       0.0625
  34 H8       -1.0429    -9.8087    -6.8009  H       1  <O>11       0.0618
  35 H9       -2.2307   -11.0431    -5.0753  H       1  <O>11       0.0637
  36 H10      -2.8583   -13.3892    -0.8629  H       1  <O>11       0.0637
  37 H11      -3.6691   -14.5936     1.0806  H       1  <O>11       0.0618
  38 H12      -2.1703   -15.0696     2.9349  H       1  <O>11       0.0618
  39 H13       0.1437   -14.3347     2.8317  H       1  <O>11       0.0647
  40 H14       1.2865   -11.1716    -2.7547  H       1  <O>11       0.0645
@<TRIPOS>BOND
     1     1     2    2
     2     2     3   am
     3     3     4    1
     4     4     5   ar
     5     5     6   ar
     6     6     7   ar
     7     7     8   ar
     8     8     9   ar
     9     4     9   ar
    10     2    10    1
    11    10    11   ar
    12    11    12   ar
    13    12    13   ar
    14    13    14   ar
    15    14    15    1
    16    15    16    2
    17    15    17    2
    18    15    18    1
    19    18    19    1
    20    19    20   ar
    21    20    21   ar
    22    21    22   ar
    23    22    23   ar
    24    23    24   ar
    25    19    24   ar
    26    24    25    1
    27    14    26   ar
    28    10    26   ar
    29     3    27    1
    30    18    28    1
    31     5    29    1
    32     6    30    1
    33     7    31    1
    34     8    32    1
    35    11    33    1
    36    12    34    1
    37    13    35    1
    38    20    36    1
    39    21    37    1
    40    22    38    1
    41    23    39    1
    42    26    40    1
@<TRIPOS>MOLECULE
mol15_2_12
 40 42 0 0 0
SMALL
USER_CHARGES
****
VDW energy = -63.72
@<TRIPOS>ATOM
   1 O1        3.4420    -9.1855    -5.2979  O.2     1  <O>11      -0.2698
   2 C1        2.8552    -9.8129    -4.4288  C.2     1  <O>11       0.2494
   3 N1        3.5160   -10.1860    -3.2900  N.am    1  <O>11      -0.2664
   4 C2        4.8600    -9.8500    -3.1210  C.ar    1  <O>11       0.1251
   5 C3        5.8200   -10.8837    -2.9554  C.ar    1  <O>11      -0.0215
   6 C4        7.1595   -10.5390    -2.7973  C.ar    1  <O>11      -0.0571
   7 C5        7.5011    -9.1815    -2.7840  C.ar    1  <O>11      -0.0435
   8 C6        6.5054    -8.2188    -2.9520  C.ar    1  <O>11       0.0297
   9 N2        5.2169    -8.5543    -3.1198  N.ar    1  <O>11      -0.2401
  10 C7        1.4620   -10.1610    -4.6040  C.ar    1  <O>11       0.0389
  11 C8        0.8010    -9.7730    -5.7710  C.ar    1  <O>11      -0.0495
  12 C9       -0.5500   -10.0960    -5.9410  C.ar    1  <O>11      -0.0592
  13 C10      -1.2340   -10.8060    -4.9510  C.ar    1  <O>11      -0.0350
  14 C11      -0.5560   -11.1930    -3.7890  C.ar    1  <O>11       0.1092
  15 S1       -1.4230   -12.0880    -2.5460  S.O2    1  <O>11       0.0724
  16 O2       -1.9932   -13.5104    -3.1848  O.2     1  <O>11      -0.1500
  17 O3       -2.6985   -11.1774    -1.9966  O.2     1  <O>11      -0.1500
  18 N3       -0.4012   -12.4182    -1.2916  N.pl3   1  <O>11      -0.2135
  19 C12       0.2308   -11.3329    -0.5651  C.ar    1  <O>11       0.0831
  20 C13      -0.0208    -9.9970    -0.9227  C.ar    1  <O>11      -0.0365
  21 C14       0.5986    -8.9521    -0.2304  C.ar    1  <O>11      -0.0598
  22 C15       1.4696    -9.2282     0.8264  C.ar    1  <O>11      -0.0589
  23 C16       1.7154   -10.5579     1.1872  C.ar    1  <O>11      -0.0246
  24 C17       1.1013   -11.6072     0.5022  C.ar    1  <O>11       0.1456
  25 F1        1.3359   -12.9094     0.8612  F       1  <O>11      -0.2035
  26 C18       0.7910   -10.8780    -3.6110  C.ar    1  <O>11      -0.0230
  27 H1        3.0270   -10.7100    -2.5640  H       1  <O>11       0.1566
  28 H2       -0.2137   -13.3868    -1.0267  H       1  <O>11       0.1738
  29 H3        5.5293   -11.8739    -2.9524  H       1  <O>11       0.0652
  30 H4        7.8834   -11.2669    -2.6924  H       1  <O>11       0.0619
  31 H5        8.4835    -8.8946    -2.6508  H       1  <O>11       0.0633
  32 H6        6.7671    -7.2205    -2.9471  H       1  <O>11       0.0830
  33 H7        1.3059    -9.2509    -6.5042  H       1  <O>11       0.0625
  34 H8       -1.0429    -9.8087    -6.8009  H       1  <O>11       0.0618
  35 H9       -2.2307   -11.0431    -5.0753  H       1  <O>11       0.0637
  36 H10      -0.6661    -9.7863    -1.7001  H       1  <O>11       0.0637
  37 H11       0.4119    -7.9739    -0.5010  H       1  <O>11       0.0618
  38 H12       1.9282    -8.4576     1.3370  H       1  <O>11       0.0618
  39 H13       2.3576   -10.7646     1.9682  H       1  <O>11       0.0647
  40 H14       1.2865   -11.1716    -2.7547  H       1  <O>11       0.0645
@<TRIPOS>BOND
     1     1     2    2
     2     2     3   am
     3     3     4    1
     4     4     5   ar
     5     5     6   ar
     6     6     7   ar
     7     7     8   ar
     8     8     9   ar
     9     4     9   ar
    10     2    10    1
    11    10    11   ar
    12    11    12   ar
    13    12    13   ar
    14    13    14   ar
    15    14    15    1
    16    15    16    2
    17    15    17    2
    18    15    18    1
    19    18    19    1
    20    19    20   ar
    21    20    21   ar
    22    21    22   ar
    23    22    23   ar
    24    23    24   ar
    25    19    24   ar
    26    24    25    1
    27    14    26   ar
    28    10    26   ar
    29     3    27    1
    30    18    28    1
    31     5    29    1
    32     6    30    1
    33     7    31    1
    34     8    32    1
    35    11    33    1
    36    12    34    1
    37    13    35    1
    38    20    36    1
    39    21    37    1
    40    22    38    1
    41    23    39    1
    42    26    40    1
@<TRIPOS>MOLECULE
mol15_2_13
 40 42 0 0 0
SMALL
USER_CHARGES
****
VDW energy = -56.46
@<TRIPOS>ATOM
   1 O1        3.4420    -9.1855    -5.2979  O.2     1  <O>11      -0.2698
   2 C1        2.8552    -9.8129    -4.4288  C.2     1  <O>11       0.2494
   3 N1        3.5160   -10.1860    -3.2900  N.am    1  <O>11      -0.2664
   4 C2        4.8600    -9.8500    -3.1210  C.ar    1  <O>11       0.1251
   5 C3        5.5280    -9.1200    -4.1400  C.ar    1  <O>11      -0.0215
   6 C4        6.8660    -8.7810    -3.9580  C.ar    1  <O>11      -0.0571
   7 C5        7.5050    -9.1970    -2.7840  C.ar    1  <O>11      -0.0435
   8 C6        6.7870    -9.9120    -1.8250  C.ar    1  <O>11       0.0297
   9 N2        5.4930   -10.2240    -1.9960  N.ar    1  <O>11      -0.2401
  10 C7        1.4620   -10.1610    -4.6040  C.ar    1  <O>11       0.0389
  11 C8        0.4750    -9.2817    -4.1546  C.ar    1  <O>11      -0.0495
  12 C9       -0.8745    -9.6183    -4.3101  C.ar    1  <O>11      -0.0592
  13 C10      -1.2337   -10.8255    -4.9148  C.ar    1  <O>11      -0.0350
  14 C11      -0.2326   -11.6941    -5.3653  C.ar    1  <O>11       0.1092
  15 S1       -0.6916   -13.2129    -6.1270  S.O2    1  <O>11       0.0724
  16 O2       -1.6066   -12.9005    -7.4767  O.2     1  <O>11      -0.1500
  17 O3       -1.5770   -14.1232    -5.0567  O.2     1  <O>11      -0.1500
  18 N3        0.6676   -14.0429    -6.5633  N.pl3   1  <O>11      -0.2135
  19 C12       0.5520   -15.3343    -7.2143  C.ar    1  <O>11       0.0831
  20 C13       0.5100   -16.5138    -6.4508  C.ar    1  <O>11      -0.0365
  21 C14       0.4116   -17.7587    -7.0796  C.ar    1  <O>11      -0.0598
  22 C15       0.3492   -17.8394    -8.4728  C.ar    1  <O>11      -0.0589
  23 C16       0.3843   -16.6651    -9.2333  C.ar    1  <O>11      -0.0246
  24 C17       0.4821   -15.4182    -8.6144  C.ar    1  <O>11       0.1456
  25 F1        0.5081   -14.2675    -9.3593  F       1  <O>11      -0.2035
  26 C18       1.1151   -11.3668    -5.2172  C.ar    1  <O>11      -0.0230
  27 H1        3.0270   -10.7100    -2.5640  H       1  <O>11       0.1566
  28 H2        1.5904   -13.6473    -6.3749  H       1  <O>11       0.1738
  29 H3        5.0298    -8.8454    -5.0010  H       1  <O>11       0.0652
  30 H4        7.3746    -8.2360    -4.6716  H       1  <O>11       0.0619
  31 H5        8.5011    -8.9761    -2.6288  H       1  <O>11       0.0633
  32 H6        7.2644   -10.2093    -0.9597  H       1  <O>11       0.0830
  33 H7        0.7391    -8.3884    -3.7103  H       1  <O>11       0.0625
  34 H8       -1.6070    -8.9723    -3.9769  H       1  <O>11       0.0618
  35 H9       -2.2287   -11.0748    -5.0282  H       1  <O>11       0.0637
  36 H10       0.5519   -16.4606    -5.4210  H       1  <O>11       0.0637
  37 H11       0.3849   -18.6206    -6.5126  H       1  <O>11       0.0618
  38 H12       0.2778   -18.7580    -8.9377  H       1  <O>11       0.0618
  39 H13       0.3374   -16.7218   -10.2627  H       1  <O>11       0.0647
  40 H14       1.8481   -12.0089    -5.5570  H       1  <O>11       0.0645
@<TRIPOS>BOND
     1     1     2    2
     2     2     3   am
     3     3     4    1
     4     4     5   ar
     5     5     6   ar
     6     6     7   ar
     7     7     8   ar
     8     8     9   ar
     9     4     9   ar
    10     2    10    1
    11    10    11   ar
    12    11    12   ar
    13    12    13   ar
    14    13    14   ar
    15    14    15    1
    16    15    16    2
    17    15    17    2
    18    15    18    1
    19    18    19    1
    20    19    20   ar
    21    20    21   ar
    22    21    22   ar
    23    22    23   ar
    24    23    24   ar
    25    19    24   ar
    26    24    25    1
    27    14    26   ar
    28    10    26   ar
    29     3    27    1
    30    18    28    1
    31     5    29    1
    32     6    30    1
    33     7    31    1
    34     8    32    1
    35    11    33    1
    36    12    34    1
    37    13    35    1
    38    20    36    1
    39    21    37    1
    40    22    38    1
    41    23    39    1
    42    26    40    1
@<TRIPOS>MOLECULE
mol15_2_14
 40 42 0 0 0
SMALL
USER_CHARGES
****
VDW energy = -54.84
@<TRIPOS>ATOM
   1 O1        3.4420    -9.1855    -5.2979  O.2     1  <O>11      -0.2698
   2 C1        2.8552    -9.8129    -4.4288  C.2     1  <O>11       0.2494
   3 N1        3.5160   -10.1860    -3.2900  N.am    1  <O>11      -0.2664
   4 C2        4.8600    -9.8500    -3.1210  C.ar    1  <O>11       0.1251
   5 C3        5.5280    -9.1200    -4.1400  C.ar    1  <O>11      -0.0215
   6 C4        6.8660    -8.7810    -3.9580  C.ar    1  <O>11      -0.0571
   7 C5        7.5050    -9.1970    -2.7840  C.ar    1  <O>11      -0.0435
   8 C6        6.7870    -9.9120    -1.8250  C.ar    1  <O>11       0.0297
   9 N2        5.4930   -10.2240    -1.9960  N.ar    1  <O>11      -0.2401
  10 C7        1.4620   -10.1610    -4.6040  C.ar    1  <O>11       0.0389
  11 C8        1.1306   -11.3698    -5.2192  C.ar    1  <O>11      -0.0495
  12 C9       -0.2153   -11.7066    -5.4026  C.ar    1  <O>11      -0.0592
  13 C10      -1.2229   -10.8409    -4.9699  C.ar    1  <O>11      -0.0350
  14 C11      -0.8747    -9.6351    -4.3496  C.ar    1  <O>11       0.1092
  15 S1       -2.1487    -8.5493    -3.8059  S.O2    1  <O>11       0.0724
  16 O2       -1.6203    -7.6946    -2.4842  O.2     1  <O>11      -0.1500
  17 O3       -3.4911    -9.4350    -3.3916  O.2     1  <O>11      -0.1500
  18 N3       -2.5343    -7.5006    -5.0216  N.pl3   1  <O>11      -0.2135
  19 C12      -3.5646    -6.4996    -4.8174  C.ar    1  <O>11       0.0831
  20 C13      -4.2401    -6.4157    -3.5875  C.ar    1  <O>11      -0.0365
  21 C14      -5.2417    -5.4593    -3.3959  C.ar    1  <O>11      -0.0598
  22 C15      -5.5757    -4.5755    -4.4250  C.ar    1  <O>11      -0.0589
  23 C16      -4.8989    -4.6541    -5.6475  C.ar    1  <O>11      -0.0246
  24 C17      -3.8976    -5.6053    -5.8476  C.ar    1  <O>11       0.1456
  25 F1       -3.2292    -5.6767    -7.0425  F       1  <O>11      -0.2035
  26 C18       0.4636    -9.2913    -4.1600  C.ar    1  <O>11      -0.0230
  27 H1        3.0270   -10.7100    -2.5640  H       1  <O>11       0.1566
  28 H2       -2.0476    -7.5562    -5.9180  H       1  <O>11       0.1738
  29 H3        5.0298    -8.8454    -5.0010  H       1  <O>11       0.0652
  30 H4        7.3746    -8.2360    -4.6716  H       1  <O>11       0.0619
  31 H5        8.5011    -8.9761    -2.6288  H       1  <O>11       0.0633
  32 H6        7.2644   -10.2093    -0.9597  H       1  <O>11       0.0830
  33 H7        1.8739   -12.0113    -5.5368  H       1  <O>11       0.0625
  34 H8       -0.4644   -12.5978    -5.8593  H       1  <O>11       0.0618
  35 H9       -2.2155   -11.0882    -5.1063  H       1  <O>11       0.0637
  36 H10      -3.9954    -7.0633    -2.8221  H       1  <O>11       0.0637
  37 H11      -5.7358    -5.4060    -2.4914  H       1  <O>11       0.0618
  38 H12      -6.3158    -3.8701    -4.2847  H       1  <O>11       0.0618
  39 H13      -5.1430    -4.0018    -6.4090  H       1  <O>11       0.0647
  40 H14       0.7134    -8.4037    -3.6966  H       1  <O>11       0.0645
@<TRIPOS>BOND
     1     1     2    2
     2     2     3   am
     3     3     4    1
     4     4     5   ar
     5     5     6   ar
     6     6     7   ar
     7     7     8   ar
     8     8     9   ar
     9     4     9   ar
    10     2    10    1
    11    10    11   ar
    12    11    12   ar
    13    12    13   ar
    14    13    14   ar
    15    14    15    1
    16    15    16    2
    17    15    17    2
    18    15    18    1
    19    18    19    1
    20    19    20   ar
    21    20    21   ar
    22    21    22   ar
    23    22    23   ar
    24    23    24   ar
    25    19    24   ar
    26    24    25    1
    27    14    26   ar
    28    10    26   ar
    29     3    27    1
    30    18    28    1
    31     5    29    1
    32     6    30    1
    33     7    31    1
    34     8    32    1
    35    11    33    1
    36    12    34    1
    37    13    35    1
    38    20    36    1
    39    21    37    1
    40    22    38    1
    41    23    39    1
    42    26    40    1
@<TRIPOS>MOLECULE
mol15_2_15
 40 42 0 0 0
SMALL
USER_CHARGES
****
VDW energy = -53.44
@<TRIPOS>ATOM
   1 O1        3.4420    -9.1855    -5.2979  O.2     1  <O>11      -0.2698
   2 C1        2.8552    -9.8129    -4.4288  C.2     1  <O>11       0.2494
   3 N1        3.5160   -10.1860    -3.2900  N.am    1  <O>11      -0.2664
   4 C2        4.8600    -9.8500    -3.1210  C.ar    1  <O>11       0.1251
   5 C3        5.5280    -9.1200    -4.1400  C.ar    1  <O>11      -0.0215
   6 C4        6.8660    -8.7810    -3.9580  C.ar    1  <O>11      -0.0571
   7 C5        7.5050    -9.1970    -2.7840  C.ar    1  <O>11      -0.0435
   8 C6        6.7870    -9.9120    -1.8250  C.ar    1  <O>11       0.0297
   9 N2        5.4930   -10.2240    -1.9960  N.ar    1  <O>11      -0.2401
  10 C7        1.4620   -10.1610    -4.6040  C.ar    1  <O>11       0.0389
  11 C8        1.1306   -11.3698    -5.2192  C.ar    1  <O>11      -0.0495
  12 C9       -0.2153   -11.7066    -5.4026  C.ar    1  <O>11      -0.0592
  13 C10      -1.2229   -10.8409    -4.9699  C.ar    1  <O>11      -0.0350
  14 C11      -0.8747    -9.6351    -4.3496  C.ar    1  <O>11       0.1092
  15 S1       -2.1487    -8.5493    -3.8059  S.O2    1  <O>11       0.0724
  16 O2       -3.0778    -8.0928    -5.1039  O.2     1  <O>11      -0.1500
  17 O3       -1.4689    -7.2028    -3.1110  O.2     1  <O>11      -0.1500
  18 N3       -3.0954    -9.3234    -2.6963  N.pl3   1  <O>11      -0.2135
  19 C12      -4.2214    -8.6334    -2.0952  C.ar    1  <O>11       0.0831
  20 C13      -4.5135    -7.3054    -2.4516  C.ar    1  <O>11      -0.0365
  21 C14      -5.5909    -6.6370    -1.8624  C.ar    1  <O>11      -0.0598
  22 C15      -6.3892    -7.2865    -0.9177  C.ar    1  <O>11      -0.0589
  23 C16      -6.1029    -8.6109    -0.5673  C.ar    1  <O>11      -0.0246
  24 C17      -5.0298    -9.2860    -1.1505  C.ar    1  <O>11       0.1456
  25 F1       -4.7546   -10.5860    -0.8131  F       1  <O>11      -0.2035
  26 C18       0.4636    -9.2913    -4.1600  C.ar    1  <O>11      -0.0230
  27 H1        3.0270   -10.7100    -2.5640  H       1  <O>11       0.1566
  28 H2       -2.8885   -10.2884    -2.4326  H       1  <O>11       0.1738
  29 H3        5.0298    -8.8454    -5.0010  H       1  <O>11       0.0652
  30 H4        7.3746    -8.2360    -4.6716  H       1  <O>11       0.0619
  31 H5        8.5011    -8.9761    -2.6288  H       1  <O>11       0.0633
  32 H6        7.2644   -10.2093    -0.9597  H       1  <O>11       0.0830
  33 H7        1.8739   -12.0113    -5.5368  H       1  <O>11       0.0625
  34 H8       -0.4644   -12.5978    -5.8593  H       1  <O>11       0.0618
  35 H9       -2.2155   -11.0882    -5.1063  H       1  <O>11       0.0637
  36 H10      -3.9298    -6.8214    -3.1517  H       1  <O>11       0.0637
  37 H11      -5.7972    -5.6609    -2.1263  H       1  <O>11       0.0618
  38 H12      -7.1839    -6.7934    -0.4814  H       1  <O>11       0.0618
  39 H13      -6.6916    -9.0933     0.1296  H       1  <O>11       0.0647
  40 H14       0.7134    -8.4037    -3.6966  H       1  <O>11       0.0645
@<TRIPOS>BOND
     1     1     2    2
     2     2     3   am
     3     3     4    1
     4     4     5   ar
     5     5     6   ar
     6     6     7   ar
     7     7     8   ar
     8     8     9   ar
     9     4     9   ar
    10     2    10    1
    11    10    11   ar
    12    11    12   ar
    13    12    13   ar
    14    13    14   ar
    15    14    15    1
    16    15    16    2
    17    15    17    2
    18    15    18    1
    19    18    19    1
    20    19    20   ar
    21    20    21   ar
    22    21    22   ar
    23    22    23   ar
    24    23    24   ar
    25    19    24   ar
    26    24    25    1
    27    14    26   ar
    28    10    26   ar
    29     3    27    1
    30    18    28    1
    31     5    29    1
    32     6    30    1
    33     7    31    1
    34     8    32    1
    35    11    33    1
    36    12    34    1
    37    13    35    1
    38    20    36    1
    39    21    37    1
    40    22    38    1
    41    23    39    1
    42    26    40    1
@<TRIPOS>MOLECULE
mol15_2_16
 40 42 0 0 0
SMALL
USER_CHARGES
****
VDW energy = -53.35
@<TRIPOS>ATOM
   1 O1        3.4420    -9.1855    -5.2979  O.2     1  <O>11      -0.2698
   2 C1        2.8552    -9.8129    -4.4288  C.2     1  <O>11       0.2494
   3 N1        3.5160   -10.1860    -3.2900  N.am    1  <O>11      -0.2664
   4 C2        4.8600    -9.8500    -3.1210  C.ar    1  <O>11       0.1251
   5 C3        5.5280    -9.1200    -4.1400  C.ar    1  <O>11      -0.0215
   6 C4        6.8660    -8.7810    -3.9580  C.ar    1  <O>11      -0.0571
   7 C5        7.5050    -9.1970    -2.7840  C.ar    1  <O>11      -0.0435
   8 C6        6.7870    -9.9120    -1.8250  C.ar    1  <O>11       0.0297
   9 N2        5.4930   -10.2240    -1.9960  N.ar    1  <O>11      -0.2401
  10 C7        1.4620   -10.1610    -4.6040  C.ar    1  <O>11       0.0389
  11 C8        1.1306   -11.3698    -5.2192  C.ar    1  <O>11      -0.0495
  12 C9       -0.2153   -11.7066    -5.4026  C.ar    1  <O>11      -0.0592
  13 C10      -1.2229   -10.8409    -4.9699  C.ar    1  <O>11      -0.0350
  14 C11      -0.8747    -9.6351    -4.3496  C.ar    1  <O>11       0.1092
  15 S1       -2.1487    -8.5493    -3.8059  S.O2    1  <O>11       0.0724
  16 O2       -3.4779    -8.7215    -4.7858  O.2     1  <O>11      -0.1500
  17 O3       -1.6073    -6.9810    -3.8782  O.2     1  <O>11      -0.1500
  18 N3       -2.5601    -8.9188    -2.2500  N.pl3   1  <O>11      -0.2135
  19 C12      -3.5947    -8.1598    -1.5728  C.ar    1  <O>11       0.0831
  20 C13      -4.2521    -7.1077    -2.2338  C.ar    1  <O>11      -0.0365
  21 C14      -5.2399    -6.3685    -1.5763  C.ar    1  <O>11      -0.0598
  22 C15      -5.5850    -6.6736    -0.2574  C.ar    1  <O>11      -0.0589
  23 C16      -4.9356    -7.7252     0.3991  C.ar    1  <O>11      -0.0246
  24 C17      -3.9486    -8.4687    -0.2494  C.ar    1  <O>11       0.1456
  25 F1       -3.3185    -9.5041     0.3912  F       1  <O>11      -0.2035
  26 C18       0.4636    -9.2913    -4.1600  C.ar    1  <O>11      -0.0230
  27 H1        3.0270   -10.7100    -2.5640  H       1  <O>11       0.1566
  28 H2       -2.0862    -9.6820    -1.7636  H       1  <O>11       0.1738
  29 H3        5.0298    -8.8454    -5.0010  H       1  <O>11       0.0652
  30 H4        7.3746    -8.2360    -4.6716  H       1  <O>11       0.0619
  31 H5        8.5011    -8.9761    -2.6288  H       1  <O>11       0.0633
  32 H6        7.2644   -10.2093    -0.9597  H       1  <O>11       0.0830
  33 H7        1.8739   -12.0113    -5.5368  H       1  <O>11       0.0625
  34 H8       -0.4644   -12.5978    -5.8593  H       1  <O>11       0.0618
  35 H9       -2.2155   -11.0882    -5.1063  H       1  <O>11       0.0637
  36 H10      -4.0043    -6.8799    -3.2094  H       1  <O>11       0.0637
  37 H11      -5.7157    -5.5951    -2.0667  H       1  <O>11       0.0618
  38 H12      -6.3132    -6.1276     0.2291  H       1  <O>11       0.0618
  39 H13      -5.1893    -7.9533     1.3731  H       1  <O>11       0.0647
  40 H14       0.7134    -8.4037    -3.6966  H       1  <O>11       0.0645
@<TRIPOS>BOND
     1     1     2    2
     2     2     3   am
     3     3     4    1
     4     4     5   ar
     5     5     6   ar
     6     6     7   ar
     7     7     8   ar
     8     8     9   ar
     9     4     9   ar
    10     2    10    1
    11    10    11   ar
    12    11    12   ar
    13    12    13   ar
    14    13    14   ar
    15    14    15    1
    16    15    16    2
    17    15    17    2
    18    15    18    1
    19    18    19    1
    20    19    20   ar
    21    20    21   ar
    22    21    22   ar
    23    22    23   ar
    24    23    24   ar
    25    19    24   ar
    26    24    25    1
    27    14    26   ar
    28    10    26   ar
    29     3    27    1
    30    18    28    1
    31     5    29    1
    32     6    30    1
    33     7    31    1
    34     8    32    1
    35    11    33    1
    36    12    34    1
    37    13    35    1
    38    20    36    1
    39    21    37    1
    40    22    38    1
    41    23    39    1
    42    26    40    1
@<TRIPOS>MOLECULE
mol15_2_17
 40 42 0 0 0
SMALL
USER_CHARGES
****
VDW energy = -51.83
@<TRIPOS>ATOM
   1 O1        3.4420    -9.1855    -5.2979  O.2     1  <O>11      -0.2698
   2 C1        2.8552    -9.8129    -4.4288  C.2     1  <O>11       0.2494
   3 N1        3.5160   -10.1860    -3.2900  N.am    1  <O>11      -0.2664
   4 C2        4.8600    -9.8500    -3.1210  C.ar    1  <O>11       0.1251
   5 C3        5.5280    -9.1200    -4.1400  C.ar    1  <O>11      -0.0215
   6 C4        6.8660    -8.7810    -3.9580  C.ar    1  <O>11      -0.0571
   7 C5        7.5050    -9.1970    -2.7840  C.ar    1  <O>11      -0.0435
   8 C6        6.7870    -9.9120    -1.8250  C.ar    1  <O>11       0.0297
   9 N2        5.4930   -10.2240    -1.9960  N.ar    1  <O>11      -0.2401
  10 C7        1.4620   -10.1610    -4.6040  C.ar    1  <O>11       0.0389
  11 C8        1.1306   -11.3698    -5.2192  C.ar    1  <O>11      -0.0495
  12 C9       -0.2153   -11.7066    -5.4026  C.ar    1  <O>11      -0.0592
  13 C10      -1.2229   -10.8409    -4.9699  C.ar    1  <O>11      -0.0350
  14 C11      -0.8747    -9.6351    -4.3496  C.ar    1  <O>11       0.1092
  15 S1       -2.1487    -8.5493    -3.8059  S.O2    1  <O>11       0.0724
  16 O2       -3.1004    -9.3280    -2.6903  O.2     1  <O>11      -0.1500
  17 O3       -3.0784    -8.0931    -5.1042  O.2     1  <O>11      -0.1500
  18 N3       -1.4732    -7.2106    -3.1145  N.pl3   1  <O>11      -0.2135
  19 C12      -2.3224    -6.1601    -2.5849  C.ar    1  <O>11       0.0831
  20 C13      -3.7216    -6.2737    -2.6565  C.ar    1  <O>11      -0.0365
  21 C14      -4.5391    -5.2551    -2.1576  C.ar    1  <O>11      -0.0598
  22 C15      -3.9707    -4.1177    -1.5790  C.ar    1  <O>11      -0.0589
  23 C16      -2.5777    -4.0070    -1.5014  C.ar    1  <O>11      -0.0246
  24 C17      -1.7539    -5.0188    -1.9965  C.ar    1  <O>11       0.1456
  25 F1       -0.3895    -4.9138    -1.9129  F       1  <O>11      -0.2035
  26 C18       0.4636    -9.2913    -4.1600  C.ar    1  <O>11      -0.0230
  27 H1        3.0270   -10.7100    -2.5640  H       1  <O>11       0.1566
  28 H2       -0.4570    -7.1215    -3.0595  H       1  <O>11       0.1738
  29 H3        5.0298    -8.8454    -5.0010  H       1  <O>11       0.0652
  30 H4        7.3746    -8.2360    -4.6716  H       1  <O>11       0.0619
  31 H5        8.5011    -8.9761    -2.6288  H       1  <O>11       0.0633
  32 H6        7.2644   -10.2093    -0.9597  H       1  <O>11       0.0830
  33 H7        1.8739   -12.0113    -5.5368  H       1  <O>11       0.0625
  34 H8       -0.4644   -12.5978    -5.8593  H       1  <O>11       0.0618
  35 H9       -2.2155   -11.0882    -5.1063  H       1  <O>11       0.0637
  36 H10      -4.1477    -7.1132    -3.0794  H       1  <O>11       0.0637
  37 H11      -5.5656    -5.3438    -2.2169  H       1  <O>11       0.0618
  38 H12      -4.5734    -3.3648    -1.2116  H       1  <O>11       0.0618
  39 H13      -2.1552    -3.1682    -1.0735  H       1  <O>11       0.0647
  40 H14       0.7134    -8.4037    -3.6966  H       1  <O>11       0.0645
@<TRIPOS>BOND
     1     1     2    2
     2     2     3   am
     3     3     4    1
     4     4     5   ar
     5     5     6   ar
     6     6     7   ar
     7     7     8   ar
     8     8     9   ar
     9     4     9   ar
    10     2    10    1
    11    10    11   ar
    12    11    12   ar
    13    12    13   ar
    14    13    14   ar
    15    14    15    1
    16    15    16    2
    17    15    17    2
    18    15    18    1
    19    18    19    1
    20    19    20   ar
    21    20    21   ar
    22    21    22   ar
    23    22    23   ar
    24    23    24   ar
    25    19    24   ar
    26    24    25    1
    27    14    26   ar
    28    10    26   ar
    29     3    27    1
    30    18    28    1
    31     5    29    1
    32     6    30    1
    33     7    31    1
    34     8    32    1
    35    11    33    1
    36    12    34    1
    37    13    35    1
    38    20    36    1
    39    21    37    1
    40    22    38    1
    41    23    39    1
    42    26    40    1
@<TRIPOS>MOLECULE
mol15_2_18
 40 42 0 0 0
SMALL
USER_CHARGES
****
VDW energy = -51.82
@<TRIPOS>ATOM
   1 O1        3.4420    -9.1855    -5.2979  O.2     1  <O>11      -0.2698
   2 C1        2.8552    -9.8129    -4.4288  C.2     1  <O>11       0.2494
   3 N1        3.5160   -10.1860    -3.2900  N.am    1  <O>11      -0.2664
   4 C2        4.8600    -9.8500    -3.1210  C.ar    1  <O>11       0.1251
   5 C3        5.5280    -9.1200    -4.1400  C.ar    1  <O>11      -0.0215
   6 C4        6.8660    -8.7810    -3.9580  C.ar    1  <O>11      -0.0571
   7 C5        7.5050    -9.1970    -2.7840  C.ar    1  <O>11      -0.0435
   8 C6        6.7870    -9.9120    -1.8250  C.ar    1  <O>11       0.0297
   9 N2        5.4930   -10.2240    -1.9960  N.ar    1  <O>11      -0.2401
  10 C7        1.4620   -10.1610    -4.6040  C.ar    1  <O>11       0.0389
  11 C8        0.4750    -9.2817    -4.1546  C.ar    1  <O>11      -0.0495
  12 C9       -0.8745    -9.6183    -4.3101  C.ar    1  <O>11      -0.0592
  13 C10      -1.2337   -10.8255    -4.9148  C.ar    1  <O>11      -0.0350
  14 C11      -0.2326   -11.6941    -5.3653  C.ar    1  <O>11       0.1092
  15 S1       -0.6916   -13.2129    -6.1270  S.O2    1  <O>11       0.0724
  16 O2       -1.6066   -12.9005    -7.4767  O.2     1  <O>11      -0.1500
  17 O3       -1.5770   -14.1232    -5.0567  O.2     1  <O>11      -0.1500
  18 N3        0.6676   -14.0429    -6.5633  N.pl3   1  <O>11      -0.2135
  19 C12       0.5520   -15.3343    -7.2143  C.ar    1  <O>11       0.0831
  20 C13      -0.7135   -15.8868    -7.4773  C.ar    1  <O>11      -0.0365
  21 C14      -0.8238   -17.1372    -8.0931  C.ar    1  <O>11      -0.0598
  22 C15       0.3242   -17.8454    -8.4565  C.ar    1  <O>11      -0.0589
  23 C16       1.5844   -17.2929    -8.2010  C.ar    1  <O>11      -0.0246
  24 C17       1.7042   -16.0454    -7.5872  C.ar    1  <O>11       0.1456
  25 F1        2.9387   -15.5008    -7.3444  F       1  <O>11      -0.2035
  26 C18       1.1151   -11.3668    -5.2172  C.ar    1  <O>11      -0.0230
  27 H1        3.0270   -10.7100    -2.5640  H       1  <O>11       0.1566
  28 H2        1.5904   -13.6473    -6.3749  H       1  <O>11       0.1738
  29 H3        5.0298    -8.8454    -5.0010  H       1  <O>11       0.0652
  30 H4        7.3746    -8.2360    -4.6716  H       1  <O>11       0.0619
  31 H5        8.5011    -8.9761    -2.6288  H       1  <O>11       0.0633
  32 H6        7.2644   -10.2093    -0.9597  H       1  <O>11       0.0830
  33 H7        0.7391    -8.3884    -3.7103  H       1  <O>11       0.0625
  34 H8       -1.6070    -8.9723    -3.9769  H       1  <O>11       0.0618
  35 H9       -2.2287   -11.0748    -5.0282  H       1  <O>11       0.0637
  36 H10      -1.5654   -15.3669    -7.2146  H       1  <O>11       0.0637
  37 H11      -1.7563   -17.5382    -8.2797  H       1  <O>11       0.0618
  38 H12       0.2435   -18.7690    -8.9099  H       1  <O>11       0.0618
  39 H13       2.4341   -17.8135    -8.4694  H       1  <O>11       0.0647
  40 H14       1.8481   -12.0089    -5.5570  H       1  <O>11       0.0645
@<TRIPOS>BOND
     1     1     2    2
     2     2     3   am
     3     3     4    1
     4     4     5   ar
     5     5     6   ar
     6     6     7   ar
     7     7     8   ar
     8     8     9   ar
     9     4     9   ar
    10     2    10    1
    11    10    11   ar
    12    11    12   ar
    13    12    13   ar
    14    13    14   ar
    15    14    15    1
    16    15    16    2
    17    15    17    2
    18    15    18    1
    19    18    19    1
    20    19    20   ar
    21    20    21   ar
    22    21    22   ar
    23    22    23   ar
    24    23    24   ar
    25    19    24   ar
    26    24    25    1
    27    14    26   ar
    28    10    26   ar
    29     3    27    1
    30    18    28    1
    31     5    29    1
    32     6    30    1
    33     7    31    1
    34     8    32    1
    35    11    33    1
    36    12    34    1
    37    13    35    1
    38    20    36    1
    39    21    37    1
    40    22    38    1
    41    23    39    1
    42    26    40    1
@<TRIPOS>MOLECULE
mol15_2_19
 40 42 0 0 0
SMALL
USER_CHARGES
****
VDW energy = -51.58
@<TRIPOS>ATOM
   1 O1        3.4420    -9.1855    -5.2979  O.2     1  <O>11      -0.2698
   2 C1        2.8552    -9.8129    -4.4288  C.2     1  <O>11       0.2494
   3 N1        3.5160   -10.1860    -3.2900  N.am    1  <O>11      -0.2664
   4 C2        4.8600    -9.8500    -3.1210  C.ar    1  <O>11       0.1251
   5 C3        5.5280    -9.1200    -4.1400  C.ar    1  <O>11      -0.0215
   6 C4        6.8660    -8.7810    -3.9580  C.ar    1  <O>11      -0.0571
   7 C5        7.5050    -9.1970    -2.7840  C.ar    1  <O>11      -0.0435
   8 C6        6.7870    -9.9120    -1.8250  C.ar    1  <O>11       0.0297
   9 N2        5.4930   -10.2240    -1.9960  N.ar    1  <O>11      -0.2401
  10 C7        1.4620   -10.1610    -4.6040  C.ar    1  <O>11       0.0389
  11 C8        0.5946   -10.0837    -3.5126  C.ar    1  <O>11      -0.0495
  12 C9       -0.7516   -10.4309    -3.6727  C.ar    1  <O>11      -0.0592
  13 C10      -1.2274   -10.8492    -4.9180  C.ar    1  <O>11      -0.0350
  14 C11      -0.3466   -10.9160    -6.0041  C.ar    1  <O>11       0.1092
  15 S1       -0.9524   -11.4428    -7.5704  S.O2    1  <O>11       0.0724
  16 O2       -2.1531   -10.4127    -8.0740  O.2     1  <O>11      -0.1500
  17 O3       -1.5627   -12.9817    -7.4385  O.2     1  <O>11      -0.1500
  18 N3        0.2799   -11.4312    -8.6695  N.pl3   1  <O>11      -0.2135
  19 C12       0.0316   -11.8280   -10.0428  C.ar    1  <O>11       0.0831
  20 C13       0.1456   -10.8915   -11.0848  C.ar    1  <O>11      -0.0365
  21 C14      -0.1064   -11.2716   -12.4064  C.ar    1  <O>11      -0.0598
  22 C15      -0.4689   -12.5879   -12.7022  C.ar    1  <O>11      -0.0589
  23 C16      -0.5761   -13.5225   -11.6659  C.ar    1  <O>11      -0.0246
  24 C17      -0.3261   -13.1522   -10.3439  C.ar    1  <O>11       0.1456
  25 F1       -0.4232   -14.0699    -9.3300  F       1  <O>11      -0.2035
  26 C18       0.9963   -10.5699    -5.8555  C.ar    1  <O>11      -0.0230
  27 H1        3.0270   -10.7100    -2.5640  H       1  <O>11       0.1566
  28 H2        1.2176   -11.1446    -8.3828  H       1  <O>11       0.1738
  29 H3        5.0298    -8.8454    -5.0010  H       1  <O>11       0.0652
  30 H4        7.3746    -8.2360    -4.6716  H       1  <O>11       0.0619
  31 H5        8.5011    -8.9761    -2.6288  H       1  <O>11       0.0633
  32 H6        7.2644   -10.2093    -0.9597  H       1  <O>11       0.0830
  33 H7        0.9443    -9.7723    -2.5929  H       1  <O>11       0.0625
  34 H8       -1.3953   -10.3778    -2.8679  H       1  <O>11       0.0618
  35 H9       -2.2197   -11.1068    -5.0362  H       1  <O>11       0.0637
  36 H10       0.4167    -9.9184   -10.8732  H       1  <O>11       0.0637
  37 H11      -0.0243   -10.5777   -13.1659  H       1  <O>11       0.0618
  38 H12      -0.6564   -12.8690   -13.6773  H       1  <O>11       0.0618
  39 H13      -0.8428   -14.4958   -11.8818  H       1  <O>11       0.0647
  40 H14       1.6389   -10.6156    -6.6617  H       1  <O>11       0.0645
@<TRIPOS>BOND
     1     1     2    2
     2     2     3   am
     3     3     4    1
     4     4     5   ar
     5     5     6   ar
     6     6     7   ar
     7     7     8   ar
     8     8     9   ar
     9     4     9   ar
    10     2    10    1
    11    10    11   ar
    12    11    12   ar
    13    12    13   ar
    14    13    14   ar
    15    14    15    1
    16    15    16    2
    17    15    17    2
    18    15    18    1
    19    18    19    1
    20    19    20   ar
    21    20    21   ar
    22    21    22   ar
    23    22    23   ar
    24    23    24   ar
    25    19    24   ar
    26    24    25    1
    27    14    26   ar
    28    10    26   ar
    29     3    27    1
    30    18    28    1
    31     5    29    1
    32     6    30    1
    33     7    31    1
    34     8    32    1
    35    11    33    1
    36    12    34    1
    37    13    35    1
    38    20    36    1
    39    21    37    1
    40    22    38    1
    41    23    39    1
    42    26    40    1
@<TRIPOS>MOLECULE
mol15_2_20
 40 42 0 0 0
SMALL
USER_CHARGES
****
VDW energy = -51.24
@<TRIPOS>ATOM
   1 O1        3.4420    -9.1855    -5.2979  O.2     1  <O>11      -0.2698
   2 C1        2.8552    -9.8129    -4.4288  C.2     1  <O>11       0.2494
   3 N1        3.5160   -10.1860    -3.2900  N.am    1  <O>11      -0.2664
   4 C2        4.8600    -9.8500    -3.1210  C.ar    1  <O>11       0.1251
   5 C3        5.5280    -9.1200    -4.1400  C.ar    1  <O>11      -0.0215
   6 C4        6.8660    -8.7810    -3.9580  C.ar    1  <O>11      -0.0571
   7 C5        7.5050    -9.1970    -2.7840  C.ar    1  <O>11      -0.0435
   8 C6        6.7870    -9.9120    -1.8250  C.ar    1  <O>11       0.0297
   9 N2        5.4930   -10.2240    -1.9960  N.ar    1  <O>11      -0.2401
  10 C7        1.4620   -10.1610    -4.6040  C.ar    1  <O>11       0.0389
  11 C8        0.5946   -10.0837    -3.5126  C.ar    1  <O>11      -0.0495
  12 C9       -0.7516   -10.4309    -3.6727  C.ar    1  <O>11      -0.0592
  13 C10      -1.2274   -10.8492    -4.9180  C.ar    1  <O>11      -0.0350
  14 C11      -0.3466   -10.9160    -6.0041  C.ar    1  <O>11       0.1092
  15 S1       -0.9524   -11.4428    -7.5704  S.O2    1  <O>11       0.0724
  16 O2       -2.1531   -10.4127    -8.0740  O.2     1  <O>11      -0.1500
  17 O3       -1.5627   -12.9817    -7.4385  O.2     1  <O>11      -0.1500
  18 N3        0.2799   -11.4312    -8.6695  N.pl3   1  <O>11      -0.2135
  19 C12       0.0316   -11.8280   -10.0428  C.ar    1  <O>11       0.0831
  20 C13       0.6297   -12.9873   -10.5667  C.ar    1  <O>11      -0.0365
  21 C14       0.4001   -13.3619   -11.8940  C.ar    1  <O>11      -0.0598
  22 C15      -0.4303   -12.5887   -12.7089  C.ar    1  <O>11      -0.0589
  23 C16      -1.0313   -11.4381   -12.1860  C.ar    1  <O>11      -0.0246
  24 C17      -0.8082   -11.0566   -10.8623  C.ar    1  <O>11       0.1456
  25 F1       -1.4037    -9.9339   -10.3479  F       1  <O>11      -0.2035
  26 C18       0.9963   -10.5699    -5.8555  C.ar    1  <O>11      -0.0230
  27 H1        3.0270   -10.7100    -2.5640  H       1  <O>11       0.1566
  28 H2        1.2176   -11.1446    -8.3828  H       1  <O>11       0.1738
  29 H3        5.0298    -8.8454    -5.0010  H       1  <O>11       0.0652
  30 H4        7.3746    -8.2360    -4.6716  H       1  <O>11       0.0619
  31 H5        8.5011    -8.9761    -2.6288  H       1  <O>11       0.0633
  32 H6        7.2644   -10.2093    -0.9597  H       1  <O>11       0.0830
  33 H7        0.9443    -9.7723    -2.5929  H       1  <O>11       0.0625
  34 H8       -1.3953   -10.3778    -2.8679  H       1  <O>11       0.0618
  35 H9       -2.2197   -11.1068    -5.0362  H       1  <O>11       0.0637
  36 H10       1.2412   -13.5647    -9.9686  H       1  <O>11       0.0637
  37 H11       0.8455   -14.2123   -12.2728  H       1  <O>11       0.0618
  38 H12      -0.5992   -12.8639   -13.6891  H       1  <O>11       0.0618
  39 H13      -1.6460   -10.8657   -12.7856  H       1  <O>11       0.0647
  40 H14       1.6389   -10.6156    -6.6617  H       1  <O>11       0.0645
@<TRIPOS>BOND
     1     1     2    2
     2     2     3   am
     3     3     4    1
     4     4     5   ar
     5     5     6   ar
     6     6     7   ar
     7     7     8   ar
     8     8     9   ar
     9     4     9   ar
    10     2    10    1
    11    10    11   ar
    12    11    12   ar
    13    12    13   ar
    14    13    14   ar
    15    14    15    1
    16    15    16    2
    17    15    17    2
    18    15    18    1
    19    18    19    1
    20    19    20   ar
    21    20    21   ar
    22    21    22   ar
    23    22    23   ar
    24    23    24   ar
    25    19    24   ar
    26    24    25    1
    27    14    26   ar
    28    10    26   ar
    29     3    27    1
    30    18    28    1
    31     5    29    1
    32     6    30    1
    33     7    31    1
    34     8    32    1
    35    11    33    1
    36    12    34    1
    37    13    35    1
    38    20    36    1
    39    21    37    1
    40    22    38    1
    41    23    39    1
    42    26    40    1
@<TRIPOS>MOLECULE
mol15_2_21
 40 42 0 0 0
SMALL
USER_CHARGES
****
VDW energy = -50.33
@<TRIPOS>ATOM
   1 O1        3.4420    -9.1855    -5.2979  O.2     1  <O>11      -0.2698
   2 C1        2.8552    -9.8129    -4.4288  C.2     1  <O>11       0.2494
   3 N1        3.5160   -10.1860    -3.2900  N.am    1  <O>11      -0.2664
   4 C2        4.8600    -9.8500    -3.1210  C.ar    1  <O>11       0.1251
   5 C3        5.8200   -10.8837    -2.9554  C.ar    1  <O>11      -0.0215
   6 C4        7.1595   -10.5390    -2.7973  C.ar    1  <O>11      -0.0571
   7 C5        7.5011    -9.1815    -2.7840  C.ar    1  <O>11      -0.0435
   8 C6        6.5054    -8.2188    -2.9520  C.ar    1  <O>11       0.0297
   9 N2        5.2169    -8.5543    -3.1198  N.ar    1  <O>11      -0.2401
  10 C7        1.4620   -10.1610    -4.6040  C.ar    1  <O>11       0.0389
  11 C8        1.1306   -11.3698    -5.2192  C.ar    1  <O>11      -0.0495
  12 C9       -0.2153   -11.7066    -5.4026  C.ar    1  <O>11      -0.0592
  13 C10      -1.2229   -10.8409    -4.9699  C.ar    1  <O>11      -0.0350
  14 C11      -0.8747    -9.6351    -4.3496  C.ar    1  <O>11       0.1092
  15 S1       -2.1487    -8.5493    -3.8059  S.O2    1  <O>11       0.0724
  16 O2       -1.6203    -7.6946    -2.4842  O.2     1  <O>11      -0.1500
  17 O3       -3.4911    -9.4350    -3.3916  O.2     1  <O>11      -0.1500
  18 N3       -2.5343    -7.5006    -5.0216  N.pl3   1  <O>11      -0.2135
  19 C12      -3.0240    -8.0076    -6.2897  C.ar    1  <O>11       0.0831
  20 C13      -3.1730    -9.3907    -6.4922  C.ar    1  <O>11      -0.0365
  21 C14      -3.6328    -9.8791    -7.7189  C.ar    1  <O>11      -0.0598
  22 C15      -3.9526    -8.9950    -8.7521  C.ar    1  <O>11      -0.0589
  23 C16      -3.8108    -7.6175    -8.5490  C.ar    1  <O>11      -0.0246
  24 C17      -3.3529    -7.1209    -7.3278  C.ar    1  <O>11       0.1456
  25 F1       -3.2220    -5.7712    -7.1263  F       1  <O>11      -0.2035
  26 C18       0.4636    -9.2913    -4.1600  C.ar    1  <O>11      -0.0230
  27 H1        3.0270   -10.7100    -2.5640  H       1  <O>11       0.1566
  28 H2       -2.4281    -6.4943    -4.8813  H       1  <O>11       0.1738
  29 H3        5.5293   -11.8739    -2.9524  H       1  <O>11       0.0652
  30 H4        7.8834   -11.2669    -2.6924  H       1  <O>11       0.0619
  31 H5        8.4835    -8.8946    -2.6508  H       1  <O>11       0.0633
  32 H6        6.7671    -7.2205    -2.9471  H       1  <O>11       0.0830
  33 H7        1.8739   -12.0113    -5.5368  H       1  <O>11       0.0625
  34 H8       -0.4644   -12.5978    -5.8593  H       1  <O>11       0.0618
  35 H9       -2.2155   -11.0882    -5.1063  H       1  <O>11       0.0637
  36 H10      -2.9420   -10.0488    -5.7316  H       1  <O>11       0.0637
  37 H11      -3.7362   -10.8960    -7.8615  H       1  <O>11       0.0618
  38 H12      -4.2908    -9.3548    -9.6583  H       1  <O>11       0.0618
  39 H13      -4.0472    -6.9621    -9.3103  H       1  <O>11       0.0647
  40 H14       0.7134    -8.4037    -3.6966  H       1  <O>11       0.0645
@<TRIPOS>BOND
     1     1     2    2
     2     2     3   am
     3     3     4    1
     4     4     5   ar
     5     5     6   ar
     6     6     7   ar
     7     7     8   ar
     8     8     9   ar
     9     4     9   ar
    10     2    10    1
    11    10    11   ar
    12    11    12   ar
    13    12    13   ar
    14    13    14   ar
    15    14    15    1
    16    15    16    2
    17    15    17    2
    18    15    18    1
    19    18    19    1
    20    19    20   ar
    21    20    21   ar
    22    21    22   ar
    23    22    23   ar
    24    23    24   ar
    25    19    24   ar
    26    24    25    1
    27    14    26   ar
    28    10    26   ar
    29     3    27    1
    30    18    28    1
    31     5    29    1
    32     6    30    1
    33     7    31    1
    34     8    32    1
    35    11    33    1
    36    12    34    1
    37    13    35    1
    38    20    36    1
    39    21    37    1
    40    22    38    1
    41    23    39    1
    42    26    40    1
@<TRIPOS>MOLECULE
mol15_2_22
 40 42 0 0 0
SMALL
USER_CHARGES
****
VDW energy = -50.31
@<TRIPOS>ATOM
   1 O1        3.4420    -9.1855    -5.2979  O.2     1  <O>11      -0.2698
   2 C1        2.8552    -9.8129    -4.4288  C.2     1  <O>11       0.2494
   3 N1        3.5160   -10.1860    -3.2900  N.am    1  <O>11      -0.2664
   4 C2        4.8600    -9.8500    -3.1210  C.ar    1  <O>11       0.1251
   5 C3        5.5280    -9.1200    -4.1400  C.ar    1  <O>11      -0.0215
   6 C4        6.8660    -8.7810    -3.9580  C.ar    1  <O>11      -0.0571
   7 C5        7.5050    -9.1970    -2.7840  C.ar    1  <O>11      -0.0435
   8 C6        6.7870    -9.9120    -1.8250  C.ar    1  <O>11       0.0297
   9 N2        5.4930   -10.2240    -1.9960  N.ar    1  <O>11      -0.2401
  10 C7        1.4620   -10.1610    -4.6040  C.ar    1  <O>11       0.0389
  11 C8        1.0134   -11.4175    -4.1926  C.ar    1  <O>11      -0.0495
  12 C9       -0.3305   -11.7649    -4.3706  C.ar    1  <O>11      -0.0592
  13 C10      -1.2205   -10.8590    -4.9532  C.ar    1  <O>11      -0.0350
  14 C11      -0.7568    -9.6008    -5.3553  C.ar    1  <O>11       0.1092
  15 S1       -1.8831    -8.4638    -6.0878  S.O2    1  <O>11       0.0724
  16 O2       -3.0678    -9.3012    -6.8951  O.2     1  <O>11      -0.1500
  17 O3       -1.0681    -7.4887    -7.1569  O.2     1  <O>11      -0.1500
  18 N3       -2.5716    -7.5345    -4.9092  N.pl3   1  <O>11      -0.2135
  19 C12      -3.5417    -6.5151    -5.2627  C.ar    1  <O>11       0.0831
  20 C13      -3.9012    -6.3116    -6.6063  C.ar    1  <O>11      -0.0365
  21 C14      -4.8264    -5.3204    -6.9472  C.ar    1  <O>11      -0.0598
  22 C15      -5.4050    -4.5272    -5.9533  C.ar    1  <O>11      -0.0589
  23 C16      -5.0525    -4.7338    -4.6148  C.ar    1  <O>11      -0.0246
  24 C17      -4.1302    -5.7210    -4.2651  C.ar    1  <O>11       0.1456
  25 F1       -3.7913    -5.9286    -2.9530  F       1  <O>11      -0.2035
  26 C18       0.5801    -9.2441    -5.1802  C.ar    1  <O>11      -0.0230
  27 H1        3.0270   -10.7100    -2.5640  H       1  <O>11       0.1566
  28 H2       -2.3146    -7.6769    -3.9309  H       1  <O>11       0.1738
  29 H3        5.0298    -8.8454    -5.0010  H       1  <O>11       0.0652
  30 H4        7.3746    -8.2360    -4.6716  H       1  <O>11       0.0619
  31 H5        8.5011    -8.9761    -2.6288  H       1  <O>11       0.0633
  32 H6        7.2644   -10.2093    -0.9597  H       1  <O>11       0.0830
  33 H7        1.6693   -12.0865    -3.7596  H       1  <O>11       0.0625
  34 H8       -0.6655   -12.6936    -4.0704  H       1  <O>11       0.0618
  35 H9       -2.2113   -11.1153    -5.0861  H       1  <O>11       0.0637
  36 H10      -3.4801    -6.8967    -7.3447  H       1  <O>11       0.0637
  37 H11      -5.0828    -5.1743    -7.9361  H       1  <O>11       0.0618
  38 H12      -6.0871    -3.7946    -6.2043  H       1  <O>11       0.0618
  39 H13      -5.4792    -4.1499    -3.8785  H       1  <O>11       0.0647
  40 H14       0.9141    -8.3127    -5.4733  H       1  <O>11       0.0645
@<TRIPOS>BOND
     1     1     2    2
     2     2     3   am
     3     3     4    1
     4     4     5   ar
     5     5     6   ar
     6     6     7   ar
     7     7     8   ar
     8     8     9   ar
     9     4     9   ar
    10     2    10    1
    11    10    11   ar
    12    11    12   ar
    13    12    13   ar
    14    13    14   ar
    15    14    15    1
    16    15    16    2
    17    15    17    2
    18    15    18    1
    19    18    19    1
    20    19    20   ar
    21    20    21   ar
    22    21    22   ar
    23    22    23   ar
    24    23    24   ar
    25    19    24   ar
    26    24    25    1
    27    14    26   ar
    28    10    26   ar
    29     3    27    1
    30    18    28    1
    31     5    29    1
    32     6    30    1
    33     7    31    1
    34     8    32    1
    35    11    33    1
    36    12    34    1
    37    13    35    1
    38    20    36    1
    39    21    37    1
    40    22    38    1
    41    23    39    1
    42    26    40    1
@<TRIPOS>MOLECULE
mol15_2_23
 40 42 0 0 0
SMALL
USER_CHARGES
****
VDW energy = -49.74
@<TRIPOS>ATOM
   1 O1        3.4420    -9.1855    -5.2979  O.2     1  <O>11      -0.2698
   2 C1        2.8552    -9.8129    -4.4288  C.2     1  <O>11       0.2494
   3 N1        3.5160   -10.1860    -3.2900  N.am    1  <O>11      -0.2664
   4 C2        4.8600    -9.8500    -3.1210  C.ar    1  <O>11       0.1251
   5 C3        5.5280    -9.1200    -4.1400  C.ar    1  <O>11      -0.0215
   6 C4        6.8660    -8.7810    -3.9580  C.ar    1  <O>11      -0.0571
   7 C5        7.5050    -9.1970    -2.7840  C.ar    1  <O>11      -0.0435
   8 C6        6.7870    -9.9120    -1.8250  C.ar    1  <O>11       0.0297
   9 N2        5.4930   -10.2240    -1.9960  N.ar    1  <O>11      -0.2401
  10 C7        1.4620   -10.1610    -4.6040  C.ar    1  <O>11       0.0389
  11 C8        0.5946   -10.0837    -3.5126  C.ar    1  <O>11      -0.0495
  12 C9       -0.7516   -10.4309    -3.6727  C.ar    1  <O>11      -0.0592
  13 C10      -1.2274   -10.8492    -4.9180  C.ar    1  <O>11      -0.0350
  14 C11      -0.3466   -10.9160    -6.0041  C.ar    1  <O>11       0.1092
  15 S1       -0.9524   -11.4428    -7.5704  S.O2    1  <O>11       0.0724
  16 O2       -2.1531   -10.4127    -8.0740  O.2     1  <O>11      -0.1500
  17 O3       -1.5627   -12.9817    -7.4385  O.2     1  <O>11      -0.1500
  18 N3        0.2799   -11.4312    -8.6695  N.pl3   1  <O>11      -0.2135
  19 C12       0.0316   -11.8280   -10.0428  C.ar    1  <O>11       0.0831
  20 C13      -1.2552   -12.2243   -10.4464  C.ar    1  <O>11      -0.0365
  21 C14      -1.4908   -12.6189   -11.7668  C.ar    1  <O>11      -0.0598
  22 C15      -0.4488   -12.6175   -12.6973  C.ar    1  <O>11      -0.0589
  23 C16       0.8312   -12.2168   -12.2977  C.ar    1  <O>11      -0.0246
  24 C17       1.0756   -11.8210   -10.9820  C.ar    1  <O>11       0.1456
  25 F1        2.3278   -11.4206   -10.5929  F       1  <O>11      -0.2035
  26 C18       0.9963   -10.5699    -5.8555  C.ar    1  <O>11      -0.0230
  27 H1        3.0270   -10.7100    -2.5640  H       1  <O>11       0.1566
  28 H2        1.2176   -11.1446    -8.3828  H       1  <O>11       0.1738
  29 H3        5.0298    -8.8454    -5.0010  H       1  <O>11       0.0652
  30 H4        7.3746    -8.2360    -4.6716  H       1  <O>11       0.0619
  31 H5        8.5011    -8.9761    -2.6288  H       1  <O>11       0.0633
  32 H6        7.2644   -10.2093    -0.9597  H       1  <O>11       0.0830
  33 H7        0.9443    -9.7723    -2.5929  H       1  <O>11       0.0625
  34 H8       -1.3953   -10.3778    -2.8679  H       1  <O>11       0.0618
  35 H9       -2.2197   -11.1068    -5.0362  H       1  <O>11       0.0637
  36 H10      -2.0300   -12.2239    -9.7647  H       1  <O>11       0.0637
  37 H11      -2.4374   -12.9120   -12.0550  H       1  <O>11       0.0618
  38 H12      -0.6216   -12.9099   -13.6718  H       1  <O>11       0.0618
  39 H13       1.6026   -12.2139   -12.9833  H       1  <O>11       0.0647
  40 H14       1.6389   -10.6156    -6.6617  H       1  <O>11       0.0645
@<TRIPOS>BOND
     1     1     2    2
     2     2     3   am
     3     3     4    1
     4     4     5   ar
     5     5     6   ar
     6     6     7   ar
     7     7     8   ar
     8     8     9   ar
     9     4     9   ar
    10     2    10    1
    11    10    11   ar
    12    11    12   ar
    13    12    13   ar
    14    13    14   ar
    15    14    15    1
    16    15    16    2
    17    15    17    2
    18    15    18    1
    19    18    19    1
    20    19    20   ar
    21    20    21   ar
    22    21    22   ar
    23    22    23   ar
    24    23    24   ar
    25    19    24   ar
    26    24    25    1
    27    14    26   ar
    28    10    26   ar
    29     3    27    1
    30    18    28    1
    31     5    29    1
    32     6    30    1
    33     7    31    1
    34     8    32    1
    35    11    33    1
    36    12    34    1
    37    13    35    1
    38    20    36    1
    39    21    37    1
    40    22    38    1
    41    23    39    1
    42    26    40    1
@<TRIPOS>MOLECULE
mol15_2_24
 40 42 0 0 0
SMALL
USER_CHARGES
****
VDW energy = -49.74
@<TRIPOS>ATOM
   1 O1        3.4420    -9.1855    -5.2979  O.2     1  <O>11      -0.2698
   2 C1        2.8552    -9.8129    -4.4288  C.2     1  <O>11       0.2494
   3 N1        3.5160   -10.1860    -3.2900  N.am    1  <O>11      -0.2664
   4 C2        4.8600    -9.8500    -3.1210  C.ar    1  <O>11       0.1251
   5 C3        5.5280    -9.1200    -4.1400  C.ar    1  <O>11      -0.0215
   6 C4        6.8660    -8.7810    -3.9580  C.ar    1  <O>11      -0.0571
   7 C5        7.5050    -9.1970    -2.7840  C.ar    1  <O>11      -0.0435
   8 C6        6.7870    -9.9120    -1.8250  C.ar    1  <O>11       0.0297
   9 N2        5.4930   -10.2240    -1.9960  N.ar    1  <O>11      -0.2401
  10 C7        1.4620   -10.1610    -4.6040  C.ar    1  <O>11       0.0389
  11 C8        1.0134   -11.4175    -4.1926  C.ar    1  <O>11      -0.0495
  12 C9       -0.3305   -11.7649    -4.3706  C.ar    1  <O>11      -0.0592
  13 C10      -1.2205   -10.8590    -4.9532  C.ar    1  <O>11      -0.0350
  14 C11      -0.7568    -9.6008    -5.3553  C.ar    1  <O>11       0.1092
  15 S1       -1.8831    -8.4638    -6.0878  S.O2    1  <O>11       0.0724
  16 O2       -3.1076    -8.1309    -5.0171  O.2     1  <O>11      -0.1500
  17 O3       -2.5214    -9.1294    -7.4690  O.2     1  <O>11      -0.1500
  18 N3       -1.0875    -7.0672    -6.4660  N.pl3   1  <O>11      -0.2135
  19 C12      -1.8044    -5.9682    -7.0851  C.ar    1  <O>11       0.0831
  20 C13      -3.1768    -6.0838    -7.3668  C.ar    1  <O>11      -0.0365
  21 C14      -3.8640    -5.0291    -7.9751  C.ar    1  <O>11      -0.0598
  22 C15      -3.1922    -3.8491    -8.3033  C.ar    1  <O>11      -0.0589
  23 C16      -1.8274    -3.7307    -8.0171  C.ar    1  <O>11      -0.0246
  24 C17      -1.1333    -4.7781    -7.4098  C.ar    1  <O>11       0.1456
  25 F1        0.2018    -4.6587    -7.1220  F       1  <O>11      -0.2035
  26 C18       0.5801    -9.2441    -5.1802  C.ar    1  <O>11      -0.0230
  27 H1        3.0270   -10.7100    -2.5640  H       1  <O>11       0.1566
  28 H2       -0.0902    -6.9766    -6.2643  H       1  <O>11       0.1738
  29 H3        5.0298    -8.8454    -5.0010  H       1  <O>11       0.0652
  30 H4        7.3746    -8.2360    -4.6716  H       1  <O>11       0.0619
  31 H5        8.5011    -8.9761    -2.6288  H       1  <O>11       0.0633
  32 H6        7.2644   -10.2093    -0.9597  H       1  <O>11       0.0830
  33 H7        1.6693   -12.0865    -3.7596  H       1  <O>11       0.0625
  34 H8       -0.6655   -12.6936    -4.0704  H       1  <O>11       0.0618
  35 H9       -2.2113   -11.1153    -5.0861  H       1  <O>11       0.0637
  36 H10      -3.6795    -6.9516    -7.1233  H       1  <O>11       0.0637
  37 H11      -4.8707    -5.1226    -8.1822  H       1  <O>11       0.0618
  38 H12      -3.6985    -3.0706    -8.7535  H       1  <O>11       0.0618
  39 H13      -1.3289    -2.8597    -8.2576  H       1  <O>11       0.0647
  40 H14       0.9141    -8.3127    -5.4733  H       1  <O>11       0.0645
@<TRIPOS>BOND
     1     1     2    2
     2     2     3   am
     3     3     4    1
     4     4     5   ar
     5     5     6   ar
     6     6     7   ar
     7     7     8   ar
     8     8     9   ar
     9     4     9   ar
    10     2    10    1
    11    10    11   ar
    12    11    12   ar
    13    12    13   ar
    14    13    14   ar
    15    14    15    1
    16    15    16    2
    17    15    17    2
    18    15    18    1
    19    18    19    1
    20    19    20   ar
    21    20    21   ar
    22    21    22   ar
    23    22    23   ar
    24    23    24   ar
    25    19    24   ar
    26    24    25    1
    27    14    26   ar
    28    10    26   ar
    29     3    27    1
    30    18    28    1
    31     5    29    1
    32     6    30    1
    33     7    31    1
    34     8    32    1
    35    11    33    1
    36    12    34    1
    37    13    35    1
    38    20    36    1
    39    21    37    1
    40    22    38    1
    41    23    39    1
    42    26    40    1
@<TRIPOS>MOLECULE
mol15_2_25
 40 42 0 0 0
SMALL
USER_CHARGES
****
VDW energy = -47.83
@<TRIPOS>ATOM
   1 O1        3.4420    -9.1855    -5.2979  O.2     1  <O>11      -0.2698
   2 C1        2.8552    -9.8129    -4.4288  C.2     1  <O>11       0.2494
   3 N1        3.5160   -10.1860    -3.2900  N.am    1  <O>11      -0.2664
   4 C2        4.8600    -9.8500    -3.1210  C.ar    1  <O>11       0.1251
   5 C3        5.5280    -9.1200    -4.1400  C.ar    1  <O>11      -0.0215
   6 C4        6.8660    -8.7810    -3.9580  C.ar    1  <O>11      -0.0571
   7 C5        7.5050    -9.1970    -2.7840  C.ar    1  <O>11      -0.0435
   8 C6        6.7870    -9.9120    -1.8250  C.ar    1  <O>11       0.0297
   9 N2        5.4930   -10.2240    -1.9960  N.ar    1  <O>11      -0.2401
  10 C7        1.4620   -10.1610    -4.6040  C.ar    1  <O>11       0.0389
  11 C8        0.8010    -9.7730    -5.7710  C.ar    1  <O>11      -0.0495
  12 C9       -0.5500   -10.0960    -5.9410  C.ar    1  <O>11      -0.0592
  13 C10      -1.2340   -10.8060    -4.9510  C.ar    1  <O>11      -0.0350
  14 C11      -0.5560   -11.1930    -3.7890  C.ar    1  <O>11       0.1092
  15 S1       -1.4230   -12.0880    -2.5460  S.O2    1  <O>11       0.0724
  16 O2       -0.3661   -13.0866    -1.7447  O.2     1  <O>11      -0.1500
  17 O3       -2.6180   -12.9995    -3.2525  O.2     1  <O>11      -0.1500
  18 N3       -2.0988   -11.0284    -1.4750  N.pl3   1  <O>11      -0.2135
  19 C12      -2.8706   -11.5252    -0.3513  C.ar    1  <O>11       0.0831
  20 C13      -4.2493   -11.2650    -0.2655  C.ar    1  <O>11      -0.0365
  21 C14      -4.9897   -11.7331     0.8241  C.ar    1  <O>11      -0.0598
  22 C15      -4.3650   -12.4680     1.8347  C.ar    1  <O>11      -0.0589
  23 C16      -2.9936   -12.7331     1.7466  C.ar    1  <O>11      -0.0246
  24 C17      -2.2467   -12.2702     0.6625  C.ar    1  <O>11       0.1456
  25 F1       -0.9049   -12.5371     0.5724  F       1  <O>11      -0.2035
  26 C18       0.7910   -10.8780    -3.6110  C.ar    1  <O>11      -0.0230
  27 H1        3.0270   -10.7100    -2.5640  H       1  <O>11       0.1566
  28 H2       -1.9739   -10.0227    -1.6033  H       1  <O>11       0.1738
  29 H3        5.0298    -8.8454    -5.0010  H       1  <O>11       0.0652
  30 H4        7.3746    -8.2360    -4.6716  H       1  <O>11       0.0619
  31 H5        8.5011    -8.9761    -2.6288  H       1  <O>11       0.0633
  32 H6        7.2644   -10.2093    -0.9597  H       1  <O>11       0.0830
  33 H7        1.3059    -9.2509    -6.5042  H       1  <O>11       0.0625
  34 H8       -1.0429    -9.8087    -6.8009  H       1  <O>11       0.0618
  35 H9       -2.2307   -11.0431    -5.0753  H       1  <O>11       0.0637
  36 H10      -4.7174   -10.7258    -1.0107  H       1  <O>11       0.0637
  37 H11      -6.0009   -11.5350     0.8821  H       1  <O>11       0.0618
  38 H12      -4.9106   -12.8128     2.6400  H       1  <O>11       0.0618
  39 H13      -2.5298   -13.2766     2.4913  H       1  <O>11       0.0647
  40 H14       1.2865   -11.1716    -2.7547  H       1  <O>11       0.0645
@<TRIPOS>BOND
     1     1     2    2
     2     2     3   am
     3     3     4    1
     4     4     5   ar
     5     5     6   ar
     6     6     7   ar
     7     7     8   ar
     8     8     9   ar
     9     4     9   ar
    10     2    10    1
    11    10    11   ar
    12    11    12   ar
    13    12    13   ar
    14    13    14   ar
    15    14    15    1
    16    15    16    2
    17    15    17    2
    18    15    18    1
    19    18    19    1
    20    19    20   ar
    21    20    21   ar
    22    21    22   ar
    23    22    23   ar
    24    23    24   ar
    25    19    24   ar
    26    24    25    1
    27    14    26   ar
    28    10    26   ar
    29     3    27    1
    30    18    28    1
    31     5    29    1
    32     6    30    1
    33     7    31    1
    34     8    32    1
    35    11    33    1
    36    12    34    1
    37    13    35    1
    38    20    36    1
    39    21    37    1
    40    22    38    1
    41    23    39    1
    42    26    40    1
@<TRIPOS>MOLECULE
mol15_2_26
 40 42 0 0 0
SMALL
USER_CHARGES
****
VDW energy = -46.46
@<TRIPOS>ATOM
   1 O1        3.4420    -9.1855    -5.2979  O.2     1  <O>11      -0.2698
   2 C1        2.8552    -9.8129    -4.4288  C.2     1  <O>11       0.2494
   3 N1        3.5160   -10.1860    -3.2900  N.am    1  <O>11      -0.2664
   4 C2        4.8600    -9.8500    -3.1210  C.ar    1  <O>11       0.1251
   5 C3        5.5280    -9.1200    -4.1400  C.ar    1  <O>11      -0.0215
   6 C4        6.8660    -8.7810    -3.9580  C.ar    1  <O>11      -0.0571
   7 C5        7.5050    -9.1970    -2.7840  C.ar    1  <O>11      -0.0435
   8 C6        6.7870    -9.9120    -1.8250  C.ar    1  <O>11       0.0297
   9 N2        5.4930   -10.2240    -1.9960  N.ar    1  <O>11      -0.2401
  10 C7        1.4620   -10.1610    -4.6040  C.ar    1  <O>11       0.0389
  11 C8        0.8010    -9.7730    -5.7710  C.ar    1  <O>11      -0.0495
  12 C9       -0.5500   -10.0960    -5.9410  C.ar    1  <O>11      -0.0592
  13 C10      -1.2340   -10.8060    -4.9510  C.ar    1  <O>11      -0.0350
  14 C11      -0.5560   -11.1930    -3.7890  C.ar    1  <O>11       0.1092
  15 S1       -1.4230   -12.0880    -2.5460  S.O2    1  <O>11       0.0724
  16 O2       -3.0248   -11.6519    -2.5661  O.2     1  <O>11      -0.1500
  17 O3       -0.7731   -11.7391    -1.0581  O.2     1  <O>11      -0.1500
  18 N3       -1.2895   -13.7075    -2.8395  N.pl3   1  <O>11      -0.2135
  19 C12      -1.9231   -14.6613    -1.9485  C.ar    1  <O>11       0.0831
  20 C13      -2.6524   -14.2155    -0.8326  C.ar    1  <O>11      -0.0365
  21 C14      -3.2517   -15.1357     0.0327  C.ar    1  <O>11      -0.0598
  22 C15      -3.1343   -16.5067    -0.2084  C.ar    1  <O>11      -0.0589
  23 C16      -2.4139   -16.9511    -1.3230  C.ar    1  <O>11      -0.0246
  24 C17      -1.8126   -16.0399    -2.1922  C.ar    1  <O>11       0.1456
  25 F1       -1.1139   -16.4753    -3.2885  F       1  <O>11      -0.2035
  26 C18       0.7910   -10.8780    -3.6110  C.ar    1  <O>11      -0.0230
  27 H1        3.0270   -10.7100    -2.5640  H       1  <O>11       0.1566
  28 H2       -0.7607   -14.0383    -3.6484  H       1  <O>11       0.1738
  29 H3        5.0298    -8.8454    -5.0010  H       1  <O>11       0.0652
  30 H4        7.3746    -8.2360    -4.6716  H       1  <O>11       0.0619
  31 H5        8.5011    -8.9761    -2.6288  H       1  <O>11       0.0633
  32 H6        7.2644   -10.2093    -0.9597  H       1  <O>11       0.0830
  33 H7        1.3059    -9.2509    -6.5042  H       1  <O>11       0.0625
  34 H8       -1.0429    -9.8087    -6.8009  H       1  <O>11       0.0618
  35 H9       -2.2307   -11.0431    -5.0753  H       1  <O>11       0.0637
  36 H10      -2.7459   -13.2039    -0.6511  H       1  <O>11       0.0637
  37 H11      -3.7826   -14.8011     0.8520  H       1  <O>11       0.0618
  38 H12      -3.5753   -17.1867     0.4305  H       1  <O>11       0.0618
  39 H13      -2.3264   -17.9634    -1.5040  H       1  <O>11       0.0647
  40 H14       1.2865   -11.1716    -2.7547  H       1  <O>11       0.0645
@<TRIPOS>BOND
     1     1     2    2
     2     2     3   am
     3     3     4    1
     4     4     5   ar
     5     5     6   ar
     6     6     7   ar
     7     7     8   ar
     8     8     9   ar
     9     4     9   ar
    10     2    10    1
    11    10    11   ar
    12    11    12   ar
    13    12    13   ar
    14    13    14   ar
    15    14    15    1
    16    15    16    2
    17    15    17    2
    18    15    18    1
    19    18    19    1
    20    19    20   ar
    21    20    21   ar
    22    21    22   ar
    23    22    23   ar
    24    23    24   ar
    25    19    24   ar
    26    24    25    1
    27    14    26   ar
    28    10    26   ar
    29     3    27    1
    30    18    28    1
    31     5    29    1
    32     6    30    1
    33     7    31    1
    34     8    32    1
    35    11    33    1
    36    12    34    1
    37    13    35    1
    38    20    36    1
    39    21    37    1
    40    22    38    1
    41    23    39    1
    42    26    40    1
@<TRIPOS>MOLECULE
mol15_2_27
 40 42 0 0 0
SMALL
USER_CHARGES
****
VDW energy = -46.44
@<TRIPOS>ATOM
   1 O1        3.4420    -9.1855    -5.2979  O.2     1  <O>11      -0.2698
   2 C1        2.8552    -9.8129    -4.4288  C.2     1  <O>11       0.2494
   3 N1        3.5160   -10.1860    -3.2900  N.am    1  <O>11      -0.2664
   4 C2        4.8600    -9.8500    -3.1210  C.ar    1  <O>11       0.1251
   5 C3        5.5280    -9.1200    -4.1400  C.ar    1  <O>11      -0.0215
   6 C4        6.8660    -8.7810    -3.9580  C.ar    1  <O>11      -0.0571
   7 C5        7.5050    -9.1970    -2.7840  C.ar    1  <O>11      -0.0435
   8 C6        6.7870    -9.9120    -1.8250  C.ar    1  <O>11       0.0297
   9 N2        5.4930   -10.2240    -1.9960  N.ar    1  <O>11      -0.2401
  10 C7        1.4620   -10.1610    -4.6040  C.ar    1  <O>11       0.0389
  11 C8        0.8010    -9.7730    -5.7710  C.ar    1  <O>11      -0.0495
  12 C9       -0.5500   -10.0960    -5.9410  C.ar    1  <O>11      -0.0592
  13 C10      -1.2340   -10.8060    -4.9510  C.ar    1  <O>11      -0.0350
  14 C11      -0.5560   -11.1930    -3.7890  C.ar    1  <O>11       0.1092
  15 S1       -1.4230   -12.0880    -2.5460  S.O2    1  <O>11       0.0724
  16 O2       -0.3661   -13.0866    -1.7447  O.2     1  <O>11      -0.1500
  17 O3       -2.6180   -12.9995    -3.2525  O.2     1  <O>11      -0.1500
  18 N3       -2.0988   -11.0284    -1.4750  N.pl3   1  <O>11      -0.2135
  19 C12      -2.8706   -11.5252    -0.3513  C.ar    1  <O>11       0.0831
  20 C13      -3.0483   -12.9073    -0.1668  C.ar    1  <O>11      -0.0365
  21 C14      -3.8028   -13.3847     0.9090  C.ar    1  <O>11      -0.0598
  22 C15      -4.3824   -12.4908     1.8127  C.ar    1  <O>11      -0.0589
  23 C16      -4.2003   -11.1148     1.6333  C.ar    1  <O>11      -0.0246
  24 C17      -3.4485   -10.6292     0.5627  C.ar    1  <O>11       0.1456
  25 F1       -3.2634    -9.2815     0.3920  F       1  <O>11      -0.2035
  26 C18       0.7910   -10.8780    -3.6110  C.ar    1  <O>11      -0.0230
  27 H1        3.0270   -10.7100    -2.5640  H       1  <O>11       0.1566
  28 H2       -1.9739   -10.0227    -1.6033  H       1  <O>11       0.1738
  29 H3        5.0298    -8.8454    -5.0010  H       1  <O>11       0.0652
  30 H4        7.3746    -8.2360    -4.6716  H       1  <O>11       0.0619
  31 H5        8.5011    -8.9761    -2.6288  H       1  <O>11       0.0633
  32 H6        7.2644   -10.2093    -0.9597  H       1  <O>11       0.0830
  33 H7        1.3059    -9.2509    -6.5042  H       1  <O>11       0.0625
  34 H8       -1.0429    -9.8087    -6.8009  H       1  <O>11       0.0618
  35 H9       -2.2307   -11.0431    -5.0753  H       1  <O>11       0.0637
  36 H10      -2.6196   -13.5730    -0.8287  H       1  <O>11       0.0637
  37 H11      -3.9321   -14.4007     1.0361  H       1  <O>11       0.0618
  38 H12      -4.9406   -12.8423     2.6063  H       1  <O>11       0.0618
  39 H13      -4.6265   -10.4522     2.3000  H       1  <O>11       0.0647
  40 H14       1.2865   -11.1716    -2.7547  H       1  <O>11       0.0645
@<TRIPOS>BOND
     1     1     2    2
     2     2     3   am
     3     3     4    1
     4     4     5   ar
     5     5     6   ar
     6     6     7   ar
     7     7     8   ar
     8     8     9   ar
     9     4     9   ar
    10     2    10    1
    11    10    11   ar
    12    11    12   ar
    13    12    13   ar
    14    13    14   ar
    15    14    15    1
    16    15    16    2
    17    15    17    2
    18    15    18    1
    19    18    19    1
    20    19    20   ar
    21    20    21   ar
    22    21    22   ar
    23    22    23   ar
    24    23    24   ar
    25    19    24   ar
    26    24    25    1
    27    14    26   ar
    28    10    26   ar
    29     3    27    1
    30    18    28    1
    31     5    29    1
    32     6    30    1
    33     7    31    1
    34     8    32    1
    35    11    33    1
    36    12    34    1
    37    13    35    1
    38    20    36    1
    39    21    37    1
    40    22    38    1
    41    23    39    1
    42    26    40    1
@<TRIPOS>MOLECULE
mol15_2_28
 40 42 0 0 0
SMALL
USER_CHARGES
****
VDW energy = -44.88
@<TRIPOS>ATOM
   1 O1        3.4420    -9.1855    -5.2979  O.2     1  <O>11      -0.2698
   2 C1        2.8552    -9.8129    -4.4288  C.2     1  <O>11       0.2494
   3 N1        3.5160   -10.1860    -3.2900  N.am    1  <O>11      -0.2664
   4 C2        4.8600    -9.8500    -3.1210  C.ar    1  <O>11       0.1251
   5 C3        5.8200   -10.8837    -2.9554  C.ar    1  <O>11      -0.0215
   6 C4        7.1595   -10.5390    -2.7973  C.ar    1  <O>11      -0.0571
   7 C5        7.5011    -9.1815    -2.7840  C.ar    1  <O>11      -0.0435
   8 C6        6.5054    -8.2188    -2.9520  C.ar    1  <O>11       0.0297
   9 N2        5.2169    -8.5543    -3.1198  N.ar    1  <O>11      -0.2401
  10 C7        1.4620   -10.1610    -4.6040  C.ar    1  <O>11       0.0389
  11 C8        0.8010    -9.7730    -5.7710  C.ar    1  <O>11      -0.0495
  12 C9       -0.5500   -10.0960    -5.9410  C.ar    1  <O>11      -0.0592
  13 C10      -1.2340   -10.8060    -4.9510  C.ar    1  <O>11      -0.0350
  14 C11      -0.5560   -11.1930    -3.7890  C.ar    1  <O>11       0.1092
  15 S1       -1.4230   -12.0880    -2.5460  S.O2    1  <O>11       0.0724
  16 O2       -3.0248   -11.6519    -2.5661  O.2     1  <O>11      -0.1500
  17 O3       -0.7731   -11.7391    -1.0581  O.2     1  <O>11      -0.1500
  18 N3       -1.2895   -13.7075    -2.8395  N.pl3   1  <O>11      -0.2135
  19 C12       0.0189   -14.3336    -2.8735  C.ar    1  <O>11       0.0831
  20 C13       1.1785   -13.5689    -2.6581  C.ar    1  <O>11      -0.0365
  21 C14       2.4396   -14.1707    -2.7038  C.ar    1  <O>11      -0.0598
  22 C15       2.5566   -15.5391    -2.9595  C.ar    1  <O>11      -0.0589
  23 C16       1.4020   -16.3023    -3.1675  C.ar    1  <O>11      -0.0246
  24 C17       0.1391   -15.7103    -3.1233  C.ar    1  <O>11       0.1456
  25 F1       -0.9921   -16.4597    -3.3190  F       1  <O>11      -0.2035
  26 C18       0.7910   -10.8780    -3.6110  C.ar    1  <O>11      -0.0230
  27 H1        3.0270   -10.7100    -2.5640  H       1  <O>11       0.1566
  28 H2       -2.1281   -14.2690    -2.9972  H       1  <O>11       0.1738
  29 H3        5.5293   -11.8739    -2.9524  H       1  <O>11       0.0652
  30 H4        7.8834   -11.2669    -2.6924  H       1  <O>11       0.0619
  31 H5        8.4835    -8.8946    -2.6508  H       1  <O>11       0.0633
  32 H6        6.7671    -7.2205    -2.9471  H       1  <O>11       0.0830
  33 H7        1.3059    -9.2509    -6.5042  H       1  <O>11       0.0625
  34 H8       -1.0429    -9.8087    -6.8009  H       1  <O>11       0.0618
  35 H9       -2.2307   -11.0431    -5.0753  H       1  <O>11       0.0637
  36 H10       1.0986   -12.5583    -2.4651  H       1  <O>11       0.0637
  37 H11       3.2868   -13.6022    -2.5483  H       1  <O>11       0.0618
  38 H12       3.4872   -15.9838    -2.9947  H       1  <O>11       0.0618
  39 H13       1.4855   -17.3136    -3.3555  H       1  <O>11       0.0647
  40 H14       1.2865   -11.1716    -2.7547  H       1  <O>11       0.0645
@<TRIPOS>BOND
     1     1     2    2
     2     2     3   am
     3     3     4    1
     4     4     5   ar
     5     5     6   ar
     6     6     7   ar
     7     7     8   ar
     8     8     9   ar
     9     4     9   ar
    10     2    10    1
    11    10    11   ar
    12    11    12   ar
    13    12    13   ar
    14    13    14   ar
    15    14    15    1
    16    15    16    2
    17    15    17    2
    18    15    18    1
    19    18    19    1
    20    19    20   ar
    21    20    21   ar
    22    21    22   ar
    23    22    23   ar
    24    23    24   ar
    25    19    24   ar
    26    24    25    1
    27    14    26   ar
    28    10    26   ar
    29     3    27    1
    30    18    28    1
    31     5    29    1
    32     6    30    1
    33     7    31    1
    34     8    32    1
    35    11    33    1
    36    12    34    1
    37    13    35    1
    38    20    36    1
    39    21    37    1
    40    22    38    1
    41    23    39    1
    42    26    40    1
@<TRIPOS>MOLECULE
mol15_2_29
 40 42 0 0 0
SMALL
USER_CHARGES
****
VDW energy = -42.49
@<TRIPOS>ATOM
   1 O1        3.4420    -9.1855    -5.2979  O.2     1  <O>11      -0.2698
   2 C1        2.8552    -9.8129    -4.4288  C.2     1  <O>11       0.2494
   3 N1        3.5160   -10.1860    -3.2900  N.am    1  <O>11      -0.2664
   4 C2        4.8600    -9.8500    -3.1210  C.ar    1  <O>11       0.1251
   5 C3        5.8200   -10.8837    -2.9554  C.ar    1  <O>11      -0.0215
   6 C4        7.1595   -10.5390    -2.7973  C.ar    1  <O>11      -0.0571
   7 C5        7.5011    -9.1815    -2.7840  C.ar    1  <O>11      -0.0435
   8 C6        6.5054    -8.2188    -2.9520  C.ar    1  <O>11       0.0297
   9 N2        5.2169    -8.5543    -3.1198  N.ar    1  <O>11      -0.2401
  10 C7        1.4620   -10.1610    -4.6040  C.ar    1  <O>11       0.0389
  11 C8        0.8010    -9.7730    -5.7710  C.ar    1  <O>11      -0.0495
  12 C9       -0.5500   -10.0960    -5.9410  C.ar    1  <O>11      -0.0592
  13 C10      -1.2340   -10.8060    -4.9510  C.ar    1  <O>11      -0.0350
  14 C11      -0.5560   -11.1930    -3.7890  C.ar    1  <O>11       0.1092
  15 S1       -1.4230   -12.0880    -2.5460  S.O2    1  <O>11       0.0724
  16 O2       -0.3661   -13.0866    -1.7447  O.2     1  <O>11      -0.1500
  17 O3       -2.6180   -12.9995    -3.2525  O.2     1  <O>11      -0.1500
  18 N3       -2.0988   -11.0284    -1.4750  N.pl3   1  <O>11      -0.2135
  19 C12      -3.0622   -10.0461    -1.9355  C.ar    1  <O>11       0.0831
  20 C13      -3.4259    -9.9892    -3.2921  C.ar    1  <O>11      -0.0365
  21 C14      -4.3446    -9.0339    -3.7373  C.ar    1  <O>11      -0.0598
  22 C15      -4.9125    -8.1310    -2.8351  C.ar    1  <O>11      -0.0589
  23 C16      -4.5559    -8.1915    -1.4831  C.ar    1  <O>11      -0.0246
  24 C17      -3.6400    -9.1418    -1.0297  C.ar    1  <O>11       0.1456
  25 F1       -3.2971    -9.2061     0.2961  F       1  <O>11      -0.2035
  26 C18       0.7910   -10.8780    -3.6110  C.ar    1  <O>11      -0.0230
  27 H1        3.0270   -10.7100    -2.5640  H       1  <O>11       0.1566
  28 H2       -1.8388   -11.0641    -0.4878  H       1  <O>11       0.1738
  29 H3        5.5293   -11.8739    -2.9524  H       1  <O>11       0.0652
  30 H4        7.8834   -11.2669    -2.6924  H       1  <O>11       0.0619
  31 H5        8.4835    -8.8946    -2.6508  H       1  <O>11       0.0633
  32 H6        6.7671    -7.2205    -2.9471  H       1  <O>11       0.0830
  33 H7        1.3059    -9.2509    -6.5042  H       1  <O>11       0.0625
  34 H8       -1.0429    -9.8087    -6.8009  H       1  <O>11       0.0618
  35 H9       -2.2307   -11.0431    -5.0753  H       1  <O>11       0.0637
  36 H10      -3.0127   -10.6558    -3.9629  H       1  <O>11       0.0637
  37 H11      -4.6041    -8.9957    -4.7354  H       1  <O>11       0.0618
  38 H12      -5.5898    -7.4248    -3.1632  H       1  <O>11       0.0618
  39 H13      -4.9747    -7.5263    -0.8144  H       1  <O>11       0.0647
  40 H14       1.2865   -11.1716    -2.7547  H       1  <O>11       0.0645
@<TRIPOS>BOND
     1     1     2    2
     2     2     3   am
     3     3     4    1
     4     4     5   ar
     5     5     6   ar
     6     6     7   ar
     7     7     8   ar
     8     8     9   ar
     9     4     9   ar
    10     2    10    1
    11    10    11   ar
    12    11    12   ar
    13    12    13   ar
    14    13    14   ar
    15    14    15    1
    16    15    16    2
    17    15    17    2
    18    15    18    1
    19    18    19    1
    20    19    20   ar
    21    20    21   ar
    22    21    22   ar
    23    22    23   ar
    24    23    24   ar
    25    19    24   ar
    26    24    25    1
    27    14    26   ar
    28    10    26   ar
    29     3    27    1
    30    18    28    1
    31     5    29    1
    32     6    30    1
    33     7    31    1
    34     8    32    1
    35    11    33    1
    36    12    34    1
    37    13    35    1
    38    20    36    1
    39    21    37    1
    40    22    38    1
    41    23    39    1
    42    26    40    1
@<TRIPOS>MOLECULE
mol15_2_30
 40 42 0 0 0
SMALL
USER_CHARGES
****
VDW energy = -42.37
@<TRIPOS>ATOM
   1 O1        3.4420    -9.1855    -5.2979  O.2     1  <O>11      -0.2698
   2 C1        2.8552    -9.8129    -4.4288  C.2     1  <O>11       0.2494
   3 N1        3.5160   -10.1860    -3.2900  N.am    1  <O>11      -0.2664
   4 C2        4.8600    -9.8500    -3.1210  C.ar    1  <O>11       0.1251
   5 C3        5.5280    -9.1200    -4.1400  C.ar    1  <O>11      -0.0215
   6 C4        6.8660    -8.7810    -3.9580  C.ar    1  <O>11      -0.0571
   7 C5        7.5050    -9.1970    -2.7840  C.ar    1  <O>11      -0.0435
   8 C6        6.7870    -9.9120    -1.8250  C.ar    1  <O>11       0.0297
   9 N2        5.4930   -10.2240    -1.9960  N.ar    1  <O>11      -0.2401
  10 C7        1.4620   -10.1610    -4.6040  C.ar    1  <O>11       0.0389
  11 C8        0.8010    -9.7730    -5.7710  C.ar    1  <O>11      -0.0495
  12 C9       -0.5500   -10.0960    -5.9410  C.ar    1  <O>11      -0.0592
  13 C10      -1.2340   -10.8060    -4.9510  C.ar    1  <O>11      -0.0350
  14 C11      -0.5560   -11.1930    -3.7890  C.ar    1  <O>11       0.1092
  15 S1       -1.4230   -12.0880    -2.5460  S.O2    1  <O>11       0.0724
  16 O2       -1.9940   -13.5100    -3.1850  O.2     1  <O>11      -0.1500
  17 O3       -2.6980   -11.1770    -1.9960  O.2     1  <O>11      -0.1500
  18 N3       -0.4010   -12.4190    -1.2920  N.pl3   1  <O>11      -0.2135
  19 C12      -0.8830   -13.1530    -0.1370  C.ar    1  <O>11       0.0831
  20 C13      -2.2190   -13.5860    -0.0770  C.ar    1  <O>11      -0.0365
  21 C14      -2.6860   -14.2820     1.0420  C.ar    1  <O>11      -0.0598
  22 C15      -1.8260   -14.5570     2.1080  C.ar    1  <O>11      -0.0589
  23 C16      -0.4940   -14.1320     2.0460  C.ar    1  <O>11      -0.0246
  24 C17      -0.0190   -13.4370     0.9330  C.ar    1  <O>11       0.1456
  25 F1        1.2880   -13.0280     0.8690  F       1  <O>11      -0.2035
  26 C18       0.7910   -10.8780    -3.6110  C.ar    1  <O>11      -0.0230
  27 H1        3.0270   -10.7100    -2.5640  H       1  <O>11       0.1566
  28 H2        0.5710   -12.1070    -1.3290  H       1  <O>11       0.1738
  29 H3        5.0298    -8.8454    -5.0010  H       1  <O>11       0.0652
  30 H4        7.3746    -8.2360    -4.6716  H       1  <O>11       0.0619
  31 H5        8.5011    -8.9761    -2.6288  H       1  <O>11       0.0633
  32 H6        7.2644   -10.2093    -0.9597  H       1  <O>11       0.0830
  33 H7        1.3059    -9.2509    -6.5042  H       1  <O>11       0.0625
  34 H8       -1.0429    -9.8087    -6.8009  H       1  <O>11       0.0618
  35 H9       -2.2307   -11.0431    -5.0753  H       1  <O>11       0.0637
  36 H10      -2.8583   -13.3892    -0.8629  H       1  <O>11       0.0637
  37 H11      -3.6691   -14.5936     1.0806  H       1  <O>11       0.0618
  38 H12      -2.1703   -15.0696     2.9349  H       1  <O>11       0.0618
  39 H13       0.1437   -14.3347     2.8317  H       1  <O>11       0.0647
  40 H14       1.2865   -11.1716    -2.7547  H       1  <O>11       0.0645
@<TRIPOS>BOND
     1     1     2    2
     2     2     3   am
     3     3     4    1
     4     4     5   ar
     5     5     6   ar
     6     6     7   ar
     7     7     8   ar
     8     8     9   ar
     9     4     9   ar
    10     2    10    1
    11    10    11   ar
    12    11    12   ar
    13    12    13   ar
    14    13    14   ar
    15    14    15    1
    16    15    16    2
    17    15    17    2
    18    15    18    1
    19    18    19    1
    20    19    20   ar
    21    20    21   ar
    22    21    22   ar
    23    22    23   ar
    24    23    24   ar
    25    19    24   ar
    26    24    25    1
    27    14    26   ar
    28    10    26   ar
    29     3    27    1
    30    18    28    1
    31     5    29    1
    32     6    30    1
    33     7    31    1
    34     8    32    1
    35    11    33    1
    36    12    34    1
    37    13    35    1
    38    20    36    1
    39    21    37    1
    40    22    38    1
    41    23    39    1
    42    26    40    1
