@<TRIPOS>MOLECULE
mol11_1_1
 43 45 0 0 0
SMALL
USER_CHARGES
****
VDW energy = -58.57
@<TRIPOS>ATOM
   1 C1        7.0087    -1.2031    -0.3851  C.3     1  <O>11      -0.0643
   2 C2        8.2620    -0.3598    -0.4710  C.3     1  <O>11      -0.0407
   3 C3        9.3420    -1.1280    -1.2360  C.3     1  <O>11       0.0603
   4 C4        8.8535    -1.4347    -2.6115  C.2     1  <O>11       0.2207
   5 O1        7.9359    -0.7859    -3.0924  O.2     1  <O>11      -0.2751
   6 N1        9.4322    -2.4422    -3.3349  N.am    1  <O>11      -0.3091
   7 C5        8.9550    -2.7419    -4.6807  C.3     1  <O>11       0.0562
   8 C6        9.7363    -3.8610    -5.2429  C.ar    1  <O>11       0.0863
   9 N2       10.8510    -3.5152    -5.9308  N.ar    1  <O>11      -0.1737
  10 N3       11.5633    -4.4740    -6.5662  N.ar    1  <O>11      -0.2424
  11 C7       11.1472    -5.7607    -6.4897  C.ar    1  <O>11       0.2725
  12 O2       11.8762    -6.6933    -7.2512  O.2     1  <O>11      -0.2658
  13 C8       10.0614    -6.1853    -5.7120  C.ar    1  <O>11       0.0496
  14 C9        9.6609    -7.5353    -5.5840  C.ar    1  <O>11      -0.0487
  15 C10       8.5489    -7.8848    -4.8169  C.ar    1  <O>11      -0.0610
  16 C11       7.8140    -6.8987    -4.1721  C.ar    1  <O>11      -0.0611
  17 C12       8.1893    -5.5598    -4.2919  C.ar    1  <O>11      -0.0520
  18 C13       9.3193    -5.1855    -5.0581  C.ar    1  <O>11       0.0118
  19 C14       9.6456    -2.3965    -0.5230  C.ar    1  <O>11      -0.0355
  20 C15       8.9310    -3.5680    -0.8268  C.ar    1  <O>11      -0.0578
  21 C16       9.2078    -4.7591    -0.1467  C.ar    1  <O>11      -0.0615
  22 C17      10.2016    -4.7935     0.8357  C.ar    1  <O>11      -0.0617
  23 C18      10.9164    -3.6273     1.1331  C.ar    1  <O>11      -0.0615
  24 C19      10.6487    -2.4354     0.4585  C.ar    1  <O>11      -0.0578
  25 H1        6.2395    -0.6561     0.1599  H       1  <O>11       0.0230
  26 H2        7.2319    -2.1335     0.1369  H       1  <O>11       0.0230
  27 H3        6.6520    -1.4271    -1.3905  H       1  <O>11       0.0230
  28 H4        8.0389     0.5706    -0.9931  H       1  <O>11       0.0273
  29 H5        8.6188    -0.1358     0.5343  H       1  <O>11       0.0273
  30 H6       10.2446    -0.5204    -1.2978  H       1  <O>11       0.0443
  31 H7       10.1983    -2.9837    -2.9328  H       1  <O>11       0.1491
  32 H8        7.9025    -3.0187    -4.6399  H       1  <O>11       0.0528
  33 H9        9.0752    -1.8622    -5.3129  H       1  <O>11       0.0528
  34 H10      12.3933    -4.2309    -7.0893  H       1  <O>11       0.1921
  35 H11      10.1989    -8.2730    -6.0650  H       1  <O>11       0.0625
  36 H12       8.2729    -8.8752    -4.7289  H       1  <O>11       0.0618
  37 H13       6.9911    -7.1556    -3.6048  H       1  <O>11       0.0618
  38 H14       7.6348    -4.8319    -3.8148  H       1  <O>11       0.0624
  39 H15       8.1992    -3.5496    -1.5543  H       1  <O>11       0.0620
  40 H16       8.6765    -5.6149    -0.3711  H       1  <O>11       0.0618
  41 H17      10.4067    -5.6716     1.3376  H       1  <O>11       0.0618
  42 H18      11.6495    -3.6492     1.8591  H       1  <O>11       0.0618
  43 H19      11.1872    -1.5836     0.6808  H       1  <O>11       0.0620
@<TRIPOS>BOND
     1     1     2    1
     2     2     3    1
     3     3     4    1
     4     4     5    2
     5     4     6   am
     6     6     7    1
     7     7     8    1
     8     8     9   ar
     9     9    10   ar
    10    10    11   ar
    11    11    12    2
    12    11    13   ar
    13    13    14   ar
    14    14    15   ar
    15    15    16   ar
    16    16    17   ar
    17    17    18   ar
    18     8    18   ar
    19    13    18   ar
    20     3    19    1
    21    19    20   ar
    22    20    21   ar
    23    21    22   ar
    24    22    23   ar
    25    23    24   ar
    26    19    24   ar
    27     1    25    1
    28     1    26    1
    29     1    27    1
    30     2    28    1
    31     2    29    1
    32     3    30    1
    33     6    31    1
    34     7    32    1
    35     7    33    1
    36    10    34    1
    37    14    35    1
    38    15    36    1
    39    16    37    1
    40    17    38    1
    41    20    39    1
    42    21    40    1
    43    22    41    1
    44    23    42    1
    45    24    43    1
@<TRIPOS>MOLECULE
mol11_1_2
 43 45 0 0 0
SMALL
USER_CHARGES
****
VDW energy = -56.87
@<TRIPOS>ATOM
   1 C1        7.0087    -1.2031    -0.3851  C.3     1  <O>11      -0.0643
   2 C2        8.2620    -0.3598    -0.4710  C.3     1  <O>11      -0.0407
   3 C3        9.3420    -1.1280    -1.2360  C.3     1  <O>11       0.0603
   4 C4       10.5775    -0.2966    -1.3207  C.2     1  <O>11       0.2207
   5 O1       10.7503     0.6221    -0.5330  O.2     1  <O>11      -0.2751
   6 N1       11.5170    -0.5619    -2.2798  N.am    1  <O>11      -0.3091
   7 C5       12.7259     0.2508    -2.3623  C.3     1  <O>11       0.0562
   8 C6       13.5720    -0.2354    -3.4698  C.ar    1  <O>11       0.0863
   9 N2       13.0860    -1.2928    -4.1632  N.ar    1  <O>11      -0.1737
  10 N3       13.8485    -1.8641    -5.1238  N.ar    1  <O>11      -0.2424
  11 C7       15.0786    -1.3560    -5.3747  C.ar    1  <O>11       0.2725
  12 O2       15.8567    -2.0547    -6.3167  O.2     1  <O>11      -0.2658
  13 C8       15.5889    -0.2055    -4.7580  C.ar    1  <O>11       0.0496
  14 C9       16.8488     0.3605    -5.0605  C.ar    1  <O>11      -0.0487
  15 C10      17.3091     1.4910    -4.3843  C.ar    1  <O>11      -0.0610
  16 C11      16.5289     2.0713    -3.3929  C.ar    1  <O>11      -0.0611
  17 C12      15.2855     1.5231    -3.0750  C.ar    1  <O>11      -0.0520
  18 C13      14.7967     0.3819    -3.7554  C.ar    1  <O>11       0.0118
  19 C14       8.8547    -1.4334    -2.6067  C.ar    1  <O>11      -0.0355
  20 C15       8.1588    -2.6277    -2.8612  C.ar    1  <O>11      -0.0578
  21 C16       7.7113    -2.9212    -4.1540  C.ar    1  <O>11      -0.0615
  22 C17       7.9480    -2.0254    -5.2006  C.ar    1  <O>11      -0.0617
  23 C18       8.6362    -0.8337    -4.9445  C.ar    1  <O>11      -0.0615
  24 C19       9.0844    -0.5316    -3.6579  C.ar    1  <O>11      -0.0578
  25 H1        6.2395    -0.6561     0.1599  H       1  <O>11       0.0230
  26 H2        7.2319    -2.1335     0.1369  H       1  <O>11       0.0230
  27 H3        6.6520    -1.4271    -1.3905  H       1  <O>11       0.0230
  28 H4        8.0389     0.5706    -0.9931  H       1  <O>11       0.0273
  29 H5        8.6188    -0.1358     0.5343  H       1  <O>11       0.0273
  30 H6        9.5648    -2.0581    -0.7135  H       1  <O>11       0.0443
  31 H7       11.3720    -1.3290    -2.9373  H       1  <O>11       0.1491
  32 H8       12.4537     1.2898    -2.5428  H       1  <O>11       0.0528
  33 H9       13.2776     0.1771    -1.4252  H       1  <O>11       0.0528
  34 H10      13.5025    -2.6580    -5.6450  H       1  <O>11       0.1921
  35 H11      17.4366    -0.0687    -5.7921  H       1  <O>11       0.0625
  36 H12      18.2286     1.8955    -4.6207  H       1  <O>11       0.0618
  37 H13      16.8683     2.9071    -2.8916  H       1  <O>11       0.0618
  38 H14      14.7138     1.9561    -2.3330  H       1  <O>11       0.0624
  39 H15       7.9772    -3.2907    -2.0914  H       1  <O>11       0.0620
  40 H16       7.2049    -3.8019    -4.3353  H       1  <O>11       0.0618
  41 H17       7.6180    -2.2409    -6.1544  H       1  <O>11       0.0618
  42 H18       8.8140    -0.1713    -5.7156  H       1  <O>11       0.0618
  43 H19       9.5840     0.3536    -3.4794  H       1  <O>11       0.0620
@<TRIPOS>BOND
     1     1     2    1
     2     2     3    1
     3     3     4    1
     4     4     5    2
     5     4     6   am
     6     6     7    1
     7     7     8    1
     8     8     9   ar
     9     9    10   ar
    10    10    11   ar
    11    11    12    2
    12    11    13   ar
    13    13    14   ar
    14    14    15   ar
    15    15    16   ar
    16    16    17   ar
    17    17    18   ar
    18     8    18   ar
    19    13    18   ar
    20     3    19    1
    21    19    20   ar
    22    20    21   ar
    23    21    22   ar
    24    22    23   ar
    25    23    24   ar
    26    19    24   ar
    27     1    25    1
    28     1    26    1
    29     1    27    1
    30     2    28    1
    31     2    29    1
    32     3    30    1
    33     6    31    1
    34     7    32    1
    35     7    33    1
    36    10    34    1
    37    14    35    1
    38    15    36    1
    39    16    37    1
    40    17    38    1
    41    20    39    1
    42    21    40    1
    43    22    41    1
    44    23    42    1
    45    24    43    1
@<TRIPOS>MOLECULE
mol11_1_3
 43 45 0 0 0
SMALL
USER_CHARGES
****
VDW energy = -56.64
@<TRIPOS>ATOM
   1 C1        7.0087    -1.2031    -0.3851  C.3     1  <O>11      -0.0643
   2 C2        8.2620    -0.3598    -0.4710  C.3     1  <O>11      -0.0407
   3 C3        9.3420    -1.1280    -1.2360  C.3     1  <O>11       0.0603
   4 C4        8.8535    -1.4347    -2.6115  C.2     1  <O>11       0.2207
   5 O1        7.9359    -0.7859    -3.0924  O.2     1  <O>11      -0.2751
   6 N1        9.4322    -2.4422    -3.3349  N.am    1  <O>11      -0.3091
   7 C5        8.9550    -2.7419    -4.6807  C.3     1  <O>11       0.0562
   8 C6        9.1164    -1.5509    -5.5375  C.ar    1  <O>11       0.0863
   9 N2        8.0628    -0.6998    -5.5691  N.ar    1  <O>11      -0.1737
  10 N3        8.0897     0.3592    -6.4109  N.ar    1  <O>11      -0.2424
  11 C7        9.1773     0.5468    -7.1959  C.ar    1  <O>11       0.2725
  12 O2        9.1008     1.6091    -8.1160  O.2     1  <O>11      -0.2658
  13 C8       10.3327    -0.2438    -7.1314  C.ar    1  <O>11       0.0496
  14 C9       11.4916    -0.0144    -7.9082  C.ar    1  <O>11      -0.0487
  15 C10      12.5968    -0.8615    -7.8165  C.ar    1  <O>11      -0.0610
  16 C11      12.5645    -1.9526    -6.9582  C.ar    1  <O>11      -0.0611
  17 C12      11.4271    -2.1998    -6.1883  C.ar    1  <O>11      -0.0520
  18 C13      10.2990    -1.3474    -6.2603  C.ar    1  <O>11       0.0118
  19 C14       9.6456    -2.3965    -0.5230  C.ar    1  <O>11      -0.0355
  20 C15       8.9310    -3.5680    -0.8268  C.ar    1  <O>11      -0.0578
  21 C16       9.2078    -4.7591    -0.1467  C.ar    1  <O>11      -0.0615
  22 C17      10.2016    -4.7935     0.8357  C.ar    1  <O>11      -0.0617
  23 C18      10.9164    -3.6273     1.1331  C.ar    1  <O>11      -0.0615
  24 C19      10.6487    -2.4354     0.4585  C.ar    1  <O>11      -0.0578
  25 H1        6.2395    -0.6561     0.1599  H       1  <O>11       0.0230
  26 H2        7.2319    -2.1335     0.1369  H       1  <O>11       0.0230
  27 H3        6.6520    -1.4271    -1.3905  H       1  <O>11       0.0230
  28 H4        8.0389     0.5706    -0.9931  H       1  <O>11       0.0273
  29 H5        8.6188    -0.1358     0.5343  H       1  <O>11       0.0273
  30 H6       10.2446    -0.5204    -1.2978  H       1  <O>11       0.0443
  31 H7       10.1983    -2.9837    -2.9328  H       1  <O>11       0.1491
  32 H8        9.5313    -3.5679    -5.0952  H       1  <O>11       0.0528
  33 H9        7.9015    -3.0186    -4.6391  H       1  <O>11       0.0528
  34 H10       7.3084     0.9992    -6.4509  H       1  <O>11       0.1921
  35 H11      11.5207     0.7912    -8.5524  H       1  <O>11       0.0625
  36 H12      13.4374    -0.6772    -8.3861  H       1  <O>11       0.0618
  37 H13      13.3810    -2.5802    -6.8897  H       1  <O>11       0.0618
  38 H14      11.4079    -3.0160    -5.5572  H       1  <O>11       0.0624
  39 H15       8.1992    -3.5496    -1.5543  H       1  <O>11       0.0620
  40 H16       8.6765    -5.6149    -0.3711  H       1  <O>11       0.0618
  41 H17      10.4067    -5.6716     1.3376  H       1  <O>11       0.0618
  42 H18      11.6495    -3.6492     1.8591  H       1  <O>11       0.0618
  43 H19      11.1872    -1.5836     0.6808  H       1  <O>11       0.0620
@<TRIPOS>BOND
     1     1     2    1
     2     2     3    1
     3     3     4    1
     4     4     5    2
     5     4     6   am
     6     6     7    1
     7     7     8    1
     8     8     9   ar
     9     9    10   ar
    10    10    11   ar
    11    11    12    2
    12    11    13   ar
    13    13    14   ar
    14    14    15   ar
    15    15    16   ar
    16    16    17   ar
    17    17    18   ar
    18     8    18   ar
    19    13    18   ar
    20     3    19    1
    21    19    20   ar
    22    20    21   ar
    23    21    22   ar
    24    22    23   ar
    25    23    24   ar
    26    19    24   ar
    27     1    25    1
    28     1    26    1
    29     1    27    1
    30     2    28    1
    31     2    29    1
    32     3    30    1
    33     6    31    1
    34     7    32    1
    35     7    33    1
    36    10    34    1
    37    14    35    1
    38    15    36    1
    39    16    37    1
    40    17    38    1
    41    20    39    1
    42    21    40    1
    43    22    41    1
    44    23    42    1
    45    24    43    1
@<TRIPOS>MOLECULE
mol11_1_4
 43 45 0 0 0
SMALL
USER_CHARGES
****
VDW energy = -56.24
@<TRIPOS>ATOM
   1 C1        7.0087    -1.2031    -0.3851  C.3     1  <O>11      -0.0643
   2 C2        8.2620    -0.3598    -0.4710  C.3     1  <O>11      -0.0407
   3 C3        9.3420    -1.1280    -1.2360  C.3     1  <O>11       0.0603
   4 C4        9.6470    -2.4010    -0.5210  C.2     1  <O>11       0.2207
   5 O1        9.1542    -3.4510    -0.9066  O.2     1  <O>11      -0.2751
   6 N1       10.4780    -2.3934     0.5664  N.am    1  <O>11      -0.3091
   7 C5       10.7770    -3.6387     1.2655  C.3     1  <O>11       0.0562
   8 C6        9.5251    -4.2287     1.7788  C.ar    1  <O>11       0.0863
   9 N2        8.3933    -3.5328     1.5143  N.ar    1  <O>11      -0.1737
  10 N3        7.2187    -3.9506     2.0402  N.ar    1  <O>11      -0.2424
  11 C7        7.2036    -5.0633     2.8123  C.ar    1  <O>11       0.2725
  12 O2        5.9695    -5.3880     3.4060  O.2     1  <O>11      -0.2658
  13 C8        8.3246    -5.8744     3.0352  C.ar    1  <O>11       0.0496
  14 C9        8.2984    -7.0681     3.7925  C.ar    1  <O>11      -0.0487
  15 C10       9.4606    -7.8117     4.0013  C.ar    1  <O>11      -0.0610
  16 C11      10.6667    -7.3772     3.4679  C.ar    1  <O>11      -0.0611
  17 C12      10.7144    -6.1978     2.7233  C.ar    1  <O>11      -0.0520
  18 C13       9.5450    -5.4338     2.4927  C.ar    1  <O>11       0.0118
  19 C14      10.5730    -0.2990    -1.3200  C.ar    1  <O>11      -0.0355
  20 C15      11.7130    -0.7890    -1.9800  C.ar    1  <O>11      -0.0578
  21 C16      12.8760    -0.0140    -2.0480  C.ar    1  <O>11      -0.0615
  22 C17      12.9100     1.2560    -1.4650  C.ar    1  <O>11      -0.0617
  23 C18      11.7720     1.7450    -0.8130  C.ar    1  <O>11      -0.0615
  24 C19      10.6070     0.9800    -0.7420  C.ar    1  <O>11      -0.0578
  25 H1        6.2395    -0.6561     0.1599  H       1  <O>11       0.0230
  26 H2        7.2319    -2.1335     0.1369  H       1  <O>11       0.0230
  27 H3        6.6520    -1.4271    -1.3905  H       1  <O>11       0.0230
  28 H4        8.0389     0.5706    -0.9931  H       1  <O>11       0.0273
  29 H5        8.6188    -0.1358     0.5343  H       1  <O>11       0.0273
  30 H6        8.9850    -1.3520    -2.2410  H       1  <O>11       0.0443
  31 H7       10.8891    -1.5164     0.8880  H       1  <O>11       0.1491
  32 H8       11.2518    -4.3368     0.5775  H       1  <O>11       0.0528
  33 H9       11.4499    -3.4349     2.0985  H       1  <O>11       0.0528
  34 H10       6.3668    -3.4382     1.8577  H       1  <O>11       0.1921
  35 H11       7.4067    -7.3942     4.1968  H       1  <O>11       0.0625
  36 H12       9.4236    -8.6839     4.5518  H       1  <O>11       0.0618
  37 H13      11.5271    -7.9259     3.6219  H       1  <O>11       0.0618
  38 H14      11.6154    -5.8778     2.3350  H       1  <O>11       0.0624
  39 H15      11.6922    -1.7241    -2.4162  H       1  <O>11       0.0620
  40 H16      13.7113    -0.3812    -2.5301  H       1  <O>11       0.0618
  41 H17      13.7672     1.8285    -1.5149  H       1  <O>11       0.0618
  42 H18      11.7947     2.6815    -0.3801  H       1  <O>11       0.0618
  43 H19       9.7716     1.3539    -0.2653  H       1  <O>11       0.0620
@<TRIPOS>BOND
     1     1     2    1
     2     2     3    1
     3     3     4    1
     4     4     5    2
     5     4     6   am
     6     6     7    1
     7     7     8    1
     8     8     9   ar
     9     9    10   ar
    10    10    11   ar
    11    11    12    2
    12    11    13   ar
    13    13    14   ar
    14    14    15   ar
    15    15    16   ar
    16    16    17   ar
    17    17    18   ar
    18     8    18   ar
    19    13    18   ar
    20     3    19    1
    21    19    20   ar
    22    20    21   ar
    23    21    22   ar
    24    22    23   ar
    25    23    24   ar
    26    19    24   ar
    27     1    25    1
    28     1    26    1
    29     1    27    1
    30     2    28    1
    31     2    29    1
    32     3    30    1
    33     6    31    1
    34     7    32    1
    35     7    33    1
    36    10    34    1
    37    14    35    1
    38    15    36    1
    39    16    37    1
    40    17    38    1
    41    20    39    1
    42    21    40    1
    43    22    41    1
    44    23    42    1
    45    24    43    1
@<TRIPOS>MOLECULE
mol11_1_5
 43 45 0 0 0
SMALL
USER_CHARGES
****
VDW energy = -52.94
@<TRIPOS>ATOM
   1 C1        7.0087    -1.2031    -0.3851  C.3     1  <O>11      -0.0643
   2 C2        8.2620    -0.3598    -0.4710  C.3     1  <O>11      -0.0407
   3 C3        9.3420    -1.1280    -1.2360  C.3     1  <O>11       0.0603
   4 C4        8.8535    -1.4347    -2.6115  C.2     1  <O>11       0.2207
   5 O1        7.9359    -0.7859    -3.0924  O.2     1  <O>11      -0.2751
   6 N1        9.4322    -2.4422    -3.3349  N.am    1  <O>11      -0.3091
   7 C5        8.9550    -2.7419    -4.6807  C.3     1  <O>11       0.0562
   8 C6        9.7376    -3.8597    -5.2436  C.ar    1  <O>11       0.0863
   9 N2       10.7028    -4.3676    -4.4400  N.ar    1  <O>11      -0.1737
  10 N3       11.5329    -5.3218    -4.9207  N.ar    1  <O>11      -0.2424
  11 C7       11.3705    -5.7528    -6.1945  C.ar    1  <O>11       0.2725
  12 O2       12.3257    -6.6745    -6.6626  O.2     1  <O>11      -0.2658
  13 C8       10.3290    -5.3343    -7.0336  C.ar    1  <O>11       0.0496
  14 C9       10.1230    -5.8262    -8.3431  C.ar    1  <O>11      -0.0487
  15 C10       9.0826    -5.3416    -9.1369  C.ar    1  <O>11      -0.0610
  16 C11       8.2366    -4.3564    -8.6451  C.ar    1  <O>11      -0.0611
  17 C12       8.4279    -3.8531    -7.3576  C.ar    1  <O>11      -0.0520
  18 C13       9.4719    -4.3378    -6.5333  C.ar    1  <O>11       0.0118
  19 C14       9.6456    -2.3965    -0.5230  C.ar    1  <O>11      -0.0355
  20 C15      10.6494    -2.4336     0.4600  C.ar    1  <O>11      -0.0578
  21 C16      10.9440    -3.6305     1.1221  C.ar    1  <O>11      -0.0615
  22 C17      10.2375    -4.7968     0.8146  C.ar    1  <O>11      -0.0617
  23 C18       9.2341    -4.7570    -0.1606  C.ar    1  <O>11      -0.0615
  24 C19       8.9320    -3.5674    -0.8246  C.ar    1  <O>11      -0.0578
  25 H1        6.2395    -0.6561     0.1599  H       1  <O>11       0.0230
  26 H2        7.2319    -2.1335     0.1369  H       1  <O>11       0.0230
  27 H3        6.6520    -1.4271    -1.3905  H       1  <O>11       0.0230
  28 H4        8.0389     0.5706    -0.9931  H       1  <O>11       0.0273
  29 H5        8.6188    -0.1358     0.5343  H       1  <O>11       0.0273
  30 H6       10.2446    -0.5204    -1.2978  H       1  <O>11       0.0443
  31 H7       10.1983    -2.9837    -2.9328  H       1  <O>11       0.1491
  32 H8        7.9028    -3.0201    -4.6397  H       1  <O>11       0.0528
  33 H9        9.0739    -1.8617    -5.3125  H       1  <O>11       0.0528
  34 H10      12.2623    -5.7057    -4.3356  H       1  <O>11       0.1921
  35 H11      10.7513    -6.5543    -8.7174  H       1  <O>11       0.0625
  36 H12       8.9422    -5.7150   -10.0886  H       1  <O>11       0.0618
  37 H13       7.4671    -3.9967    -9.2312  H       1  <O>11       0.0618
  38 H14       7.7990    -3.1167    -7.0010  H       1  <O>11       0.0624
  39 H15      11.1712    -1.5746     0.6944  H       1  <O>11       0.0620
  40 H16      11.6853    -3.6523     1.8397  H       1  <O>11       0.0618
  41 H17      10.4539    -5.6800     1.3026  H       1  <O>11       0.0618
  42 H18       8.7121    -5.6169    -0.3910  H       1  <O>11       0.0618
  43 H19       8.1850    -3.5483    -1.5364  H       1  <O>11       0.0620
@<TRIPOS>BOND
     1     1     2    1
     2     2     3    1
     3     3     4    1
     4     4     5    2
     5     4     6   am
     6     6     7    1
     7     7     8    1
     8     8     9   ar
     9     9    10   ar
    10    10    11   ar
    11    11    12    2
    12    11    13   ar
    13    13    14   ar
    14    14    15   ar
    15    15    16   ar
    16    16    17   ar
    17    17    18   ar
    18     8    18   ar
    19    13    18   ar
    20     3    19    1
    21    19    20   ar
    22    20    21   ar
    23    21    22   ar
    24    22    23   ar
    25    23    24   ar
    26    19    24   ar
    27     1    25    1
    28     1    26    1
    29     1    27    1
    30     2    28    1
    31     2    29    1
    32     3    30    1
    33     6    31    1
    34     7    32    1
    35     7    33    1
    36    10    34    1
    37    14    35    1
    38    15    36    1
    39    16    37    1
    40    17    38    1
    41    20    39    1
    42    21    40    1
    43    22    41    1
    44    23    42    1
    45    24    43    1
@<TRIPOS>MOLECULE
mol11_1_6
 43 45 0 0 0
SMALL
USER_CHARGES
****
VDW energy = -51.19
@<TRIPOS>ATOM
   1 C1        7.0087    -1.2031    -0.3851  C.3     1  <O>11      -0.0643
   2 C2        8.2620    -0.3598    -0.4710  C.3     1  <O>11      -0.0407
   3 C3        9.3420    -1.1280    -1.2360  C.3     1  <O>11       0.0603
   4 C4        9.6470    -2.4010    -0.5210  C.2     1  <O>11       0.2207
   5 O1        8.8400    -2.8647     0.2714  O.2     1  <O>11      -0.2751
   6 N1       10.8299    -3.0495    -0.7518  N.am    1  <O>11      -0.3091
   7 C5       11.1282    -4.2951    -0.0530  C.3     1  <O>11       0.0562
   8 C6       12.4527    -4.7918    -0.4745  C.ar    1  <O>11       0.0863
   9 N2       12.4579    -5.6235    -1.5439  N.ar    1  <O>11      -0.1737
  10 N3       13.6178    -6.2051    -1.9271  N.ar    1  <O>11      -0.2424
  11 C7       14.7496    -5.9322    -1.2350  C.ar    1  <O>11       0.2725
  12 O2       15.9001    -6.6431    -1.6246  O.2     1  <O>11      -0.2658
  13 C8       14.8191    -5.0050    -0.1863  C.ar    1  <O>11       0.0496
  14 C9       16.0110    -4.6751     0.4992  C.ar    1  <O>11      -0.0487
  15 C10      16.0026    -3.7650     1.5569  C.ar    1  <O>11      -0.0610
  16 C11      14.8100    -3.1752     1.9544  C.ar    1  <O>11      -0.0611
  17 C12      13.6219    -3.4932     1.2949  C.ar    1  <O>11      -0.0520
  18 C13      13.6106    -4.4072     0.2138  C.ar    1  <O>11       0.0118
  19 C14      10.5730    -0.2990    -1.3200  C.ar    1  <O>11      -0.0355
  20 C15      11.5548    -0.3857    -0.3182  C.ar    1  <O>11      -0.0578
  21 C16      12.7076     0.4040    -0.3905  C.ar    1  <O>11      -0.0615
  22 C17      12.8936     1.2805    -1.4634  C.ar    1  <O>11      -0.0617
  23 C18      11.9175     1.3616    -2.4634  C.ar    1  <O>11      -0.0615
  24 C19      10.7656     0.5763    -2.4007  C.ar    1  <O>11      -0.0578
  25 H1        6.2395    -0.6561     0.1599  H       1  <O>11       0.0230
  26 H2        7.2319    -2.1335     0.1369  H       1  <O>11       0.0230
  27 H3        6.6520    -1.4271    -1.3905  H       1  <O>11       0.0230
  28 H4        8.0389     0.5706    -0.9931  H       1  <O>11       0.0273
  29 H5        8.6188    -0.1358     0.5343  H       1  <O>11       0.0273
  30 H6        8.9850    -1.3520    -2.2410  H       1  <O>11       0.0443
  31 H7       11.5035    -2.6618    -1.4134  H       1  <O>11       0.1491
  32 H8       11.1326    -4.1170     1.0214  H       1  <O>11       0.0528
  33 H9       10.3684    -5.0382    -0.2951  H       1  <O>11       0.0528
  34 H10      13.6365    -6.8334    -2.7187  H       1  <O>11       0.1921
  35 H11      16.9001    -5.1139     0.2130  H       1  <O>11       0.0625
  36 H12      16.8820    -3.5306     2.0434  H       1  <O>11       0.0618
  37 H13      14.8022    -2.5022     2.7368  H       1  <O>11       0.0618
  38 H14      12.7384    -3.0555     1.5996  H       1  <O>11       0.0624
  39 H15      11.4250    -1.0344     0.4740  H       1  <O>11       0.0620
  40 H16      13.4228     0.3392     0.3507  H       1  <O>11       0.0618
  41 H17      13.7436     1.8632    -1.5177  H       1  <O>11       0.0618
  42 H18      12.0512     2.0091    -3.2557  H       1  <O>11       0.0618
  43 H19      10.0563     0.6389    -3.1476  H       1  <O>11       0.0620
@<TRIPOS>BOND
     1     1     2    1
     2     2     3    1
     3     3     4    1
     4     4     5    2
     5     4     6   am
     6     6     7    1
     7     7     8    1
     8     8     9   ar
     9     9    10   ar
    10    10    11   ar
    11    11    12    2
    12    11    13   ar
    13    13    14   ar
    14    14    15   ar
    15    15    16   ar
    16    16    17   ar
    17    17    18   ar
    18     8    18   ar
    19    13    18   ar
    20     3    19    1
    21    19    20   ar
    22    20    21   ar
    23    21    22   ar
    24    22    23   ar
    25    23    24   ar
    26    19    24   ar
    27     1    25    1
    28     1    26    1
    29     1    27    1
    30     2    28    1
    31     2    29    1
    32     3    30    1
    33     6    31    1
    34     7    32    1
    35     7    33    1
    36    10    34    1
    37    14    35    1
    38    15    36    1
    39    16    37    1
    40    17    38    1
    41    20    39    1
    42    21    40    1
    43    22    41    1
    44    23    42    1
    45    24    43    1
@<TRIPOS>MOLECULE
mol11_1_7
 43 45 0 0 0
SMALL
USER_CHARGES
****
VDW energy = -46.66
@<TRIPOS>ATOM
   1 C1        7.0087    -1.2031    -0.3851  C.3     1  <O>11      -0.0643
   2 C2        8.2620    -0.3598    -0.4710  C.3     1  <O>11      -0.0407
   3 C3        9.3420    -1.1280    -1.2360  C.3     1  <O>11       0.0603
   4 C4        8.8535    -1.4347    -2.6115  C.2     1  <O>11       0.2207
   5 O1        8.7612    -2.5960    -2.9818  O.2     1  <O>11      -0.2751
   6 N1        8.5090    -0.4165    -3.4587  N.am    1  <O>11      -0.3091
   7 C5        8.0305    -0.7164    -4.8041  C.3     1  <O>11       0.0562
   8 C6        7.7263     0.5431    -5.5111  C.ar    1  <O>11       0.0863
   9 N2        6.4589     1.0027    -5.3785  N.ar    1  <O>11      -0.1737
  10 N3        6.0710     2.0927    -6.0801  N.ar    1  <O>11      -0.2424
  11 C7        6.9661     2.7038    -6.8924  C.ar    1  <O>11       0.2725
  12 O2        6.4724     3.7712    -7.6656  O.2     1  <O>11      -0.2658
  13 C8        8.3135     2.3307    -6.9902  C.ar    1  <O>11       0.0496
  14 C9        9.2635     3.0034    -7.7929  C.ar    1  <O>11      -0.0487
  15 C10      10.5839     2.5583    -7.8682  C.ar    1  <O>11      -0.0610
  16 C11      10.9783     1.4347    -7.1541  C.ar    1  <O>11      -0.0611
  17 C12      10.0537     0.7529    -6.3617  C.ar    1  <O>11      -0.0520
  18 C13       8.7118     1.1936    -6.2649  C.ar    1  <O>11       0.0118
  19 C14       9.6456    -2.3965    -0.5230  C.ar    1  <O>11      -0.0355
  20 C15       8.9310    -3.5680    -0.8268  C.ar    1  <O>11      -0.0578
  21 C16       9.2078    -4.7591    -0.1467  C.ar    1  <O>11      -0.0615
  22 C17      10.2016    -4.7935     0.8357  C.ar    1  <O>11      -0.0617
  23 C18      10.9164    -3.6273     1.1331  C.ar    1  <O>11      -0.0615
  24 C19      10.6487    -2.4354     0.4585  C.ar    1  <O>11      -0.0578
  25 H1        6.2395    -0.6561     0.1599  H       1  <O>11       0.0230
  26 H2        7.2319    -2.1335     0.1369  H       1  <O>11       0.0230
  27 H3        6.6520    -1.4271    -1.3905  H       1  <O>11       0.0230
  28 H4        8.0389     0.5706    -0.9931  H       1  <O>11       0.0273
  29 H5        8.6188    -0.1358     0.5343  H       1  <O>11       0.0273
  30 H6       10.2446    -0.5204    -1.2978  H       1  <O>11       0.0443
  31 H7        8.5865     0.5529    -3.1490  H       1  <O>11       0.1491
  32 H8        8.7987    -1.2625    -5.3498  H       1  <O>11       0.0528
  33 H9        7.1278    -1.3241    -4.7413  H       1  <O>11       0.0528
  34 H10       5.1267     2.4436    -5.9971  H       1  <O>11       0.1921
  35 H11       8.9762     3.8358    -8.3309  H       1  <O>11       0.0625
  36 H12      11.2666     3.0637    -8.4543  H       1  <O>11       0.0618
  37 H13      11.9544     1.1040    -7.2092  H       1  <O>11       0.0618
  38 H14      10.3525    -0.0849    -5.8384  H       1  <O>11       0.0624
  39 H15       8.1992    -3.5496    -1.5543  H       1  <O>11       0.0620
  40 H16       8.6765    -5.6149    -0.3711  H       1  <O>11       0.0618
  41 H17      10.4067    -5.6716     1.3376  H       1  <O>11       0.0618
  42 H18      11.6495    -3.6492     1.8591  H       1  <O>11       0.0618
  43 H19      11.1872    -1.5836     0.6808  H       1  <O>11       0.0620
@<TRIPOS>BOND
     1     1     2    1
     2     2     3    1
     3     3     4    1
     4     4     5    2
     5     4     6   am
     6     6     7    1
     7     7     8    1
     8     8     9   ar
     9     9    10   ar
    10    10    11   ar
    11    11    12    2
    12    11    13   ar
    13    13    14   ar
    14    14    15   ar
    15    15    16   ar
    16    16    17   ar
    17    17    18   ar
    18     8    18   ar
    19    13    18   ar
    20     3    19    1
    21    19    20   ar
    22    20    21   ar
    23    21    22   ar
    24    22    23   ar
    25    23    24   ar
    26    19    24   ar
    27     1    25    1
    28     1    26    1
    29     1    27    1
    30     2    28    1
    31     2    29    1
    32     3    30    1
    33     6    31    1
    34     7    32    1
    35     7    33    1
    36    10    34    1
    37    14    35    1
    38    15    36    1
    39    16    37    1
    40    17    38    1
    41    20    39    1
    42    21    40    1
    43    22    41    1
    44    23    42    1
    45    24    43    1
@<TRIPOS>MOLECULE
mol11_1_8
 43 45 0 0 0
SMALL
USER_CHARGES
****
VDW energy = -46.27
@<TRIPOS>ATOM
   1 C1        7.0087    -1.2031    -0.3851  C.3     1  <O>11      -0.0643
   2 C2        8.2620    -0.3598    -0.4710  C.3     1  <O>11      -0.0407
   3 C3        9.3420    -1.1280    -1.2360  C.3     1  <O>11       0.0603
   4 C4        8.8535    -1.4347    -2.6115  C.2     1  <O>11       0.2207
   5 O1        8.7612    -2.5960    -2.9818  O.2     1  <O>11      -0.2751
   6 N1        8.5090    -0.4165    -3.4587  N.am    1  <O>11      -0.3091
   7 C5        8.0305    -0.7164    -4.8041  C.3     1  <O>11       0.0562
   8 C6        6.8075    -1.5386    -4.7203  C.ar    1  <O>11       0.0863
   9 N2        6.9982    -2.8797    -4.7049  N.ar    1  <O>11      -0.1737
  10 N3        5.9252    -3.7034    -4.7363  N.ar    1  <O>11      -0.2424
  11 C7        4.6836    -3.1635    -4.7727  C.ar    1  <O>11       0.2725
  12 O2        3.6168    -4.0726    -4.9016  O.2     1  <O>11      -0.2658
  13 C8        4.4274    -1.7882    -4.6899  C.ar    1  <O>11       0.0496
  14 C9        3.1302    -1.2258    -4.6687  C.ar    1  <O>11      -0.0487
  15 C10       2.9477     0.1567    -4.6169  C.ar    1  <O>11      -0.0610
  16 C11       4.0499     1.0010    -4.5931  C.ar    1  <O>11      -0.0611
  17 C12       5.3383     0.4653    -4.6204  C.ar    1  <O>11      -0.0520
  18 C13       5.5448    -0.9346    -4.6641  C.ar    1  <O>11       0.0118
  19 C14       9.6456    -2.3965    -0.5230  C.ar    1  <O>11      -0.0355
  20 C15       8.9310    -3.5680    -0.8268  C.ar    1  <O>11      -0.0578
  21 C16       9.2078    -4.7591    -0.1467  C.ar    1  <O>11      -0.0615
  22 C17      10.2016    -4.7935     0.8357  C.ar    1  <O>11      -0.0617
  23 C18      10.9164    -3.6273     1.1331  C.ar    1  <O>11      -0.0615
  24 C19      10.6487    -2.4354     0.4585  C.ar    1  <O>11      -0.0578
  25 H1        6.2395    -0.6561     0.1599  H       1  <O>11       0.0230
  26 H2        7.2319    -2.1335     0.1369  H       1  <O>11       0.0230
  27 H3        6.6520    -1.4271    -1.3905  H       1  <O>11       0.0230
  28 H4        8.0389     0.5706    -0.9931  H       1  <O>11       0.0273
  29 H5        8.6188    -0.1358     0.5343  H       1  <O>11       0.0273
  30 H6       10.2446    -0.5204    -1.2978  H       1  <O>11       0.0443
  31 H7        8.5865     0.5529    -3.1490  H       1  <O>11       0.1491
  32 H8        7.8079     0.2130    -5.3262  H       1  <O>11       0.0528
  33 H9        8.7991    -1.2644    -5.3491  H       1  <O>11       0.0528
  34 H10       6.0514    -4.7063    -4.7323  H       1  <O>11       0.1921
  35 H11       2.3064    -1.8468    -4.6920  H       1  <O>11       0.0625
  36 H12       1.9944     0.5513    -4.5964  H       1  <O>11       0.0618
  37 H13       3.9165     2.0236    -4.5552  H       1  <O>11       0.0618
  38 H14       6.1527     1.0991    -4.6085  H       1  <O>11       0.0624
  39 H15       8.1992    -3.5496    -1.5543  H       1  <O>11       0.0620
  40 H16       8.6765    -5.6149    -0.3711  H       1  <O>11       0.0618
  41 H17      10.4067    -5.6716     1.3376  H       1  <O>11       0.0618
  42 H18      11.6495    -3.6492     1.8591  H       1  <O>11       0.0618
  43 H19      11.1872    -1.5836     0.6808  H       1  <O>11       0.0620
@<TRIPOS>BOND
     1     1     2    1
     2     2     3    1
     3     3     4    1
     4     4     5    2
     5     4     6   am
     6     6     7    1
     7     7     8    1
     8     8     9   ar
     9     9    10   ar
    10    10    11   ar
    11    11    12    2
    12    11    13   ar
    13    13    14   ar
    14    14    15   ar
    15    15    16   ar
    16    16    17   ar
    17    17    18   ar
    18     8    18   ar
    19    13    18   ar
    20     3    19    1
    21    19    20   ar
    22    20    21   ar
    23    21    22   ar
    24    22    23   ar
    25    23    24   ar
    26    19    24   ar
    27     1    25    1
    28     1    26    1
    29     1    27    1
    30     2    28    1
    31     2    29    1
    32     3    30    1
    33     6    31    1
    34     7    32    1
    35     7    33    1
    36    10    34    1
    37    14    35    1
    38    15    36    1
    39    16    37    1
    40    17    38    1
    41    20    39    1
    42    21    40    1
    43    22    41    1
    44    23    42    1
    45    24    43    1
@<TRIPOS>MOLECULE
mol11_1_9
 43 45 0 0 0
SMALL
USER_CHARGES
****
VDW energy = -44.98
@<TRIPOS>ATOM
   1 C1        7.0087    -1.2031    -0.3851  C.3     1  <O>11      -0.0643
   2 C2        8.2620    -0.3598    -0.4710  C.3     1  <O>11      -0.0407
   3 C3        9.3420    -1.1280    -1.2360  C.3     1  <O>11       0.0603
   4 C4        9.6470    -2.4010    -0.5210  C.2     1  <O>11       0.2207
   5 O1        9.1542    -3.4510    -0.9066  O.2     1  <O>11      -0.2751
   6 N1       10.4780    -2.3934     0.5664  N.am    1  <O>11      -0.3091
   7 C5       10.7770    -3.6387     1.2655  C.3     1  <O>11       0.0562
   8 C6       11.6906    -3.3644     2.3920  C.ar    1  <O>11       0.0863
   9 N2       12.8833    -4.0056     2.3538  N.ar    1  <O>11      -0.1737
  10 N3       13.7330    -3.8904     3.4005  N.ar    1  <O>11      -0.2424
  11 C7       13.3716    -3.1264     4.4589  C.ar    1  <O>11       0.2725
  12 O2       14.2565    -3.1266     5.5533  O.2     1  <O>11      -0.2658
  13 C8       12.1966    -2.3639     4.5065  C.ar    1  <O>11       0.0496
  14 C9       11.8454    -1.5200     5.5853  C.ar    1  <O>11      -0.0487
  15 C10      10.6427    -0.8123     5.5813  C.ar    1  <O>11      -0.0610
  16 C11       9.7681    -0.9380     4.5101  C.ar    1  <O>11      -0.0611
  17 C12      10.0937    -1.7715     3.4391  C.ar    1  <O>11      -0.0520
  18 C13      11.3127    -2.4910     3.4201  C.ar    1  <O>11       0.0118
  19 C14      10.5730    -0.2990    -1.3200  C.ar    1  <O>11      -0.0355
  20 C15      11.2249     0.1214    -0.1480  C.ar    1  <O>11      -0.0578
  21 C16      12.3764     0.9125    -0.2267  C.ar    1  <O>11      -0.0615
  22 C17      12.8899     1.2851    -1.4723  C.ar    1  <O>11      -0.0617
  23 C18      12.2428     0.8609    -2.6387  C.ar    1  <O>11      -0.0615
  24 C19      11.0951     0.0700    -2.5699  C.ar    1  <O>11      -0.0578
  25 H1        6.2395    -0.6561     0.1599  H       1  <O>11       0.0230
  26 H2        7.2319    -2.1335     0.1369  H       1  <O>11       0.0230
  27 H3        6.6520    -1.4271    -1.3905  H       1  <O>11       0.0230
  28 H4        8.0389     0.5706    -0.9931  H       1  <O>11       0.0273
  29 H5        8.6188    -0.1358     0.5343  H       1  <O>11       0.0273
  30 H6        8.9850    -1.3520    -2.2410  H       1  <O>11       0.0443
  31 H7       10.8891    -1.5164     0.8880  H       1  <O>11       0.1491
  32 H8        9.8534    -4.0733     1.6450  H       1  <O>11       0.0528
  33 H9       11.2511    -4.3373     0.5761  H       1  <O>11       0.0528
  34 H10      14.6236    -4.3683     3.3899  H       1  <O>11       0.1921
  35 H11      12.4879    -1.4261     6.3874  H       1  <O>11       0.0625
  36 H12      10.4036    -0.1961     6.3738  H       1  <O>11       0.0618
  37 H13       8.8781    -0.4156     4.5060  H       1  <O>11       0.0618
  38 H14       9.4360    -1.8646     2.6493  H       1  <O>11       0.0624
  39 H15      10.8529    -0.1545     0.7743  H       1  <O>11       0.0620
  40 H16      12.8479     1.2218     0.6375  H       1  <O>11       0.0618
  41 H17      13.7393     1.8683    -1.5314  H       1  <O>11       0.0618
  42 H18      12.6185     1.1360    -3.5596  H       1  <O>11       0.0618
  43 H19      10.6307    -0.2432    -3.4367  H       1  <O>11       0.0620
@<TRIPOS>BOND
     1     1     2    1
     2     2     3    1
     3     3     4    1
     4     4     5    2
     5     4     6   am
     6     6     7    1
     7     7     8    1
     8     8     9   ar
     9     9    10   ar
    10    10    11   ar
    11    11    12    2
    12    11    13   ar
    13    13    14   ar
    14    14    15   ar
    15    15    16   ar
    16    16    17   ar
    17    17    18   ar
    18     8    18   ar
    19    13    18   ar
    20     3    19    1
    21    19    20   ar
    22    20    21   ar
    23    21    22   ar
    24    22    23   ar
    25    23    24   ar
    26    19    24   ar
    27     1    25    1
    28     1    26    1
    29     1    27    1
    30     2    28    1
    31     2    29    1
    32     3    30    1
    33     6    31    1
    34     7    32    1
    35     7    33    1
    36    10    34    1
    37    14    35    1
    38    15    36    1
    39    16    37    1
    40    17    38    1
    41    20    39    1
    42    21    40    1
    43    22    41    1
    44    23    42    1
    45    24    43    1
@<TRIPOS>MOLECULE
mol11_1_10
 43 45 0 0 0
SMALL
USER_CHARGES
****
VDW energy = -42.01
@<TRIPOS>ATOM
   1 C1        7.0087    -1.2031    -0.3851  C.3     1  <O>11      -0.0643
   2 C2        8.2620    -0.3598    -0.4710  C.3     1  <O>11      -0.0407
   3 C3        9.3420    -1.1280    -1.2360  C.3     1  <O>11       0.0603
   4 C4        8.8535    -1.4347    -2.6115  C.2     1  <O>11       0.2207
   5 O1        8.7612    -2.5960    -2.9818  O.2     1  <O>11      -0.2751
   6 N1        8.5090    -0.4165    -3.4587  N.am    1  <O>11      -0.3091
   7 C5        8.0305    -0.7164    -4.8041  C.3     1  <O>11       0.0562
   8 C6        7.7263     0.5431    -5.5111  C.ar    1  <O>11       0.0863
   9 N2        7.9398     1.6809    -4.8076  N.ar    1  <O>11      -0.1737
  10 N3        7.5861     2.8708    -5.3460  N.ar    1  <O>11      -0.2424
  11 C7        7.0345     2.8941    -6.5828  C.ar    1  <O>11       0.2725
  12 O2        6.6014     4.1514    -7.0438  O.2     1  <O>11      -0.2658
  13 C8        6.8836     1.7598    -7.3920  C.ar    1  <O>11       0.0496
  14 C9        6.3621     1.7901    -8.7059  C.ar    1  <O>11      -0.0487
  15 C10       6.2097     0.6165    -9.4452  C.ar    1  <O>11      -0.0610
  16 C11       6.5655    -0.6047    -8.8882  C.ar    1  <O>11      -0.0611
  17 C12       7.0756    -0.6561    -7.5902  C.ar    1  <O>11      -0.0520
  18 C13       7.2461     0.5240    -6.8270  C.ar    1  <O>11       0.0118
  19 C14       9.6456    -2.3965    -0.5230  C.ar    1  <O>11      -0.0355
  20 C15      10.6494    -2.4336     0.4600  C.ar    1  <O>11      -0.0578
  21 C16      10.9440    -3.6305     1.1221  C.ar    1  <O>11      -0.0615
  22 C17      10.2375    -4.7968     0.8146  C.ar    1  <O>11      -0.0617
  23 C18       9.2341    -4.7570    -0.1606  C.ar    1  <O>11      -0.0615
  24 C19       8.9320    -3.5674    -0.8246  C.ar    1  <O>11      -0.0578
  25 H1        6.2395    -0.6561     0.1599  H       1  <O>11       0.0230
  26 H2        7.2319    -2.1335     0.1369  H       1  <O>11       0.0230
  27 H3        6.6520    -1.4271    -1.3905  H       1  <O>11       0.0230
  28 H4        8.0389     0.5706    -0.9931  H       1  <O>11       0.0273
  29 H5        8.6188    -0.1358     0.5343  H       1  <O>11       0.0273
  30 H6       10.2446    -0.5204    -1.2978  H       1  <O>11       0.0443
  31 H7        8.5865     0.5529    -3.1490  H       1  <O>11       0.1491
  32 H8        8.7987    -1.2625    -5.3498  H       1  <O>11       0.0528
  33 H9        7.1278    -1.3241    -4.7413  H       1  <O>11       0.0528
  34 H10       7.7327     3.7279    -4.8306  H       1  <O>11       0.1921
  35 H11       6.0902     2.6934    -9.1243  H       1  <O>11       0.0625
  36 H12       5.8328     0.6561   -10.4051  H       1  <O>11       0.0618
  37 H13       6.4529    -1.4736    -9.4336  H       1  <O>11       0.0618
  38 H14       7.3322    -1.5679    -7.1806  H       1  <O>11       0.0624
  39 H15      11.1712    -1.5746     0.6944  H       1  <O>11       0.0620
  40 H16      11.6853    -3.6523     1.8397  H       1  <O>11       0.0618
  41 H17      10.4539    -5.6800     1.3026  H       1  <O>11       0.0618
  42 H18       8.7121    -5.6169    -0.3910  H       1  <O>11       0.0618
  43 H19       8.1850    -3.5483    -1.5364  H       1  <O>11       0.0620
@<TRIPOS>BOND
     1     1     2    1
     2     2     3    1
     3     3     4    1
     4     4     5    2
     5     4     6   am
     6     6     7    1
     7     7     8    1
     8     8     9   ar
     9     9    10   ar
    10    10    11   ar
    11    11    12    2
    12    11    13   ar
    13    13    14   ar
    14    14    15   ar
    15    15    16   ar
    16    16    17   ar
    17    17    18   ar
    18     8    18   ar
    19    13    18   ar
    20     3    19    1
    21    19    20   ar
    22    20    21   ar
    23    21    22   ar
    24    22    23   ar
    25    23    24   ar
    26    19    24   ar
    27     1    25    1
    28     1    26    1
    29     1    27    1
    30     2    28    1
    31     2    29    1
    32     3    30    1
    33     6    31    1
    34     7    32    1
    35     7    33    1
    36    10    34    1
    37    14    35    1
    38    15    36    1
    39    16    37    1
    40    17    38    1
    41    20    39    1
    42    21    40    1
    43    22    41    1
    44    23    42    1
    45    24    43    1
@<TRIPOS>MOLECULE
mol11_1_11
 43 45 0 0 0
SMALL
USER_CHARGES
****
VDW energy = -41.00
@<TRIPOS>ATOM
   1 C1        7.0087    -1.2031    -0.3851  C.3     1  <O>11      -0.0643
   2 C2        8.2620    -0.3598    -0.4710  C.3     1  <O>11      -0.0407
   3 C3        9.3420    -1.1280    -1.2360  C.3     1  <O>11       0.0603
   4 C4        9.6470    -2.4010    -0.5210  C.2     1  <O>11       0.2207
   5 O1       10.7790    -2.6160    -0.1130  O.2     1  <O>11      -0.2751
   6 N1        8.6600    -3.3280    -0.3220  N.am    1  <O>11      -0.3091
   7 C5        8.9580    -4.5730     0.3780  C.3     1  <O>11       0.0562
   8 C6        7.7350    -5.3950     0.4640  C.ar    1  <O>11       0.0863
   9 N2        6.9659    -5.1953     1.5612  N.ar    1  <O>11      -0.1737
  10 N3        5.8852    -5.9829     1.7670  N.ar    1  <O>11      -0.2424
  11 C7        5.5939    -6.9479     0.8623  C.ar    1  <O>11       0.2725
  12 O2        4.5156    -7.7931     1.1844  O.2     1  <O>11      -0.2658
  13 C8        6.2959    -7.1317    -0.3367  C.ar    1  <O>11       0.0496
  14 C9        5.9577    -8.1000    -1.3099  C.ar    1  <O>11      -0.0487
  15 C10       6.7205    -8.2502    -2.4688  C.ar    1  <O>11      -0.0610
  16 C11       7.8341    -7.4466    -2.6746  C.ar    1  <O>11      -0.0611
  17 C12       8.1882    -6.4898    -1.7224  C.ar    1  <O>11      -0.0520
  18 C13       7.4224    -6.3158    -0.5444  C.ar    1  <O>11       0.0118
  19 C14      10.5730    -0.2990    -1.3200  C.ar    1  <O>11      -0.0355
  20 C15      11.2249     0.1214    -0.1480  C.ar    1  <O>11      -0.0578
  21 C16      12.3764     0.9125    -0.2267  C.ar    1  <O>11      -0.0615
  22 C17      12.8899     1.2851    -1.4723  C.ar    1  <O>11      -0.0617
  23 C18      12.2428     0.8609    -2.6387  C.ar    1  <O>11      -0.0615
  24 C19      11.0951     0.0700    -2.5699  C.ar    1  <O>11      -0.0578
  25 H1        6.2395    -0.6561     0.1599  H       1  <O>11       0.0230
  26 H2        7.2319    -2.1335     0.1369  H       1  <O>11       0.0230
  27 H3        6.6520    -1.4271    -1.3905  H       1  <O>11       0.0230
  28 H4        8.0389     0.5706    -0.9931  H       1  <O>11       0.0273
  29 H5        8.6188    -0.1358     0.5343  H       1  <O>11       0.0273
  30 H6        8.9850    -1.3520    -2.2410  H       1  <O>11       0.0443
  31 H7        7.7150    -3.1480    -0.6630  H       1  <O>11       0.1491
  32 H8        9.7260    -5.1210    -0.1660  H       1  <O>11       0.0528
  33 H9        9.3150    -4.3480     1.3830  H       1  <O>11       0.0528
  34 H10       5.3056    -5.8508     2.5845  H       1  <O>11       0.1921
  35 H11       5.1348    -8.7047    -1.1611  H       1  <O>11       0.0625
  36 H12       6.4572    -8.9578    -3.1722  H       1  <O>11       0.0618
  37 H13       8.3994    -7.5568    -3.5309  H       1  <O>11       0.0618
  38 H14       9.0205    -5.9003    -1.8792  H       1  <O>11       0.0624
  39 H15      10.8529    -0.1545     0.7743  H       1  <O>11       0.0620
  40 H16      12.8479     1.2218     0.6375  H       1  <O>11       0.0618
  41 H17      13.7393     1.8683    -1.5314  H       1  <O>11       0.0618
  42 H18      12.6185     1.1360    -3.5596  H       1  <O>11       0.0618
  43 H19      10.6307    -0.2432    -3.4367  H       1  <O>11       0.0620
@<TRIPOS>BOND
     1     1     2    1
     2     2     3    1
     3     3     4    1
     4     4     5    2
     5     4     6   am
     6     6     7    1
     7     7     8    1
     8     8     9   ar
     9     9    10   ar
    10    10    11   ar
    11    11    12    2
    12    11    13   ar
    13    13    14   ar
    14    14    15   ar
    15    15    16   ar
    16    16    17   ar
    17    17    18   ar
    18     8    18   ar
    19    13    18   ar
    20     3    19    1
    21    19    20   ar
    22    20    21   ar
    23    21    22   ar
    24    22    23   ar
    25    23    24   ar
    26    19    24   ar
    27     1    25    1
    28     1    26    1
    29     1    27    1
    30     2    28    1
    31     2    29    1
    32     3    30    1
    33     6    31    1
    34     7    32    1
    35     7    33    1
    36    10    34    1
    37    14    35    1
    38    15    36    1
    39    16    37    1
    40    17    38    1
    41    20    39    1
    42    21    40    1
    43    22    41    1
    44    23    42    1
    45    24    43    1
@<TRIPOS>MOLECULE
mol11_1_12
 43 45 0 0 0
SMALL
USER_CHARGES
****
VDW energy = -38.84
@<TRIPOS>ATOM
   1 C1        7.0087    -1.2031    -0.3851  C.3     1  <O>11      -0.0643
   2 C2        8.2620    -0.3598    -0.4710  C.3     1  <O>11      -0.0407
   3 C3        9.3420    -1.1280    -1.2360  C.3     1  <O>11       0.0603
   4 C4        9.6470    -2.4010    -0.5210  C.2     1  <O>11       0.2207
   5 O1       10.7790    -2.6160    -0.1130  O.2     1  <O>11      -0.2751
   6 N1        8.6600    -3.3280    -0.3220  N.am    1  <O>11      -0.3091
   7 C5        8.9580    -4.5730     0.3780  C.3     1  <O>11       0.0562
   8 C6        7.7350    -5.3950     0.4640  C.ar    1  <O>11       0.0863
   9 N2        7.3148    -5.6982     1.7157  N.ar    1  <O>11      -0.1737
  10 N3        6.2638    -6.5345     1.8790  N.ar    1  <O>11      -0.2424
  11 C7        5.6509    -7.0411     0.7826  C.ar    1  <O>11       0.2725
  12 O2        4.6286    -7.9782     1.0224  O.2     1  <O>11      -0.2658
  13 C8        5.9806    -6.6830    -0.5317  C.ar    1  <O>11       0.0496
  14 C9        5.3039    -7.1655    -1.6756  C.ar    1  <O>11      -0.0487
  15 C10       5.7058    -6.7917    -2.9586  C.ar    1  <O>11      -0.0610
  16 C11       6.7897    -5.9399    -3.1248  C.ar    1  <O>11      -0.0611
  17 C12       7.4749    -5.4585    -2.0083  C.ar    1  <O>11      -0.0520
  18 C13       7.0775    -5.8188    -0.6982  C.ar    1  <O>11       0.0118
  19 C14      10.5730    -0.2990    -1.3200  C.ar    1  <O>11      -0.0355
  20 C15      11.2249     0.1214    -0.1480  C.ar    1  <O>11      -0.0578
  21 C16      12.3764     0.9125    -0.2267  C.ar    1  <O>11      -0.0615
  22 C17      12.8899     1.2851    -1.4723  C.ar    1  <O>11      -0.0617
  23 C18      12.2428     0.8609    -2.6387  C.ar    1  <O>11      -0.0615
  24 C19      11.0951     0.0700    -2.5699  C.ar    1  <O>11      -0.0578
  25 H1        6.2395    -0.6561     0.1599  H       1  <O>11       0.0230
  26 H2        7.2319    -2.1335     0.1369  H       1  <O>11       0.0230
  27 H3        6.6520    -1.4271    -1.3905  H       1  <O>11       0.0230
  28 H4        8.0389     0.5706    -0.9931  H       1  <O>11       0.0273
  29 H5        8.6188    -0.1358     0.5343  H       1  <O>11       0.0273
  30 H6        8.9850    -1.3520    -2.2410  H       1  <O>11       0.0443
  31 H7        7.7150    -3.1480    -0.6630  H       1  <O>11       0.1491
  32 H8        9.7260    -5.1210    -0.1660  H       1  <O>11       0.0528
  33 H9        9.3150    -4.3480     1.3830  H       1  <O>11       0.0528
  34 H10       5.9429    -6.7757     2.8067  H       1  <O>11       0.1921
  35 H11       4.5010    -7.8035    -1.5600  H       1  <O>11       0.0625
  36 H12       5.1979    -7.1481    -3.7831  H       1  <O>11       0.0618
  37 H13       7.0884    -5.6630    -4.0730  H       1  <O>11       0.0618
  38 H14       8.2833    -4.8307    -2.1397  H       1  <O>11       0.0624
  39 H15      10.8529    -0.1545     0.7743  H       1  <O>11       0.0620
  40 H16      12.8479     1.2218     0.6375  H       1  <O>11       0.0618
  41 H17      13.7393     1.8683    -1.5314  H       1  <O>11       0.0618
  42 H18      12.6185     1.1360    -3.5596  H       1  <O>11       0.0618
  43 H19      10.6307    -0.2432    -3.4367  H       1  <O>11       0.0620
@<TRIPOS>BOND
     1     1     2    1
     2     2     3    1
     3     3     4    1
     4     4     5    2
     5     4     6   am
     6     6     7    1
     7     7     8    1
     8     8     9   ar
     9     9    10   ar
    10    10    11   ar
    11    11    12    2
    12    11    13   ar
    13    13    14   ar
    14    14    15   ar
    15    15    16   ar
    16    16    17   ar
    17    17    18   ar
    18     8    18   ar
    19    13    18   ar
    20     3    19    1
    21    19    20   ar
    22    20    21   ar
    23    21    22   ar
    24    22    23   ar
    25    23    24   ar
    26    19    24   ar
    27     1    25    1
    28     1    26    1
    29     1    27    1
    30     2    28    1
    31     2    29    1
    32     3    30    1
    33     6    31    1
    34     7    32    1
    35     7    33    1
    36    10    34    1
    37    14    35    1
    38    15    36    1
    39    16    37    1
    40    17    38    1
    41    20    39    1
    42    21    40    1
    43    22    41    1
    44    23    42    1
    45    24    43    1
@<TRIPOS>MOLECULE
mol11_1_13
 43 45 0 0 0
SMALL
USER_CHARGES
****
VDW energy = -36.75
@<TRIPOS>ATOM
   1 C1        7.0087    -1.2031    -0.3851  C.3     1  <O>11      -0.0643
   2 C2        8.2620    -0.3598    -0.4710  C.3     1  <O>11      -0.0407
   3 C3        9.3420    -1.1280    -1.2360  C.3     1  <O>11       0.0603
   4 C4        8.8535    -1.4347    -2.6115  C.2     1  <O>11       0.2207
   5 O1        8.7612    -2.5960    -2.9818  O.2     1  <O>11      -0.2751
   6 N1        8.5090    -0.4165    -3.4587  N.am    1  <O>11      -0.3091
   7 C5        8.0305    -0.7164    -4.8041  C.3     1  <O>11       0.0562
   8 C6        6.8075    -1.5386    -4.7203  C.ar    1  <O>11       0.0863
   9 N2        6.3852    -1.8420    -3.4694  N.ar    1  <O>11      -0.1737
  10 N3        5.3340    -2.6785    -3.3081  N.ar    1  <O>11      -0.2424
  11 C7        4.7231    -3.1850    -4.4056  C.ar    1  <O>11       0.2725
  12 O2        3.7005    -4.1223    -4.1678  O.2     1  <O>11      -0.2658
  13 C8        5.0550    -2.8266    -5.7193  C.ar    1  <O>11       0.0496
  14 C9        4.3803    -3.3090    -6.8644  C.ar    1  <O>11      -0.0487
  15 C10       4.7844    -2.9350    -8.1467  C.ar    1  <O>11      -0.0610
  16 C11       5.8685    -2.0830    -8.3108  C.ar    1  <O>11      -0.0611
  17 C12       6.5517    -1.6017    -7.1931  C.ar    1  <O>11      -0.0520
  18 C13       6.1521    -1.9623    -5.8837  C.ar    1  <O>11       0.0118
  19 C14       9.6456    -2.3965    -0.5230  C.ar    1  <O>11      -0.0355
  20 C15      10.6494    -2.4336     0.4600  C.ar    1  <O>11      -0.0578
  21 C16      10.9440    -3.6305     1.1221  C.ar    1  <O>11      -0.0615
  22 C17      10.2375    -4.7968     0.8146  C.ar    1  <O>11      -0.0617
  23 C18       9.2341    -4.7570    -0.1606  C.ar    1  <O>11      -0.0615
  24 C19       8.9320    -3.5674    -0.8246  C.ar    1  <O>11      -0.0578
  25 H1        6.2395    -0.6561     0.1599  H       1  <O>11       0.0230
  26 H2        7.2319    -2.1335     0.1369  H       1  <O>11       0.0230
  27 H3        6.6520    -1.4271    -1.3905  H       1  <O>11       0.0230
  28 H4        8.0389     0.5706    -0.9931  H       1  <O>11       0.0273
  29 H5        8.6188    -0.1358     0.5343  H       1  <O>11       0.0273
  30 H6       10.2446    -0.5204    -1.2978  H       1  <O>11       0.0443
  31 H7        8.5865     0.5529    -3.1490  H       1  <O>11       0.1491
  32 H8        7.8079     0.2130    -5.3262  H       1  <O>11       0.0528
  33 H9        8.7991    -1.2644    -5.3491  H       1  <O>11       0.0528
  34 H10       5.0115    -2.9199    -2.3810  H       1  <O>11       0.1921
  35 H11       3.5773    -3.9471    -6.7504  H       1  <O>11       0.0625
  36 H12       4.2780    -3.2913    -8.9722  H       1  <O>11       0.0618
  37 H13       6.1688    -1.8058    -9.2585  H       1  <O>11       0.0618
  38 H14       7.3603    -0.9737    -7.3230  H       1  <O>11       0.0624
  39 H15      11.1712    -1.5746     0.6944  H       1  <O>11       0.0620
  40 H16      11.6853    -3.6523     1.8397  H       1  <O>11       0.0618
  41 H17      10.4539    -5.6800     1.3026  H       1  <O>11       0.0618
  42 H18       8.7121    -5.6169    -0.3910  H       1  <O>11       0.0618
  43 H19       8.1850    -3.5483    -1.5364  H       1  <O>11       0.0620
@<TRIPOS>BOND
     1     1     2    1
     2     2     3    1
     3     3     4    1
     4     4     5    2
     5     4     6   am
     6     6     7    1
     7     7     8    1
     8     8     9   ar
     9     9    10   ar
    10    10    11   ar
    11    11    12    2
    12    11    13   ar
    13    13    14   ar
    14    14    15   ar
    15    15    16   ar
    16    16    17   ar
    17    17    18   ar
    18     8    18   ar
    19    13    18   ar
    20     3    19    1
    21    19    20   ar
    22    20    21   ar
    23    21    22   ar
    24    22    23   ar
    25    23    24   ar
    26    19    24   ar
    27     1    25    1
    28     1    26    1
    29     1    27    1
    30     2    28    1
    31     2    29    1
    32     3    30    1
    33     6    31    1
    34     7    32    1
    35     7    33    1
    36    10    34    1
    37    14    35    1
    38    15    36    1
    39    16    37    1
    40    17    38    1
    41    20    39    1
    42    21    40    1
    43    22    41    1
    44    23    42    1
    45    24    43    1
@<TRIPOS>MOLECULE
mol11_1_14
 43 45 0 0 0
SMALL
USER_CHARGES
****
VDW energy = -35.32
@<TRIPOS>ATOM
   1 C1        7.0087    -1.2031    -0.3851  C.3     1  <O>11      -0.0643
   2 C2        8.2620    -0.3598    -0.4710  C.3     1  <O>11      -0.0407
   3 C3        9.3420    -1.1280    -1.2360  C.3     1  <O>11       0.0603
   4 C4        9.6470    -2.4010    -0.5210  C.2     1  <O>11       0.2207
   5 O1       10.7790    -2.6160    -0.1130  O.2     1  <O>11      -0.2751
   6 N1        8.6600    -3.3280    -0.3220  N.am    1  <O>11      -0.3091
   7 C5        8.9580    -4.5730     0.3780  C.3     1  <O>11       0.0562
   8 C6        7.7350    -5.3950     0.4640  C.ar    1  <O>11       0.0863
   9 N2        6.6240    -4.8600    -0.0970  N.ar    1  <O>11      -0.1737
  10 N3        5.4400    -5.5020     0.0320  N.ar    1  <O>11      -0.2424
  11 C7        5.3980    -6.6720     0.7130  C.ar    1  <O>11       0.2725
  12 O2        4.1220    -7.2380     0.8930  O.2     1  <O>11      -0.2658
  13 C8        6.5310    -7.3180     1.2260  C.ar    1  <O>11       0.0496
  14 C9        6.4970    -8.5680     1.8860  C.ar    1  <O>11      -0.0487
  15 C10       7.6610    -9.1400     2.4010  C.ar    1  <O>11      -0.0610
  16 C11       8.8740    -8.4760     2.2750  C.ar    1  <O>11      -0.0611
  17 C12       8.9270    -7.2380     1.6330  C.ar    1  <O>11      -0.0520
  18 C13       7.7590    -6.6450     1.0960  C.ar    1  <O>11       0.0118
  19 C14      10.5730    -0.2990    -1.3200  C.ar    1  <O>11      -0.0355
  20 C15      11.2249     0.1214    -0.1480  C.ar    1  <O>11      -0.0578
  21 C16      12.3764     0.9125    -0.2267  C.ar    1  <O>11      -0.0615
  22 C17      12.8899     1.2851    -1.4723  C.ar    1  <O>11      -0.0617
  23 C18      12.2428     0.8609    -2.6387  C.ar    1  <O>11      -0.0615
  24 C19      11.0951     0.0700    -2.5699  C.ar    1  <O>11      -0.0578
  25 H1        6.2395    -0.6561     0.1599  H       1  <O>11       0.0230
  26 H2        7.2319    -2.1335     0.1369  H       1  <O>11       0.0230
  27 H3        6.6520    -1.4271    -1.3905  H       1  <O>11       0.0230
  28 H4        8.0389     0.5706    -0.9931  H       1  <O>11       0.0273
  29 H5        8.6188    -0.1358     0.5343  H       1  <O>11       0.0273
  30 H6        8.9850    -1.3520    -2.2410  H       1  <O>11       0.0443
  31 H7        7.7150    -3.1480    -0.6630  H       1  <O>11       0.1491
  32 H8        9.7260    -5.1210    -0.1660  H       1  <O>11       0.0528
  33 H9        9.3150    -4.3480     1.3830  H       1  <O>11       0.0528
  34 H10       4.6010    -5.1120    -0.3750  H       1  <O>11       0.1921
  35 H11       5.5982    -9.0646     1.9884  H       1  <O>11       0.0625
  36 H12       7.6203   -10.0557     2.8751  H       1  <O>11       0.0618
  37 H13       9.7356    -8.8976     2.6558  H       1  <O>11       0.0618
  38 H14       9.8310    -6.7475     1.5484  H       1  <O>11       0.0624
  39 H15      10.8529    -0.1545     0.7743  H       1  <O>11       0.0620
  40 H16      12.8479     1.2218     0.6375  H       1  <O>11       0.0618
  41 H17      13.7393     1.8683    -1.5314  H       1  <O>11       0.0618
  42 H18      12.6185     1.1360    -3.5596  H       1  <O>11       0.0618
  43 H19      10.6307    -0.2432    -3.4367  H       1  <O>11       0.0620
@<TRIPOS>BOND
     1     1     2    1
     2     2     3    1
     3     3     4    1
     4     4     5    2
     5     4     6   am
     6     6     7    1
     7     7     8    1
     8     8     9   ar
     9     9    10   ar
    10    10    11   ar
    11    11    12    2
    12    11    13   ar
    13    13    14   ar
    14    14    15   ar
    15    15    16   ar
    16    16    17   ar
    17    17    18   ar
    18     8    18   ar
    19    13    18   ar
    20     3    19    1
    21    19    20   ar
    22    20    21   ar
    23    21    22   ar
    24    22    23   ar
    25    23    24   ar
    26    19    24   ar
    27     1    25    1
    28     1    26    1
    29     1    27    1
    30     2    28    1
    31     2    29    1
    32     3    30    1
    33     6    31    1
    34     7    32    1
    35     7    33    1
    36    10    34    1
    37    14    35    1
    38    15    36    1
    39    16    37    1
    40    17    38    1
    41    20    39    1
    42    21    40    1
    43    22    41    1
    44    23    42    1
    45    24    43    1
@<TRIPOS>MOLECULE
mol11_1_15
 43 45 0 0 0
SMALL
USER_CHARGES
****
VDW energy = -35.26
@<TRIPOS>ATOM
   1 C1        7.0087    -1.2031    -0.3851  C.3     1  <O>11      -0.0643
   2 C2        8.2620    -0.3598    -0.4710  C.3     1  <O>11      -0.0407
   3 C3        9.3420    -1.1280    -1.2360  C.3     1  <O>11       0.0603
   4 C4        9.6470    -2.4010    -0.5210  C.2     1  <O>11       0.2207
   5 O1       10.7790    -2.6160    -0.1130  O.2     1  <O>11      -0.2751
   6 N1        8.6600    -3.3280    -0.3220  N.am    1  <O>11      -0.3091
   7 C5        8.9580    -4.5730     0.3780  C.3     1  <O>11       0.0562
   8 C6        9.9999    -5.3153    -0.3584  C.ar    1  <O>11       0.0863
   9 N2       10.4568    -4.7253    -1.4891  N.ar    1  <O>11      -0.1737
  10 N3       11.3343    -5.3891    -2.2765  N.ar    1  <O>11      -0.2424
  11 C7       11.7419    -6.6269    -1.9074  C.ar    1  <O>11       0.2725
  12 O2       12.5781    -7.3002    -2.8175  O.2     1  <O>11      -0.2658
  13 C8       11.3788    -7.2412    -0.7012  C.ar    1  <O>11       0.0496
  14 C9       11.8495    -8.5085    -0.2868  C.ar    1  <O>11      -0.0487
  15 C10      11.4216    -9.0758     0.9142  C.ar    1  <O>11      -0.0610
  16 C11      10.5147    -8.3969     1.7172  C.ar    1  <O>11      -0.0611
  17 C12      10.0332    -7.1481     1.3220  C.ar    1  <O>11      -0.0520
  18 C13      10.4616    -6.5515     0.1117  C.ar    1  <O>11       0.0118
  19 C14      10.5730    -0.2990    -1.3200  C.ar    1  <O>11      -0.0355
  20 C15      11.2249     0.1214    -0.1480  C.ar    1  <O>11      -0.0578
  21 C16      12.3764     0.9125    -0.2267  C.ar    1  <O>11      -0.0615
  22 C17      12.8899     1.2851    -1.4723  C.ar    1  <O>11      -0.0617
  23 C18      12.2428     0.8609    -2.6387  C.ar    1  <O>11      -0.0615
  24 C19      11.0951     0.0700    -2.5699  C.ar    1  <O>11      -0.0578
  25 H1        6.2395    -0.6561     0.1599  H       1  <O>11       0.0230
  26 H2        7.2319    -2.1335     0.1369  H       1  <O>11       0.0230
  27 H3        6.6520    -1.4271    -1.3905  H       1  <O>11       0.0230
  28 H4        8.0389     0.5706    -0.9931  H       1  <O>11       0.0273
  29 H5        8.6188    -0.1358     0.5343  H       1  <O>11       0.0273
  30 H6        8.9850    -1.3520    -2.2410  H       1  <O>11       0.0443
  31 H7        7.7150    -3.1480    -0.6630  H       1  <O>11       0.1491
  32 H8        9.3137    -4.3490     1.3827  H       1  <O>11       0.0528
  33 H9        8.0549    -5.1803     0.4392  H       1  <O>11       0.0528
  34 H10      11.6790    -4.9650    -3.1268  H       1  <O>11       0.1921
  35 H11      12.5192    -9.0214    -0.8812  H       1  <O>11       0.0625
  36 H12      11.7788    -9.9992     1.2053  H       1  <O>11       0.0618
  37 H13      10.1970    -8.8155     2.6054  H       1  <O>11       0.0618
  38 H14       9.3547    -6.6521     1.9209  H       1  <O>11       0.0624
  39 H15      10.8529    -0.1545     0.7743  H       1  <O>11       0.0620
  40 H16      12.8479     1.2218     0.6375  H       1  <O>11       0.0618
  41 H17      13.7393     1.8683    -1.5314  H       1  <O>11       0.0618
  42 H18      12.6185     1.1360    -3.5596  H       1  <O>11       0.0618
  43 H19      10.6307    -0.2432    -3.4367  H       1  <O>11       0.0620
@<TRIPOS>BOND
     1     1     2    1
     2     2     3    1
     3     3     4    1
     4     4     5    2
     5     4     6   am
     6     6     7    1
     7     7     8    1
     8     8     9   ar
     9     9    10   ar
    10    10    11   ar
    11    11    12    2
    12    11    13   ar
    13    13    14   ar
    14    14    15   ar
    15    15    16   ar
    16    16    17   ar
    17    17    18   ar
    18     8    18   ar
    19    13    18   ar
    20     3    19    1
    21    19    20   ar
    22    20    21   ar
    23    21    22   ar
    24    22    23   ar
    25    23    24   ar
    26    19    24   ar
    27     1    25    1
    28     1    26    1
    29     1    27    1
    30     2    28    1
    31     2    29    1
    32     3    30    1
    33     6    31    1
    34     7    32    1
    35     7    33    1
    36    10    34    1
    37    14    35    1
    38    15    36    1
    39    16    37    1
    40    17    38    1
    41    20    39    1
    42    21    40    1
    43    22    41    1
    44    23    42    1
    45    24    43    1
@<TRIPOS>MOLECULE
mol11_1_16
 43 45 0 0 0
SMALL
USER_CHARGES
****
VDW energy = -28.57
@<TRIPOS>ATOM
   1 C1        7.0087    -1.2031    -0.3851  C.3     1  <O>11      -0.0643
   2 C2        8.2620    -0.3598    -0.4710  C.3     1  <O>11      -0.0407
   3 C3        9.3420    -1.1280    -1.2360  C.3     1  <O>11       0.0603
   4 C4        9.6470    -2.4010    -0.5210  C.2     1  <O>11       0.2207
   5 O1       10.7790    -2.6160    -0.1130  O.2     1  <O>11      -0.2751
   6 N1        8.6600    -3.3280    -0.3220  N.am    1  <O>11      -0.3091
   7 C5        8.9580    -4.5730     0.3780  C.3     1  <O>11       0.0562
   8 C6        9.9999    -5.3153    -0.3584  C.ar    1  <O>11       0.0863
   9 N2       10.4568    -4.7253    -1.4891  N.ar    1  <O>11      -0.1737
  10 N3       11.3343    -5.3891    -2.2765  N.ar    1  <O>11      -0.2424
  11 C7       11.7419    -6.6269    -1.9074  C.ar    1  <O>11       0.2725
  12 O2       12.5781    -7.3002    -2.8175  O.2     1  <O>11      -0.2658
  13 C8       11.3788    -7.2412    -0.7012  C.ar    1  <O>11       0.0496
  14 C9       11.8495    -8.5085    -0.2868  C.ar    1  <O>11      -0.0487
  15 C10      11.4216    -9.0758     0.9142  C.ar    1  <O>11      -0.0610
  16 C11      10.5147    -8.3969     1.7172  C.ar    1  <O>11      -0.0611
  17 C12      10.0332    -7.1481     1.3220  C.ar    1  <O>11      -0.0520
  18 C13      10.4616    -6.5515     0.1117  C.ar    1  <O>11       0.0118
  19 C14      10.5730    -0.2990    -1.3200  C.ar    1  <O>11      -0.0355
  20 C15      11.7130    -0.7890    -1.9800  C.ar    1  <O>11      -0.0578
  21 C16      12.8760    -0.0140    -2.0480  C.ar    1  <O>11      -0.0615
  22 C17      12.9100     1.2560    -1.4650  C.ar    1  <O>11      -0.0617
  23 C18      11.7720     1.7450    -0.8130  C.ar    1  <O>11      -0.0615
  24 C19      10.6070     0.9800    -0.7420  C.ar    1  <O>11      -0.0578
  25 H1        6.2395    -0.6561     0.1599  H       1  <O>11       0.0230
  26 H2        7.2319    -2.1335     0.1369  H       1  <O>11       0.0230
  27 H3        6.6520    -1.4271    -1.3905  H       1  <O>11       0.0230
  28 H4        8.0389     0.5706    -0.9931  H       1  <O>11       0.0273
  29 H5        8.6188    -0.1358     0.5343  H       1  <O>11       0.0273
  30 H6        8.9850    -1.3520    -2.2410  H       1  <O>11       0.0443
  31 H7        7.7150    -3.1480    -0.6630  H       1  <O>11       0.1491
  32 H8        9.3137    -4.3490     1.3827  H       1  <O>11       0.0528
  33 H9        8.0549    -5.1803     0.4392  H       1  <O>11       0.0528
  34 H10      11.6790    -4.9650    -3.1268  H       1  <O>11       0.1921
  35 H11      12.5192    -9.0214    -0.8812  H       1  <O>11       0.0625
  36 H12      11.7788    -9.9992     1.2053  H       1  <O>11       0.0618
  37 H13      10.1970    -8.8155     2.6054  H       1  <O>11       0.0618
  38 H14       9.3547    -6.6521     1.9209  H       1  <O>11       0.0624
  39 H15      11.6922    -1.7241    -2.4162  H       1  <O>11       0.0620
  40 H16      13.7113    -0.3812    -2.5301  H       1  <O>11       0.0618
  41 H17      13.7672     1.8285    -1.5149  H       1  <O>11       0.0618
  42 H18      11.7947     2.6815    -0.3801  H       1  <O>11       0.0618
  43 H19       9.7716     1.3539    -0.2653  H       1  <O>11       0.0620
@<TRIPOS>BOND
     1     1     2    1
     2     2     3    1
     3     3     4    1
     4     4     5    2
     5     4     6   am
     6     6     7    1
     7     7     8    1
     8     8     9   ar
     9     9    10   ar
    10    10    11   ar
    11    11    12    2
    12    11    13   ar
    13    13    14   ar
    14    14    15   ar
    15    15    16   ar
    16    16    17   ar
    17    17    18   ar
    18     8    18   ar
    19    13    18   ar
    20     3    19    1
    21    19    20   ar
    22    20    21   ar
    23    21    22   ar
    24    22    23   ar
    25    23    24   ar
    26    19    24   ar
    27     1    25    1
    28     1    26    1
    29     1    27    1
    30     2    28    1
    31     2    29    1
    32     3    30    1
    33     6    31    1
    34     7    32    1
    35     7    33    1
    36    10    34    1
    37    14    35    1
    38    15    36    1
    39    16    37    1
    40    17    38    1
    41    20    39    1
    42    21    40    1
    43    22    41    1
    44    23    42    1
    45    24    43    1
@<TRIPOS>MOLECULE
mol11_1_17
 43 45 0 0 0
SMALL
USER_CHARGES
****
VDW energy = -28.45
@<TRIPOS>ATOM
   1 C1        7.0087    -1.2031    -0.3851  C.3     1  <O>11      -0.0643
   2 C2        8.2620    -0.3598    -0.4710  C.3     1  <O>11      -0.0407
   3 C3        9.3420    -1.1280    -1.2360  C.3     1  <O>11       0.0603
   4 C4        9.6470    -2.4010    -0.5210  C.2     1  <O>11       0.2207
   5 O1       10.7790    -2.6160    -0.1130  O.2     1  <O>11      -0.2751
   6 N1        8.6600    -3.3280    -0.3220  N.am    1  <O>11      -0.3091
   7 C5        8.9580    -4.5730     0.3780  C.3     1  <O>11       0.0562
   8 C6        7.7350    -5.3950     0.4640  C.ar    1  <O>11       0.0863
   9 N2        6.6240    -4.8600    -0.0970  N.ar    1  <O>11      -0.1737
  10 N3        5.4400    -5.5020     0.0320  N.ar    1  <O>11      -0.2424
  11 C7        5.3980    -6.6720     0.7130  C.ar    1  <O>11       0.2725
  12 O2        4.1220    -7.2380     0.8930  O.2     1  <O>11      -0.2658
  13 C8        6.5310    -7.3180     1.2260  C.ar    1  <O>11       0.0496
  14 C9        6.4970    -8.5680     1.8860  C.ar    1  <O>11      -0.0487
  15 C10       7.6610    -9.1400     2.4010  C.ar    1  <O>11      -0.0610
  16 C11       8.8740    -8.4760     2.2750  C.ar    1  <O>11      -0.0611
  17 C12       8.9270    -7.2380     1.6330  C.ar    1  <O>11      -0.0520
  18 C13       7.7590    -6.6450     1.0960  C.ar    1  <O>11       0.0118
  19 C14      10.5730    -0.2990    -1.3200  C.ar    1  <O>11      -0.0355
  20 C15      11.7130    -0.7890    -1.9800  C.ar    1  <O>11      -0.0578
  21 C16      12.8760    -0.0140    -2.0480  C.ar    1  <O>11      -0.0615
  22 C17      12.9100     1.2560    -1.4650  C.ar    1  <O>11      -0.0617
  23 C18      11.7720     1.7450    -0.8130  C.ar    1  <O>11      -0.0615
  24 C19      10.6070     0.9800    -0.7420  C.ar    1  <O>11      -0.0578
  25 H1        6.2395    -0.6561     0.1599  H       1  <O>11       0.0230
  26 H2        7.2319    -2.1335     0.1369  H       1  <O>11       0.0230
  27 H3        6.6520    -1.4271    -1.3905  H       1  <O>11       0.0230
  28 H4        8.0389     0.5706    -0.9931  H       1  <O>11       0.0273
  29 H5        8.6188    -0.1358     0.5343  H       1  <O>11       0.0273
  30 H6        8.9850    -1.3520    -2.2410  H       1  <O>11       0.0443
  31 H7        7.7150    -3.1480    -0.6630  H       1  <O>11       0.1491
  32 H8        9.7260    -5.1210    -0.1660  H       1  <O>11       0.0528
  33 H9        9.3150    -4.3480     1.3830  H       1  <O>11       0.0528
  34 H10       4.6010    -5.1120    -0.3750  H       1  <O>11       0.1921
  35 H11       5.5982    -9.0646     1.9884  H       1  <O>11       0.0625
  36 H12       7.6203   -10.0557     2.8751  H       1  <O>11       0.0618
  37 H13       9.7356    -8.8976     2.6558  H       1  <O>11       0.0618
  38 H14       9.8310    -6.7475     1.5484  H       1  <O>11       0.0624
  39 H15      11.6922    -1.7241    -2.4162  H       1  <O>11       0.0620
  40 H16      13.7113    -0.3812    -2.5301  H       1  <O>11       0.0618
  41 H17      13.7672     1.8285    -1.5149  H       1  <O>11       0.0618
  42 H18      11.7947     2.6815    -0.3801  H       1  <O>11       0.0618
  43 H19       9.7716     1.3539    -0.2653  H       1  <O>11       0.0620
@<TRIPOS>BOND
     1     1     2    1
     2     2     3    1
     3     3     4    1
     4     4     5    2
     5     4     6   am
     6     6     7    1
     7     7     8    1
     8     8     9   ar
     9     9    10   ar
    10    10    11   ar
    11    11    12    2
    12    11    13   ar
    13    13    14   ar
    14    14    15   ar
    15    15    16   ar
    16    16    17   ar
    17    17    18   ar
    18     8    18   ar
    19    13    18   ar
    20     3    19    1
    21    19    20   ar
    22    20    21   ar
    23    21    22   ar
    24    22    23   ar
    25    23    24   ar
    26    19    24   ar
    27     1    25    1
    28     1    26    1
    29     1    27    1
    30     2    28    1
    31     2    29    1
    32     3    30    1
    33     6    31    1
    34     7    32    1
    35     7    33    1
    36    10    34    1
    37    14    35    1
    38    15    36    1
    39    16    37    1
    40    17    38    1
    41    20    39    1
    42    21    40    1
    43    22    41    1
    44    23    42    1
    45    24    43    1
@<TRIPOS>MOLECULE
mol11_1_18
 43 45 0 0 0
SMALL
USER_CHARGES
****
VDW energy = -27.95
@<TRIPOS>ATOM
   1 C1        7.0087    -1.2031    -0.3851  C.3     1  <O>11      -0.0643
   2 C2        8.2620    -0.3598    -0.4710  C.3     1  <O>11      -0.0407
   3 C3        9.3420    -1.1280    -1.2360  C.3     1  <O>11       0.0603
   4 C4        9.6470    -2.4010    -0.5210  C.2     1  <O>11       0.2207
   5 O1       10.7790    -2.6160    -0.1130  O.2     1  <O>11      -0.2751
   6 N1        8.6600    -3.3280    -0.3220  N.am    1  <O>11      -0.3091
   7 C5        8.9580    -4.5730     0.3780  C.3     1  <O>11       0.0562
   8 C6        9.4407    -4.2696     1.7395  C.ar    1  <O>11       0.0863
   9 N2        9.5108    -2.9555     2.0613  N.ar    1  <O>11      -0.1737
  10 N3       10.0424    -2.5906     3.2508  N.ar    1  <O>11      -0.2424
  11 C7       10.4835    -3.5527     4.0960  C.ar    1  <O>11       0.2725
  12 O2       11.1122    -3.1027     5.2721  O.2     1  <O>11      -0.2658
  13 C8       10.3441    -4.9264     3.8563  C.ar    1  <O>11       0.0496
  14 C9       10.7507    -5.9322     4.7631  C.ar    1  <O>11      -0.0487
  15 C10      10.6110    -7.2840     4.4462  C.ar    1  <O>11      -0.0610
  16 C11      10.0727    -7.6568     3.2217  C.ar    1  <O>11      -0.0611
  17 C12       9.6719    -6.6789     2.3103  C.ar    1  <O>11      -0.0520
  18 C13       9.7972    -5.3023     2.6163  C.ar    1  <O>11       0.0118
  19 C14      10.5730    -0.2990    -1.3200  C.ar    1  <O>11      -0.0355
  20 C15      11.7130    -0.7890    -1.9800  C.ar    1  <O>11      -0.0578
  21 C16      12.8760    -0.0140    -2.0480  C.ar    1  <O>11      -0.0615
  22 C17      12.9100     1.2560    -1.4650  C.ar    1  <O>11      -0.0617
  23 C18      11.7720     1.7450    -0.8130  C.ar    1  <O>11      -0.0615
  24 C19      10.6070     0.9800    -0.7420  C.ar    1  <O>11      -0.0578
  25 H1        6.2395    -0.6561     0.1599  H       1  <O>11       0.0230
  26 H2        7.2319    -2.1335     0.1369  H       1  <O>11       0.0230
  27 H3        6.6520    -1.4271    -1.3905  H       1  <O>11       0.0230
  28 H4        8.0389     0.5706    -0.9931  H       1  <O>11       0.0273
  29 H5        8.6188    -0.1358     0.5343  H       1  <O>11       0.0273
  30 H6        8.9850    -1.3520    -2.2410  H       1  <O>11       0.0443
  31 H7        7.7150    -3.1480    -0.6630  H       1  <O>11       0.1491
  32 H8        8.0560    -5.1802     0.4397  H       1  <O>11       0.0528
  33 H9        9.7279    -5.1201    -0.1661  H       1  <O>11       0.0528
  34 H10      10.1080    -1.6138     3.5024  H       1  <O>11       0.1921
  35 H11      11.1568    -5.6626     5.6727  H       1  <O>11       0.0625
  36 H12      10.9074    -8.0059     5.1214  H       1  <O>11       0.0618
  37 H13       9.9692    -8.6561     2.9858  H       1  <O>11       0.0618
  38 H14       9.2784    -6.9634     1.3997  H       1  <O>11       0.0624
  39 H15      11.6922    -1.7241    -2.4162  H       1  <O>11       0.0620
  40 H16      13.7113    -0.3812    -2.5301  H       1  <O>11       0.0618
  41 H17      13.7672     1.8285    -1.5149  H       1  <O>11       0.0618
  42 H18      11.7947     2.6815    -0.3801  H       1  <O>11       0.0618
  43 H19       9.7716     1.3539    -0.2653  H       1  <O>11       0.0620
@<TRIPOS>BOND
     1     1     2    1
     2     2     3    1
     3     3     4    1
     4     4     5    2
     5     4     6   am
     6     6     7    1
     7     7     8    1
     8     8     9   ar
     9     9    10   ar
    10    10    11   ar
    11    11    12    2
    12    11    13   ar
    13    13    14   ar
    14    14    15   ar
    15    15    16   ar
    16    16    17   ar
    17    17    18   ar
    18     8    18   ar
    19    13    18   ar
    20     3    19    1
    21    19    20   ar
    22    20    21   ar
    23    21    22   ar
    24    22    23   ar
    25    23    24   ar
    26    19    24   ar
    27     1    25    1
    28     1    26    1
    29     1    27    1
    30     2    28    1
    31     2    29    1
    32     3    30    1
    33     6    31    1
    34     7    32    1
    35     7    33    1
    36    10    34    1
    37    14    35    1
    38    15    36    1
    39    16    37    1
    40    17    38    1
    41    20    39    1
    42    21    40    1
    43    22    41    1
    44    23    42    1
    45    24    43    1
@<TRIPOS>MOLECULE
mol11_1_19
 43 45 0 0 0
SMALL
USER_CHARGES
****
VDW energy = -22.71
@<TRIPOS>ATOM
   1 C1        7.0087    -1.2031    -0.3851  C.3     1  <O>11      -0.0643
   2 C2        8.2620    -0.3598    -0.4710  C.3     1  <O>11      -0.0407
   3 C3        9.3420    -1.1280    -1.2360  C.3     1  <O>11       0.0603
   4 C4        9.6470    -2.4010    -0.5210  C.2     1  <O>11       0.2207
   5 O1       10.7790    -2.6160    -0.1130  O.2     1  <O>11      -0.2751
   6 N1        8.6600    -3.3280    -0.3219  N.am    1  <O>11      -0.3091
   7 C5        8.9581    -4.5730     0.3781  C.3     1  <O>11       0.0562
   8 C6        7.7351    -5.3950     0.4641  C.ar    1  <O>11       0.0863
   9 N2        6.9660    -5.1952     1.5614  N.ar    1  <O>11      -0.1737
  10 N3        5.8853    -5.9829     1.7671  N.ar    1  <O>11      -0.2424
  11 C7        5.5940    -6.9479     0.8625  C.ar    1  <O>11       0.2725
  12 O2        4.5157    -7.7931     1.1846  O.2     1  <O>11      -0.2658
  13 C8        6.2960    -7.1317    -0.3365  C.ar    1  <O>11       0.0496
  14 C9        5.9578    -8.1001    -1.3097  C.ar    1  <O>11      -0.0487
  15 C10       6.7206    -8.2502    -2.4686  C.ar    1  <O>11      -0.0610
  16 C11       7.8341    -7.4467    -2.6744  C.ar    1  <O>11      -0.0611
  17 C12       8.1882    -6.4898    -1.7222  C.ar    1  <O>11      -0.0520
  18 C13       7.4225    -6.3158    -0.5443  C.ar    1  <O>11       0.0118
  19 C14      10.5730    -0.2990    -1.3200  C.ar    1  <O>11      -0.0355
  20 C15      11.5548    -0.3857    -0.3182  C.ar    1  <O>11      -0.0578
  21 C16      12.7076     0.4040    -0.3905  C.ar    1  <O>11      -0.0615
  22 C17      12.8936     1.2805    -1.4634  C.ar    1  <O>11      -0.0617
  23 C18      11.9175     1.3616    -2.4634  C.ar    1  <O>11      -0.0615
  24 C19      10.7656     0.5763    -2.4007  C.ar    1  <O>11      -0.0578
  25 H1        6.2395    -0.6561     0.1599  H       1  <O>11       0.0230
  26 H2        7.2319    -2.1335     0.1369  H       1  <O>11       0.0230
  27 H3        6.6520    -1.4271    -1.3905  H       1  <O>11       0.0230
  28 H4        8.0389     0.5706    -0.9931  H       1  <O>11       0.0273
  29 H5        8.6188    -0.1358     0.5343  H       1  <O>11       0.0273
  30 H6        8.9850    -1.3520    -2.2410  H       1  <O>11       0.0443
  31 H7        7.7150    -3.1480    -0.6629  H       1  <O>11       0.1491
  32 H8        9.7261    -5.1210    -0.1659  H       1  <O>11       0.0528
  33 H9        9.3151    -4.3479     1.3831  H       1  <O>11       0.0528
  34 H10       5.3058    -5.8507     2.5846  H       1  <O>11       0.1921
  35 H11       5.1349    -8.7047    -1.1609  H       1  <O>11       0.0625
  36 H12       6.4573    -8.9579    -3.1720  H       1  <O>11       0.0618
  37 H13       8.3995    -7.5569    -3.5308  H       1  <O>11       0.0618
  38 H14       9.0206    -5.9003    -1.8791  H       1  <O>11       0.0624
  39 H15      11.4250    -1.0344     0.4740  H       1  <O>11       0.0620
  40 H16      13.4228     0.3392     0.3507  H       1  <O>11       0.0618
  41 H17      13.7436     1.8632    -1.5177  H       1  <O>11       0.0618
  42 H18      12.0512     2.0091    -3.2557  H       1  <O>11       0.0618
  43 H19      10.0563     0.6389    -3.1476  H       1  <O>11       0.0620
@<TRIPOS>BOND
     1     1     2    1
     2     2     3    1
     3     3     4    1
     4     4     5    2
     5     4     6   am
     6     6     7    1
     7     7     8    1
     8     8     9   ar
     9     9    10   ar
    10    10    11   ar
    11    11    12    2
    12    11    13   ar
    13    13    14   ar
    14    14    15   ar
    15    15    16   ar
    16    16    17   ar
    17    17    18   ar
    18     8    18   ar
    19    13    18   ar
    20     3    19    1
    21    19    20   ar
    22    20    21   ar
    23    21    22   ar
    24    22    23   ar
    25    23    24   ar
    26    19    24   ar
    27     1    25    1
    28     1    26    1
    29     1    27    1
    30     2    28    1
    31     2    29    1
    32     3    30    1
    33     6    31    1
    34     7    32    1
    35     7    33    1
    36    10    34    1
    37    14    35    1
    38    15    36    1
    39    16    37    1
    40    17    38    1
    41    20    39    1
    42    21    40    1
    43    22    41    1
    44    23    42    1
    45    24    43    1
@<TRIPOS>MOLECULE
mol11_1_20
 43 45 0 0 0
SMALL
USER_CHARGES
****
VDW energy = -22.56
@<TRIPOS>ATOM
   1 C1        7.0087    -1.2031    -0.3851  C.3     1  <O>11      -0.0643
   2 C2        8.2620    -0.3598    -0.4710  C.3     1  <O>11      -0.0407
   3 C3        9.3420    -1.1280    -1.2360  C.3     1  <O>11       0.0603
   4 C4        9.6470    -2.4010    -0.5210  C.2     1  <O>11       0.2207
   5 O1       10.7790    -2.6160    -0.1130  O.2     1  <O>11      -0.2751
   6 N1        8.6600    -3.3280    -0.3220  N.am    1  <O>11      -0.3091
   7 C5        8.9580    -4.5730     0.3780  C.3     1  <O>11       0.0562
   8 C6        7.7350    -5.3950     0.4640  C.ar    1  <O>11       0.0863
   9 N2        7.5265    -6.2517    -0.5645  N.ar    1  <O>11      -0.1737
  10 N3        6.3767    -6.9633    -0.6134  N.ar    1  <O>11      -0.2424
  11 C7        5.4650    -6.8069     0.3759  C.ar    1  <O>11       0.2725
  12 O2        4.2517    -7.5019     0.2150  O.2     1  <O>11      -0.2658
  13 C8        5.6729    -6.0115     1.5109  C.ar    1  <O>11       0.0496
  14 C9        4.7472    -5.8927     2.5730  C.ar    1  <O>11      -0.0487
  15 C10       5.0050    -5.0566     3.6601  C.ar    1  <O>11      -0.0610
  16 C11       6.1817    -4.3208     3.7048  C.ar    1  <O>11      -0.0611
  17 C12       7.1048    -4.4192     2.6628  C.ar    1  <O>11      -0.0520
  18 C13       6.8660    -5.2683     1.5555  C.ar    1  <O>11       0.0118
  19 C14      10.5730    -0.2990    -1.3200  C.ar    1  <O>11      -0.0355
  20 C15      11.5548    -0.3857    -0.3181  C.ar    1  <O>11      -0.0578
  21 C16      12.7076     0.4040    -0.3904  C.ar    1  <O>11      -0.0615
  22 C17      12.8936     1.2805    -1.4633  C.ar    1  <O>11      -0.0617
  23 C18      11.9176     1.3616    -2.4633  C.ar    1  <O>11      -0.0615
  24 C19      10.7657     0.5763    -2.4006  C.ar    1  <O>11      -0.0578
  25 H1        6.2395    -0.6561     0.1599  H       1  <O>11       0.0230
  26 H2        7.2319    -2.1335     0.1369  H       1  <O>11       0.0230
  27 H3        6.6520    -1.4271    -1.3905  H       1  <O>11       0.0230
  28 H4        8.0389     0.5706    -0.9931  H       1  <O>11       0.0273
  29 H5        8.6188    -0.1358     0.5343  H       1  <O>11       0.0273
  30 H6        8.9850    -1.3520    -2.2410  H       1  <O>11       0.0443
  31 H7        7.7150    -3.1480    -0.6630  H       1  <O>11       0.1491
  32 H8        9.7260    -5.1210    -0.1660  H       1  <O>11       0.0528
  33 H9        9.3150    -4.3480     1.3830  H       1  <O>11       0.0528
  34 H10       6.2036    -7.6013    -1.3780  H       1  <O>11       0.1921
  35 H11       3.8679    -6.4321     2.5438  H       1  <O>11       0.0625
  36 H12       4.3217    -4.9852     4.4301  H       1  <O>11       0.0618
  37 H13       6.3735    -3.7016     4.5080  H       1  <O>11       0.0618
  38 H14       7.9744    -3.8648     2.6999  H       1  <O>11       0.0624
  39 H15      11.4250    -1.0344     0.4740  H       1  <O>11       0.0620
  40 H16      13.4228     0.3391     0.3508  H       1  <O>11       0.0618
  41 H17      13.7437     1.8631    -1.5176  H       1  <O>11       0.0618
  42 H18      12.0513     2.0091    -3.2556  H       1  <O>11       0.0618
  43 H19      10.0564     0.6390    -3.1476  H       1  <O>11       0.0620
@<TRIPOS>BOND
     1     1     2    1
     2     2     3    1
     3     3     4    1
     4     4     5    2
     5     4     6   am
     6     6     7    1
     7     7     8    1
     8     8     9   ar
     9     9    10   ar
    10    10    11   ar
    11    11    12    2
    12    11    13   ar
    13    13    14   ar
    14    14    15   ar
    15    15    16   ar
    16    16    17   ar
    17    17    18   ar
    18     8    18   ar
    19    13    18   ar
    20     3    19    1
    21    19    20   ar
    22    20    21   ar
    23    21    22   ar
    24    22    23   ar
    25    23    24   ar
    26    19    24   ar
    27     1    25    1
    28     1    26    1
    29     1    27    1
    30     2    28    1
    31     2    29    1
    32     3    30    1
    33     6    31    1
    34     7    32    1
    35     7    33    1
    36    10    34    1
    37    14    35    1
    38    15    36    1
    39    16    37    1
    40    17    38    1
    41    20    39    1
    42    21    40    1
    43    22    41    1
    44    23    42    1
    45    24    43    1
@<TRIPOS>MOLECULE
mol11_1_21
 43 45 0 0 0
SMALL
USER_CHARGES
****
VDW energy = -21.72
@<TRIPOS>ATOM
   1 C1        7.0087    -1.2031    -0.3851  C.3     1  <O>11      -0.0643
   2 C2        8.2620    -0.3598    -0.4710  C.3     1  <O>11      -0.0407
   3 C3        9.3420    -1.1280    -1.2360  C.3     1  <O>11       0.0603
   4 C4        8.8535    -1.4347    -2.6115  C.2     1  <O>11       0.2207
   5 O1        8.7612    -2.5960    -2.9818  O.2     1  <O>11      -0.2751
   6 N1        8.5090    -0.4165    -3.4587  N.am    1  <O>11      -0.3091
   7 C5        8.0305    -0.7164    -4.8041  C.3     1  <O>11       0.0562
   8 C6        7.7263     0.5431    -5.5111  C.ar    1  <O>11       0.0863
   9 N2        6.4589     1.0027    -5.3785  N.ar    1  <O>11      -0.1737
  10 N3        6.0710     2.0927    -6.0801  N.ar    1  <O>11      -0.2424
  11 C7        6.9661     2.7038    -6.8924  C.ar    1  <O>11       0.2725
  12 O2        6.4724     3.7712    -7.6656  O.2     1  <O>11      -0.2658
  13 C8        8.3135     2.3307    -6.9902  C.ar    1  <O>11       0.0496
  14 C9        9.2635     3.0034    -7.7929  C.ar    1  <O>11      -0.0487
  15 C10      10.5839     2.5583    -7.8682  C.ar    1  <O>11      -0.0610
  16 C11      10.9783     1.4347    -7.1541  C.ar    1  <O>11      -0.0611
  17 C12      10.0537     0.7529    -6.3617  C.ar    1  <O>11      -0.0520
  18 C13       8.7118     1.1936    -6.2649  C.ar    1  <O>11       0.0118
  19 C14       9.6456    -2.3965    -0.5230  C.ar    1  <O>11      -0.0355
  20 C15      10.6118    -3.2812    -1.0321  C.ar    1  <O>11      -0.0578
  21 C16      10.8884    -4.4813    -0.3680  C.ar    1  <O>11      -0.0615
  22 C17      10.2098    -4.8059     0.8101  C.ar    1  <O>11      -0.0617
  23 C18       9.2519    -3.9212     1.3190  C.ar    1  <O>11      -0.0615
  24 C19       8.9708    -2.7210     0.6646  C.ar    1  <O>11      -0.0578
  25 H1        6.2395    -0.6561     0.1599  H       1  <O>11       0.0230
  26 H2        7.2319    -2.1335     0.1369  H       1  <O>11       0.0230
  27 H3        6.6520    -1.4271    -1.3905  H       1  <O>11       0.0230
  28 H4        8.0389     0.5706    -0.9931  H       1  <O>11       0.0273
  29 H5        8.6188    -0.1358     0.5343  H       1  <O>11       0.0273
  30 H6       10.2446    -0.5204    -1.2978  H       1  <O>11       0.0443
  31 H7        8.5865     0.5529    -3.1490  H       1  <O>11       0.1491
  32 H8        8.7987    -1.2625    -5.3498  H       1  <O>11       0.0528
  33 H9        7.1278    -1.3241    -4.7413  H       1  <O>11       0.0528
  34 H10       5.1267     2.4436    -5.9971  H       1  <O>11       0.1921
  35 H11       8.9762     3.8358    -8.3309  H       1  <O>11       0.0625
  36 H12      11.2666     3.0637    -8.4543  H       1  <O>11       0.0618
  37 H13      11.9544     1.1040    -7.2092  H       1  <O>11       0.0618
  38 H14      10.3525    -0.0849    -5.8384  H       1  <O>11       0.0624
  39 H15      11.1192    -3.0446    -1.8991  H       1  <O>11       0.0620
  40 H16      11.5958    -5.1289    -0.7492  H       1  <O>11       0.0618
  41 H17      10.4133    -5.6906     1.3008  H       1  <O>11       0.0618
  42 H18       8.7479    -4.1589     2.1876  H       1  <O>11       0.0618
  43 H19       8.2680    -2.0729     1.0532  H       1  <O>11       0.0620
@<TRIPOS>BOND
     1     1     2    1
     2     2     3    1
     3     3     4    1
     4     4     5    2
     5     4     6   am
     6     6     7    1
     7     7     8    1
     8     8     9   ar
     9     9    10   ar
    10    10    11   ar
    11    11    12    2
    12    11    13   ar
    13    13    14   ar
    14    14    15   ar
    15    15    16   ar
    16    16    17   ar
    17    17    18   ar
    18     8    18   ar
    19    13    18   ar
    20     3    19    1
    21    19    20   ar
    22    20    21   ar
    23    21    22   ar
    24    22    23   ar
    25    23    24   ar
    26    19    24   ar
    27     1    25    1
    28     1    26    1
    29     1    27    1
    30     2    28    1
    31     2    29    1
    32     3    30    1
    33     6    31    1
    34     7    32    1
    35     7    33    1
    36    10    34    1
    37    14    35    1
    38    15    36    1
    39    16    37    1
    40    17    38    1
    41    20    39    1
    42    21    40    1
    43    22    41    1
    44    23    42    1
    45    24    43    1
@<TRIPOS>MOLECULE
mol11_1_22
 43 45 0 0 0
SMALL
USER_CHARGES
****
VDW energy = -21.57
@<TRIPOS>ATOM
   1 C1        7.0087    -1.2031    -0.3851  C.3     1  <O>11      -0.0643
   2 C2        8.2620    -0.3598    -0.4710  C.3     1  <O>11      -0.0407
   3 C3        9.3420    -1.1280    -1.2360  C.3     1  <O>11       0.0603
   4 C4        8.8535    -1.4347    -2.6115  C.2     1  <O>11       0.2207
   5 O1        8.7612    -2.5960    -2.9818  O.2     1  <O>11      -0.2751
   6 N1        8.5090    -0.4165    -3.4587  N.am    1  <O>11      -0.3091
   7 C5        8.0305    -0.7164    -4.8041  C.3     1  <O>11       0.0562
   8 C6        7.7263     0.5431    -5.5111  C.ar    1  <O>11       0.0863
   9 N2        8.7506     1.0901    -6.2089  N.ar    1  <O>11      -0.1737
  10 N3        8.5837     2.2972    -6.7969  N.ar    1  <O>11      -0.2424
  11 C7        7.3893     2.9251    -6.6802  C.ar    1  <O>11       0.2725
  12 O2        7.3130     4.2177    -7.2319  O.2     1  <O>11      -0.2658
  13 C8        6.2683     2.3611    -6.0563  C.ar    1  <O>11       0.0496
  14 C9        5.0039     2.9900    -5.9843  C.ar    1  <O>11      -0.0487
  15 C10       3.9374     2.3841    -5.3189  C.ar    1  <O>11      -0.0610
  16 C11       4.1126     1.1490    -4.7090  C.ar    1  <O>11      -0.0611
  17 C12       5.3549     0.5155    -4.7630  C.ar    1  <O>11      -0.0520
  18 C13       6.4469     1.1094    -5.4405  C.ar    1  <O>11       0.0118
  19 C14       9.6456    -2.3965    -0.5230  C.ar    1  <O>11      -0.0355
  20 C15      10.6118    -3.2812    -1.0321  C.ar    1  <O>11      -0.0578
  21 C16      10.8884    -4.4813    -0.3680  C.ar    1  <O>11      -0.0615
  22 C17      10.2098    -4.8059     0.8101  C.ar    1  <O>11      -0.0617
  23 C18       9.2519    -3.9212     1.3190  C.ar    1  <O>11      -0.0615
  24 C19       8.9708    -2.7210     0.6646  C.ar    1  <O>11      -0.0578
  25 H1        6.2395    -0.6561     0.1599  H       1  <O>11       0.0230
  26 H2        7.2319    -2.1335     0.1369  H       1  <O>11       0.0230
  27 H3        6.6520    -1.4271    -1.3905  H       1  <O>11       0.0230
  28 H4        8.0389     0.5706    -0.9931  H       1  <O>11       0.0273
  29 H5        8.6188    -0.1358     0.5343  H       1  <O>11       0.0273
  30 H6       10.2446    -0.5204    -1.2978  H       1  <O>11       0.0443
  31 H7        8.5865     0.5529    -3.1490  H       1  <O>11       0.1491
  32 H8        8.7987    -1.2625    -5.3498  H       1  <O>11       0.0528
  33 H9        7.1278    -1.3241    -4.7413  H       1  <O>11       0.0528
  34 H10       9.3407     2.7215    -7.3151  H       1  <O>11       0.1921
  35 H11       4.8679     3.9105    -6.4304  H       1  <O>11       0.0625
  36 H12       3.0192     2.8536    -5.2802  H       1  <O>11       0.0618
  37 H13       3.3249     0.7000    -4.2161  H       1  <O>11       0.0618
  38 H14       5.4794    -0.3994    -4.3022  H       1  <O>11       0.0624
  39 H15      11.1192    -3.0446    -1.8991  H       1  <O>11       0.0620
  40 H16      11.5958    -5.1289    -0.7492  H       1  <O>11       0.0618
  41 H17      10.4133    -5.6906     1.3008  H       1  <O>11       0.0618
  42 H18       8.7479    -4.1589     2.1876  H       1  <O>11       0.0618
  43 H19       8.2680    -2.0729     1.0532  H       1  <O>11       0.0620
@<TRIPOS>BOND
     1     1     2    1
     2     2     3    1
     3     3     4    1
     4     4     5    2
     5     4     6   am
     6     6     7    1
     7     7     8    1
     8     8     9   ar
     9     9    10   ar
    10    10    11   ar
    11    11    12    2
    12    11    13   ar
    13    13    14   ar
    14    14    15   ar
    15    15    16   ar
    16    16    17   ar
    17    17    18   ar
    18     8    18   ar
    19    13    18   ar
    20     3    19    1
    21    19    20   ar
    22    20    21   ar
    23    21    22   ar
    24    22    23   ar
    25    23    24   ar
    26    19    24   ar
    27     1    25    1
    28     1    26    1
    29     1    27    1
    30     2    28    1
    31     2    29    1
    32     3    30    1
    33     6    31    1
    34     7    32    1
    35     7    33    1
    36    10    34    1
    37    14    35    1
    38    15    36    1
    39    16    37    1
    40    17    38    1
    41    20    39    1
    42    21    40    1
    43    22    41    1
    44    23    42    1
    45    24    43    1
@<TRIPOS>MOLECULE
mol11_1_23
 43 45 0 0 0
SMALL
USER_CHARGES
****
VDW energy = -20.90
@<TRIPOS>ATOM
   1 C1        7.0087    -1.2031    -0.3851  C.3     1  <O>11      -0.0643
   2 C2        8.2620    -0.3598    -0.4710  C.3     1  <O>11      -0.0407
   3 C3        9.3420    -1.1280    -1.2360  C.3     1  <O>11       0.0603
   4 C4       10.5775    -0.2966    -1.3207  C.2     1  <O>11       0.2207
   5 O1       11.0260     0.0211    -2.4125  O.2     1  <O>11      -0.2751
   6 N1       11.2087     0.1103    -0.1765  N.am    1  <O>11      -0.3091
   7 C5       12.4168     0.9242    -0.2591  C.3     1  <O>11       0.0562
   8 C6       12.8992     1.2299     1.1020  C.ar    1  <O>11       0.0863
   9 N2       13.7711     0.3392     1.6328  N.ar    1  <O>11      -0.1737
  10 N3       14.1777     0.4910     2.9143  N.ar    1  <O>11      -0.2424
  11 C7       13.7082     1.5388     3.6327  C.ar    1  <O>11       0.2725
  12 O2       14.0938     1.5842     4.9856  O.2     1  <O>11      -0.2658
  13 C8       12.8853     2.5422     3.1035  C.ar    1  <O>11       0.0496
  14 C9       12.4415     3.6679     3.8351  C.ar    1  <O>11      -0.0487
  15 C10      11.5962     4.6141     3.2542  C.ar    1  <O>11      -0.0610
  16 C11      11.1732     4.4526     1.9415  C.ar    1  <O>11      -0.0611
  17 C12      11.5947     3.3445     1.2052  C.ar    1  <O>11      -0.0520
  18 C13      12.4592     2.3780     1.7733  C.ar    1  <O>11       0.0118
  19 C14       8.8547    -1.4334    -2.6067  C.ar    1  <O>11      -0.0355
  20 C15       9.6713    -2.1377    -3.5080  C.ar    1  <O>11      -0.0578
  21 C16       9.2177    -2.4140    -4.8025  C.ar    1  <O>11      -0.0615
  22 C17       7.9463    -1.9965    -5.2064  C.ar    1  <O>11      -0.0617
  23 C18       7.1319    -1.3002    -4.3058  C.ar    1  <O>11      -0.0615
  24 C19       7.5750    -1.0219    -3.0121  C.ar    1  <O>11      -0.0578
  25 H1        6.2395    -0.6561     0.1599  H       1  <O>11       0.0230
  26 H2        7.2319    -2.1335     0.1369  H       1  <O>11       0.0230
  27 H3        6.6520    -1.4271    -1.3905  H       1  <O>11       0.0230
  28 H4        8.0389     0.5706    -0.9931  H       1  <O>11       0.0273
  29 H5        8.6188    -0.1358     0.5343  H       1  <O>11       0.0273
  30 H6        9.5648    -2.0581    -0.7135  H       1  <O>11       0.0443
  31 H7       10.8338    -0.1553     0.7349  H       1  <O>11       0.1491
  32 H8       13.1865     0.3781    -0.8027  H       1  <O>11       0.0528
  33 H9       12.1931     1.8541    -0.7818  H       1  <O>11       0.0528
  34 H10      14.8225    -0.1692     3.3267  H       1  <O>11       0.1921
  35 H11      12.7472     3.7915     4.8129  H       1  <O>11       0.0625
  36 H12      11.2857     5.4332     3.7998  H       1  <O>11       0.0618
  37 H13      10.5476     5.1513     1.5108  H       1  <O>11       0.0618
  38 H14      11.2714     3.2279     0.2321  H       1  <O>11       0.0624
  39 H15      10.6092    -2.4524    -3.2139  H       1  <O>11       0.0620
  40 H16       9.8238    -2.9276    -5.4612  H       1  <O>11       0.0618
  41 H17       7.6108    -2.2001    -6.1609  H       1  <O>11       0.0618
  42 H18       6.1935    -0.9891    -4.6017  H       1  <O>11       0.0618
  43 H19       6.9630    -0.5145    -2.3542  H       1  <O>11       0.0620
@<TRIPOS>BOND
     1     1     2    1
     2     2     3    1
     3     3     4    1
     4     4     5    2
     5     4     6   am
     6     6     7    1
     7     7     8    1
     8     8     9   ar
     9     9    10   ar
    10    10    11   ar
    11    11    12    2
    12    11    13   ar
    13    13    14   ar
    14    14    15   ar
    15    15    16   ar
    16    16    17   ar
    17    17    18   ar
    18     8    18   ar
    19    13    18   ar
    20     3    19    1
    21    19    20   ar
    22    20    21   ar
    23    21    22   ar
    24    22    23   ar
    25    23    24   ar
    26    19    24   ar
    27     1    25    1
    28     1    26    1
    29     1    27    1
    30     2    28    1
    31     2    29    1
    32     3    30    1
    33     6    31    1
    34     7    32    1
    35     7    33    1
    36    10    34    1
    37    14    35    1
    38    15    36    1
    39    16    37    1
    40    17    38    1
    41    20    39    1
    42    21    40    1
    43    22    41    1
    44    23    42    1
    45    24    43    1
@<TRIPOS>MOLECULE
mol11_1_24
 43 45 0 0 0
SMALL
USER_CHARGES
****
VDW energy = -19.45
@<TRIPOS>ATOM
   1 C1        7.0087    -1.2031    -0.3851  C.3     1  <O>11      -0.0643
   2 C2        8.2620    -0.3598    -0.4710  C.3     1  <O>11      -0.0407
   3 C3        9.3420    -1.1280    -1.2360  C.3     1  <O>11       0.0603
   4 C4        8.8535    -1.4347    -2.6115  C.2     1  <O>11       0.2207
   5 O1        8.7612    -2.5960    -2.9818  O.2     1  <O>11      -0.2751
   6 N1        8.5090    -0.4165    -3.4587  N.am    1  <O>11      -0.3091
   7 C5        8.0305    -0.7164    -4.8041  C.3     1  <O>11       0.0562
   8 C6        7.7263     0.5431    -5.5111  C.ar    1  <O>11       0.0863
   9 N2        6.4457     0.6914    -5.9275  N.ar    1  <O>11      -0.1737
  10 N3        6.1109     1.7686    -6.6746  N.ar    1  <O>11      -0.2424
  11 C7        7.0663     2.6788    -6.9799  C.ar    1  <O>11       0.2725
  12 O2        6.6747     3.7227    -7.8389  O.2     1  <O>11      -0.2658
  13 C8        8.3794     2.6258    -6.4929  C.ar    1  <O>11       0.0496
  14 C9        9.3623     3.6058    -6.7624  C.ar    1  <O>11      -0.0487
  15 C10      10.6616     3.4739    -6.2707  C.ar    1  <O>11      -0.0610
  16 C11      11.0058     2.3637    -5.5110  C.ar    1  <O>11      -0.0611
  17 C12      10.0515     1.3821    -5.2400  C.ar    1  <O>11      -0.0520
  18 C13       8.7259     1.5017    -5.7222  C.ar    1  <O>11       0.0118
  19 C14       9.6456    -2.3965    -0.5230  C.ar    1  <O>11      -0.0355
  20 C15      10.6118    -3.2812    -1.0321  C.ar    1  <O>11      -0.0578
  21 C16      10.8884    -4.4813    -0.3680  C.ar    1  <O>11      -0.0615
  22 C17      10.2098    -4.8059     0.8101  C.ar    1  <O>11      -0.0617
  23 C18       9.2519    -3.9212     1.3190  C.ar    1  <O>11      -0.0615
  24 C19       8.9708    -2.7210     0.6646  C.ar    1  <O>11      -0.0578
  25 H1        6.2395    -0.6561     0.1599  H       1  <O>11       0.0230
  26 H2        7.2319    -2.1335     0.1369  H       1  <O>11       0.0230
  27 H3        6.6520    -1.4271    -1.3905  H       1  <O>11       0.0230
  28 H4        8.0389     0.5706    -0.9931  H       1  <O>11       0.0273
  29 H5        8.6188    -0.1358     0.5343  H       1  <O>11       0.0273
  30 H6       10.2446    -0.5204    -1.2978  H       1  <O>11       0.0443
  31 H7        8.5865     0.5529    -3.1490  H       1  <O>11       0.1491
  32 H8        8.7987    -1.2625    -5.3498  H       1  <O>11       0.0528
  33 H9        7.1278    -1.3241    -4.7413  H       1  <O>11       0.0528
  34 H10       5.1612     1.8897    -6.9986  H       1  <O>11       0.1921
  35 H11       9.1153     4.4308    -7.3311  H       1  <O>11       0.0625
  36 H12      11.3660     4.2008    -6.4715  H       1  <O>11       0.0618
  37 H13      11.9664     2.2646    -5.1470  H       1  <O>11       0.0618
  38 H14      10.3161     0.5568    -4.6798  H       1  <O>11       0.0624
  39 H15      11.1192    -3.0446    -1.8991  H       1  <O>11       0.0620
  40 H16      11.5958    -5.1289    -0.7492  H       1  <O>11       0.0618
  41 H17      10.4133    -5.6906     1.3008  H       1  <O>11       0.0618
  42 H18       8.7479    -4.1589     2.1876  H       1  <O>11       0.0618
  43 H19       8.2680    -2.0729     1.0532  H       1  <O>11       0.0620
@<TRIPOS>BOND
     1     1     2    1
     2     2     3    1
     3     3     4    1
     4     4     5    2
     5     4     6   am
     6     6     7    1
     7     7     8    1
     8     8     9   ar
     9     9    10   ar
    10    10    11   ar
    11    11    12    2
    12    11    13   ar
    13    13    14   ar
    14    14    15   ar
    15    15    16   ar
    16    16    17   ar
    17    17    18   ar
    18     8    18   ar
    19    13    18   ar
    20     3    19    1
    21    19    20   ar
    22    20    21   ar
    23    21    22   ar
    24    22    23   ar
    25    23    24   ar
    26    19    24   ar
    27     1    25    1
    28     1    26    1
    29     1    27    1
    30     2    28    1
    31     2    29    1
    32     3    30    1
    33     6    31    1
    34     7    32    1
    35     7    33    1
    36    10    34    1
    37    14    35    1
    38    15    36    1
    39    16    37    1
    40    17    38    1
    41    20    39    1
    42    21    40    1
    43    22    41    1
    44    23    42    1
    45    24    43    1
@<TRIPOS>MOLECULE
mol11_1_25
 43 45 0 0 0
SMALL
USER_CHARGES
****
VDW energy = -17.86
@<TRIPOS>ATOM
   1 C1        7.0087    -1.2031    -0.3851  C.3     1  <O>11      -0.0643
   2 C2        8.2620    -0.3598    -0.4710  C.3     1  <O>11      -0.0407
   3 C3        9.3420    -1.1280    -1.2360  C.3     1  <O>11       0.0603
   4 C4        9.6470    -2.4010    -0.5210  C.2     1  <O>11       0.2207
   5 O1       10.7790    -2.6160    -0.1130  O.2     1  <O>11      -0.2751
   6 N1        8.6600    -3.3280    -0.3220  N.am    1  <O>11      -0.3091
   7 C5        8.9580    -4.5730     0.3780  C.3     1  <O>11       0.0562
   8 C6        7.7350    -5.3950     0.4640  C.ar    1  <O>11       0.0863
   9 N2        6.6240    -4.8600    -0.0970  N.ar    1  <O>11      -0.1737
  10 N3        5.4400    -5.5020     0.0320  N.ar    1  <O>11      -0.2424
  11 C7        5.3980    -6.6720     0.7130  C.ar    1  <O>11       0.2725
  12 O2        4.1220    -7.2380     0.8930  O.2     1  <O>11      -0.2658
  13 C8        6.5310    -7.3180     1.2260  C.ar    1  <O>11       0.0496
  14 C9        6.4970    -8.5680     1.8860  C.ar    1  <O>11      -0.0487
  15 C10       7.6610    -9.1400     2.4010  C.ar    1  <O>11      -0.0610
  16 C11       8.8740    -8.4760     2.2750  C.ar    1  <O>11      -0.0611
  17 C12       8.9270    -7.2380     1.6330  C.ar    1  <O>11      -0.0520
  18 C13       7.7590    -6.6450     1.0960  C.ar    1  <O>11       0.0118
  19 C14      10.5730    -0.2990    -1.3200  C.ar    1  <O>11      -0.0355
  20 C15      10.7639     0.5775    -2.4019  C.ar    1  <O>11      -0.0578
  21 C16      11.9285     1.3484    -2.4878  C.ar    1  <O>11      -0.0615
  22 C17      12.9076     1.2565    -1.4944  C.ar    1  <O>11      -0.0617
  23 C18      12.7135     0.3874    -0.4145  C.ar    1  <O>11      -0.0615
  24 C19      11.5543    -0.3838    -0.3195  C.ar    1  <O>11      -0.0578
  25 H1        6.2395    -0.6561     0.1599  H       1  <O>11       0.0230
  26 H2        7.2319    -2.1335     0.1369  H       1  <O>11       0.0230
  27 H3        6.6520    -1.4271    -1.3905  H       1  <O>11       0.0230
  28 H4        8.0389     0.5706    -0.9931  H       1  <O>11       0.0273
  29 H5        8.6188    -0.1358     0.5343  H       1  <O>11       0.0273
  30 H6        8.9850    -1.3520    -2.2410  H       1  <O>11       0.0443
  31 H7        7.7150    -3.1480    -0.6630  H       1  <O>11       0.1491
  32 H8        9.7260    -5.1210    -0.1660  H       1  <O>11       0.0528
  33 H9        9.3150    -4.3480     1.3830  H       1  <O>11       0.0528
  34 H10       4.6010    -5.1120    -0.3750  H       1  <O>11       0.1921
  35 H11       5.5982    -9.0646     1.9884  H       1  <O>11       0.0625
  36 H12       7.6203   -10.0557     2.8751  H       1  <O>11       0.0618
  37 H13       9.7356    -8.8976     2.6558  H       1  <O>11       0.0618
  38 H14       9.8310    -6.7475     1.5484  H       1  <O>11       0.0624
  39 H15      10.0424     0.6529    -3.1359  H       1  <O>11       0.0620
  40 H16      12.0649     1.9868    -3.2870  H       1  <O>11       0.0618
  41 H17      13.7668     1.8249    -1.5567  H       1  <O>11       0.0618
  42 H18      13.4354     0.3161     0.3194  H       1  <O>11       0.0618
  43 H19      11.4185    -1.0155     0.4851  H       1  <O>11       0.0620
@<TRIPOS>BOND
     1     1     2    1
     2     2     3    1
     3     3     4    1
     4     4     5    2
     5     4     6   am
     6     6     7    1
     7     7     8    1
     8     8     9   ar
     9     9    10   ar
    10    10    11   ar
    11    11    12    2
    12    11    13   ar
    13    13    14   ar
    14    14    15   ar
    15    15    16   ar
    16    16    17   ar
    17    17    18   ar
    18     8    18   ar
    19    13    18   ar
    20     3    19    1
    21    19    20   ar
    22    20    21   ar
    23    21    22   ar
    24    22    23   ar
    25    23    24   ar
    26    19    24   ar
    27     1    25    1
    28     1    26    1
    29     1    27    1
    30     2    28    1
    31     2    29    1
    32     3    30    1
    33     6    31    1
    34     7    32    1
    35     7    33    1
    36    10    34    1
    37    14    35    1
    38    15    36    1
    39    16    37    1
    40    17    38    1
    41    20    39    1
    42    21    40    1
    43    22    41    1
    44    23    42    1
    45    24    43    1
@<TRIPOS>MOLECULE
mol11_1_26
 43 45 0 0 0
SMALL
USER_CHARGES
****
VDW energy = -17.02
@<TRIPOS>ATOM
   1 C1        7.0087    -1.2031    -0.3851  C.3     1  <O>11      -0.0643
   2 C2        8.2620    -0.3598    -0.4710  C.3     1  <O>11      -0.0407
   3 C3        9.3420    -1.1280    -1.2360  C.3     1  <O>11       0.0603
   4 C4        9.6470    -2.4010    -0.5210  C.2     1  <O>11       0.2207
   5 O1       10.7790    -2.6160    -0.1130  O.2     1  <O>11      -0.2751
   6 N1        8.6600    -3.3280    -0.3220  N.am    1  <O>11      -0.3091
   7 C5        8.9580    -4.5730     0.3780  C.3     1  <O>11       0.0562
   8 C6        7.7350    -5.3950     0.4640  C.ar    1  <O>11       0.0863
   9 N2        6.6240    -4.8600    -0.0970  N.ar    1  <O>11      -0.1737
  10 N3        5.4400    -5.5020     0.0320  N.ar    1  <O>11      -0.2424
  11 C7        5.3980    -6.6720     0.7130  C.ar    1  <O>11       0.2725
  12 O2        4.1220    -7.2380     0.8930  O.2     1  <O>11      -0.2658
  13 C8        6.5310    -7.3180     1.2260  C.ar    1  <O>11       0.0496
  14 C9        6.4970    -8.5680     1.8860  C.ar    1  <O>11      -0.0487
  15 C10       7.6610    -9.1400     2.4010  C.ar    1  <O>11      -0.0610
  16 C11       8.8740    -8.4760     2.2750  C.ar    1  <O>11      -0.0611
  17 C12       8.9270    -7.2380     1.6330  C.ar    1  <O>11      -0.0520
  18 C13       7.7590    -6.6450     1.0960  C.ar    1  <O>11       0.0118
  19 C14      10.5730    -0.2990    -1.3200  C.ar    1  <O>11      -0.0355
  20 C15      11.5548    -0.3857    -0.3181  C.ar    1  <O>11      -0.0578
  21 C16      12.7076     0.4040    -0.3904  C.ar    1  <O>11      -0.0615
  22 C17      12.8936     1.2805    -1.4633  C.ar    1  <O>11      -0.0617
  23 C18      11.9176     1.3616    -2.4633  C.ar    1  <O>11      -0.0615
  24 C19      10.7657     0.5763    -2.4006  C.ar    1  <O>11      -0.0578
  25 H1        6.2395    -0.6561     0.1599  H       1  <O>11       0.0230
  26 H2        7.2319    -2.1335     0.1369  H       1  <O>11       0.0230
  27 H3        6.6520    -1.4271    -1.3905  H       1  <O>11       0.0230
  28 H4        8.0389     0.5706    -0.9931  H       1  <O>11       0.0273
  29 H5        8.6188    -0.1358     0.5343  H       1  <O>11       0.0273
  30 H6        8.9850    -1.3520    -2.2410  H       1  <O>11       0.0443
  31 H7        7.7150    -3.1480    -0.6630  H       1  <O>11       0.1491
  32 H8        9.7260    -5.1210    -0.1660  H       1  <O>11       0.0528
  33 H9        9.3150    -4.3480     1.3830  H       1  <O>11       0.0528
  34 H10       4.6010    -5.1120    -0.3750  H       1  <O>11       0.1921
  35 H11       5.5982    -9.0646     1.9884  H       1  <O>11       0.0625
  36 H12       7.6203   -10.0557     2.8751  H       1  <O>11       0.0618
  37 H13       9.7356    -8.8976     2.6558  H       1  <O>11       0.0618
  38 H14       9.8310    -6.7475     1.5484  H       1  <O>11       0.0624
  39 H15      11.4250    -1.0344     0.4740  H       1  <O>11       0.0620
  40 H16      13.4228     0.3391     0.3508  H       1  <O>11       0.0618
  41 H17      13.7437     1.8631    -1.5176  H       1  <O>11       0.0618
  42 H18      12.0513     2.0091    -3.2556  H       1  <O>11       0.0618
  43 H19      10.0564     0.6390    -3.1476  H       1  <O>11       0.0620
@<TRIPOS>BOND
     1     1     2    1
     2     2     3    1
     3     3     4    1
     4     4     5    2
     5     4     6   am
     6     6     7    1
     7     7     8    1
     8     8     9   ar
     9     9    10   ar
    10    10    11   ar
    11    11    12    2
    12    11    13   ar
    13    13    14   ar
    14    14    15   ar
    15    15    16   ar
    16    16    17   ar
    17    17    18   ar
    18     8    18   ar
    19    13    18   ar
    20     3    19    1
    21    19    20   ar
    22    20    21   ar
    23    21    22   ar
    24    22    23   ar
    25    23    24   ar
    26    19    24   ar
    27     1    25    1
    28     1    26    1
    29     1    27    1
    30     2    28    1
    31     2    29    1
    32     3    30    1
    33     6    31    1
    34     7    32    1
    35     7    33    1
    36    10    34    1
    37    14    35    1
    38    15    36    1
    39    16    37    1
    40    17    38    1
    41    20    39    1
    42    21    40    1
    43    22    41    1
    44    23    42    1
    45    24    43    1
@<TRIPOS>MOLECULE
mol11_1_27
 43 45 0 0 0
SMALL
USER_CHARGES
****
VDW energy = -16.98
@<TRIPOS>ATOM
   1 C1        7.0087    -1.2031    -0.3851  C.3     1  <O>11      -0.0643
   2 C2        8.2620    -0.3598    -0.4710  C.3     1  <O>11      -0.0407
   3 C3        9.3420    -1.1280    -1.2360  C.3     1  <O>11       0.0603
   4 C4        9.6470    -2.4010    -0.5210  C.2     1  <O>11       0.2207
   5 O1       10.7790    -2.6160    -0.1130  O.2     1  <O>11      -0.2751
   6 N1        8.6600    -3.3280    -0.3220  N.am    1  <O>11      -0.3091
   7 C5        8.9580    -4.5730     0.3780  C.3     1  <O>11       0.0562
   8 C6        9.9999    -5.3153    -0.3584  C.ar    1  <O>11       0.0863
   9 N2       10.4568    -4.7253    -1.4891  N.ar    1  <O>11      -0.1737
  10 N3       11.3343    -5.3891    -2.2765  N.ar    1  <O>11      -0.2424
  11 C7       11.7419    -6.6269    -1.9074  C.ar    1  <O>11       0.2725
  12 O2       12.5781    -7.3002    -2.8175  O.2     1  <O>11      -0.2658
  13 C8       11.3788    -7.2412    -0.7012  C.ar    1  <O>11       0.0496
  14 C9       11.8495    -8.5085    -0.2868  C.ar    1  <O>11      -0.0487
  15 C10      11.4216    -9.0758     0.9142  C.ar    1  <O>11      -0.0610
  16 C11      10.5147    -8.3969     1.7172  C.ar    1  <O>11      -0.0611
  17 C12      10.0332    -7.1481     1.3220  C.ar    1  <O>11      -0.0520
  18 C13      10.4616    -6.5515     0.1117  C.ar    1  <O>11       0.0118
  19 C14      10.5730    -0.2990    -1.3200  C.ar    1  <O>11      -0.0355
  20 C15      11.5548    -0.3857    -0.3181  C.ar    1  <O>11      -0.0578
  21 C16      12.7076     0.4040    -0.3904  C.ar    1  <O>11      -0.0615
  22 C17      12.8936     1.2805    -1.4633  C.ar    1  <O>11      -0.0617
  23 C18      11.9176     1.3616    -2.4633  C.ar    1  <O>11      -0.0615
  24 C19      10.7657     0.5763    -2.4006  C.ar    1  <O>11      -0.0578
  25 H1        6.2395    -0.6561     0.1599  H       1  <O>11       0.0230
  26 H2        7.2319    -2.1335     0.1369  H       1  <O>11       0.0230
  27 H3        6.6520    -1.4271    -1.3905  H       1  <O>11       0.0230
  28 H4        8.0389     0.5706    -0.9931  H       1  <O>11       0.0273
  29 H5        8.6188    -0.1358     0.5343  H       1  <O>11       0.0273
  30 H6        8.9850    -1.3520    -2.2410  H       1  <O>11       0.0443
  31 H7        7.7150    -3.1480    -0.6630  H       1  <O>11       0.1491
  32 H8        9.3137    -4.3490     1.3827  H       1  <O>11       0.0528
  33 H9        8.0549    -5.1803     0.4392  H       1  <O>11       0.0528
  34 H10      11.6790    -4.9650    -3.1268  H       1  <O>11       0.1921
  35 H11      12.5192    -9.0214    -0.8812  H       1  <O>11       0.0625
  36 H12      11.7788    -9.9992     1.2053  H       1  <O>11       0.0618
  37 H13      10.1970    -8.8155     2.6054  H       1  <O>11       0.0618
  38 H14       9.3547    -6.6521     1.9209  H       1  <O>11       0.0624
  39 H15      11.4250    -1.0344     0.4740  H       1  <O>11       0.0620
  40 H16      13.4228     0.3391     0.3508  H       1  <O>11       0.0618
  41 H17      13.7437     1.8631    -1.5176  H       1  <O>11       0.0618
  42 H18      12.0513     2.0091    -3.2556  H       1  <O>11       0.0618
  43 H19      10.0564     0.6390    -3.1476  H       1  <O>11       0.0620
@<TRIPOS>BOND
     1     1     2    1
     2     2     3    1
     3     3     4    1
     4     4     5    2
     5     4     6   am
     6     6     7    1
     7     7     8    1
     8     8     9   ar
     9     9    10   ar
    10    10    11   ar
    11    11    12    2
    12    11    13   ar
    13    13    14   ar
    14    14    15   ar
    15    15    16   ar
    16    16    17   ar
    17    17    18   ar
    18     8    18   ar
    19    13    18   ar
    20     3    19    1
    21    19    20   ar
    22    20    21   ar
    23    21    22   ar
    24    22    23   ar
    25    23    24   ar
    26    19    24   ar
    27     1    25    1
    28     1    26    1
    29     1    27    1
    30     2    28    1
    31     2    29    1
    32     3    30    1
    33     6    31    1
    34     7    32    1
    35     7    33    1
    36    10    34    1
    37    14    35    1
    38    15    36    1
    39    16    37    1
    40    17    38    1
    41    20    39    1
    42    21    40    1
    43    22    41    1
    44    23    42    1
    45    24    43    1
@<TRIPOS>MOLECULE
mol11_1_28
 43 45 0 0 0
SMALL
USER_CHARGES
****
VDW energy = -16.29
@<TRIPOS>ATOM
   1 C1        7.0087    -1.2031    -0.3851  C.3     1  <O>11      -0.0643
   2 C2        8.2620    -0.3598    -0.4710  C.3     1  <O>11      -0.0407
   3 C3        9.3420    -1.1280    -1.2360  C.3     1  <O>11       0.0603
   4 C4        8.8535    -1.4347    -2.6115  C.2     1  <O>11       0.2207
   5 O1        8.7612    -2.5960    -2.9818  O.2     1  <O>11      -0.2751
   6 N1        8.5090    -0.4165    -3.4587  N.am    1  <O>11      -0.3091
   7 C5        8.0305    -0.7164    -4.8041  C.3     1  <O>11       0.0562
   8 C6        7.7263     0.5431    -5.5111  C.ar    1  <O>11       0.0863
   9 N2        7.9398     1.6809    -4.8076  N.ar    1  <O>11      -0.1737
  10 N3        7.5861     2.8708    -5.3460  N.ar    1  <O>11      -0.2424
  11 C7        7.0345     2.8941    -6.5828  C.ar    1  <O>11       0.2725
  12 O2        6.6014     4.1514    -7.0438  O.2     1  <O>11      -0.2658
  13 C8        6.8836     1.7598    -7.3920  C.ar    1  <O>11       0.0496
  14 C9        6.3621     1.7901    -8.7059  C.ar    1  <O>11      -0.0487
  15 C10       6.2097     0.6165    -9.4452  C.ar    1  <O>11      -0.0610
  16 C11       6.5655    -0.6047    -8.8882  C.ar    1  <O>11      -0.0611
  17 C12       7.0756    -0.6561    -7.5902  C.ar    1  <O>11      -0.0520
  18 C13       7.2461     0.5240    -6.8270  C.ar    1  <O>11       0.0118
  19 C14       9.6456    -2.3965    -0.5230  C.ar    1  <O>11      -0.0355
  20 C15      10.6118    -3.2812    -1.0321  C.ar    1  <O>11      -0.0578
  21 C16      10.8884    -4.4813    -0.3680  C.ar    1  <O>11      -0.0615
  22 C17      10.2098    -4.8059     0.8101  C.ar    1  <O>11      -0.0617
  23 C18       9.2519    -3.9212     1.3190  C.ar    1  <O>11      -0.0615
  24 C19       8.9708    -2.7210     0.6646  C.ar    1  <O>11      -0.0578
  25 H1        6.2395    -0.6561     0.1599  H       1  <O>11       0.0230
  26 H2        7.2319    -2.1335     0.1369  H       1  <O>11       0.0230
  27 H3        6.6520    -1.4271    -1.3905  H       1  <O>11       0.0230
  28 H4        8.0389     0.5706    -0.9931  H       1  <O>11       0.0273
  29 H5        8.6188    -0.1358     0.5343  H       1  <O>11       0.0273
  30 H6       10.2446    -0.5204    -1.2978  H       1  <O>11       0.0443
  31 H7        8.5865     0.5529    -3.1490  H       1  <O>11       0.1491
  32 H8        8.7987    -1.2625    -5.3498  H       1  <O>11       0.0528
  33 H9        7.1278    -1.3241    -4.7413  H       1  <O>11       0.0528
  34 H10       7.7327     3.7279    -4.8306  H       1  <O>11       0.1921
  35 H11       6.0902     2.6934    -9.1243  H       1  <O>11       0.0625
  36 H12       5.8328     0.6561   -10.4051  H       1  <O>11       0.0618
  37 H13       6.4529    -1.4736    -9.4336  H       1  <O>11       0.0618
  38 H14       7.3322    -1.5679    -7.1806  H       1  <O>11       0.0624
  39 H15      11.1192    -3.0446    -1.8991  H       1  <O>11       0.0620
  40 H16      11.5958    -5.1289    -0.7492  H       1  <O>11       0.0618
  41 H17      10.4133    -5.6906     1.3008  H       1  <O>11       0.0618
  42 H18       8.7479    -4.1589     2.1876  H       1  <O>11       0.0618
  43 H19       8.2680    -2.0729     1.0532  H       1  <O>11       0.0620
@<TRIPOS>BOND
     1     1     2    1
     2     2     3    1
     3     3     4    1
     4     4     5    2
     5     4     6   am
     6     6     7    1
     7     7     8    1
     8     8     9   ar
     9     9    10   ar
    10    10    11   ar
    11    11    12    2
    12    11    13   ar
    13    13    14   ar
    14    14    15   ar
    15    15    16   ar
    16    16    17   ar
    17    17    18   ar
    18     8    18   ar
    19    13    18   ar
    20     3    19    1
    21    19    20   ar
    22    20    21   ar
    23    21    22   ar
    24    22    23   ar
    25    23    24   ar
    26    19    24   ar
    27     1    25    1
    28     1    26    1
    29     1    27    1
    30     2    28    1
    31     2    29    1
    32     3    30    1
    33     6    31    1
    34     7    32    1
    35     7    33    1
    36    10    34    1
    37    14    35    1
    38    15    36    1
    39    16    37    1
    40    17    38    1
    41    20    39    1
    42    21    40    1
    43    22    41    1
    44    23    42    1
    45    24    43    1
@<TRIPOS>MOLECULE
mol11_1_29
 43 45 0 0 0
SMALL
USER_CHARGES
****
VDW energy = -15.73
@<TRIPOS>ATOM
   1 C1        7.0087    -1.2031    -0.3851  C.3     1  <O>11      -0.0643
   2 C2        8.2620    -0.3598    -0.4710  C.3     1  <O>11      -0.0407
   3 C3        9.3420    -1.1280    -1.2360  C.3     1  <O>11       0.0603
   4 C4       10.5775    -0.2966    -1.3207  C.2     1  <O>11       0.2207
   5 O1       11.0260     0.0211    -2.4125  O.2     1  <O>11      -0.2751
   6 N1       11.2087     0.1103    -0.1765  N.am    1  <O>11      -0.3091
   7 C5       12.4168     0.9242    -0.2591  C.3     1  <O>11       0.0562
   8 C6       12.8992     1.2299     1.1020  C.ar    1  <O>11       0.0863
   9 N2       12.1617     0.7200     2.1176  N.ar    1  <O>11      -0.1737
  10 N3       12.4761     1.0424     3.3935  N.ar    1  <O>11      -0.2424
  11 C7       13.5297     1.8619     3.6234  C.ar    1  <O>11       0.2725
  12 O2       13.7432     2.2344     4.9638  O.2     1  <O>11      -0.2658
  13 C8       14.3841     2.3357     2.6187  C.ar    1  <O>11       0.0496
  14 C9       15.5188     3.1434     2.8623  C.ar    1  <O>11      -0.0487
  15 C10      16.3094     3.6072     1.8101  C.ar    1  <O>11      -0.0610
  16 C11      15.9808     3.2822     0.5007  C.ar    1  <O>11      -0.0611
  17 C12      14.8606     2.4919     0.2393  C.ar    1  <O>11      -0.0520
  18 C13      14.0509     2.0042     1.2932  C.ar    1  <O>11       0.0118
  19 C14       8.8547    -1.4334    -2.6067  C.ar    1  <O>11      -0.0355
  20 C15       9.6713    -2.1377    -3.5080  C.ar    1  <O>11      -0.0578
  21 C16       9.2177    -2.4140    -4.8025  C.ar    1  <O>11      -0.0615
  22 C17       7.9463    -1.9965    -5.2064  C.ar    1  <O>11      -0.0617
  23 C18       7.1319    -1.3002    -4.3058  C.ar    1  <O>11      -0.0615
  24 C19       7.5750    -1.0219    -3.0121  C.ar    1  <O>11      -0.0578
  25 H1        6.2395    -0.6561     0.1599  H       1  <O>11       0.0230
  26 H2        7.2319    -2.1335     0.1369  H       1  <O>11       0.0230
  27 H3        6.6520    -1.4271    -1.3905  H       1  <O>11       0.0230
  28 H4        8.0389     0.5706    -0.9931  H       1  <O>11       0.0273
  29 H5        8.6188    -0.1358     0.5343  H       1  <O>11       0.0273
  30 H6        9.5648    -2.0581    -0.7135  H       1  <O>11       0.0443
  31 H7       10.8338    -0.1553     0.7349  H       1  <O>11       0.1491
  32 H8       13.1865     0.3781    -0.8027  H       1  <O>11       0.0528
  33 H9       12.1931     1.8541    -0.7818  H       1  <O>11       0.0528
  34 H10      11.9311     0.6755     4.1617  H       1  <O>11       0.1921
  35 H11      15.7660     3.3937     3.8325  H       1  <O>11       0.0625
  36 H12      17.1377     4.1911     2.0049  H       1  <O>11       0.0618
  37 H13      16.5643     3.6249    -0.2786  H       1  <O>11       0.0618
  38 H14      14.6190     2.2594    -0.7367  H       1  <O>11       0.0624
  39 H15      10.6092    -2.4524    -3.2139  H       1  <O>11       0.0620
  40 H16       9.8238    -2.9276    -5.4612  H       1  <O>11       0.0618
  41 H17       7.6108    -2.2001    -6.1609  H       1  <O>11       0.0618
  42 H18       6.1935    -0.9891    -4.6017  H       1  <O>11       0.0618
  43 H19       6.9630    -0.5145    -2.3542  H       1  <O>11       0.0620
@<TRIPOS>BOND
     1     1     2    1
     2     2     3    1
     3     3     4    1
     4     4     5    2
     5     4     6   am
     6     6     7    1
     7     7     8    1
     8     8     9   ar
     9     9    10   ar
    10    10    11   ar
    11    11    12    2
    12    11    13   ar
    13    13    14   ar
    14    14    15   ar
    15    15    16   ar
    16    16    17   ar
    17    17    18   ar
    18     8    18   ar
    19    13    18   ar
    20     3    19    1
    21    19    20   ar
    22    20    21   ar
    23    21    22   ar
    24    22    23   ar
    25    23    24   ar
    26    19    24   ar
    27     1    25    1
    28     1    26    1
    29     1    27    1
    30     2    28    1
    31     2    29    1
    32     3    30    1
    33     6    31    1
    34     7    32    1
    35     7    33    1
    36    10    34    1
    37    14    35    1
    38    15    36    1
    39    16    37    1
    40    17    38    1
    41    20    39    1
    42    21    40    1
    43    22    41    1
    44    23    42    1
    45    24    43    1
@<TRIPOS>MOLECULE
mol11_1_30
 43 45 0 0 0
SMALL
USER_CHARGES
****
VDW energy = -9.55
@<TRIPOS>ATOM
   1 C1        7.0087    -1.2031    -0.3851  C.3     1  <O>11      -0.0643
   2 C2        8.2620    -0.3598    -0.4710  C.3     1  <O>11      -0.0407
   3 C3        9.3420    -1.1280    -1.2360  C.3     1  <O>11       0.0603
   4 C4        8.8535    -1.4347    -2.6115  C.2     1  <O>11       0.2207
   5 O1        8.7612    -2.5960    -2.9818  O.2     1  <O>11      -0.2751
   6 N1        8.5090    -0.4165    -3.4587  N.am    1  <O>11      -0.3091
   7 C5        8.0305    -0.7164    -4.8041  C.3     1  <O>11       0.0562
   8 C6        9.0710    -1.4577    -5.5435  C.ar    1  <O>11       0.0863
   9 N2        9.9515    -0.7006    -6.2411  N.ar    1  <O>11      -0.1737
  10 N3       10.8695    -1.3062    -7.0292  N.ar    1  <O>11      -0.2424
  11 C7       10.8905    -2.6590    -7.0929  C.ar    1  <O>11       0.2725
  12 O2       11.8044    -3.2217    -8.0034  O.2     1  <O>11      -0.2658
  13 C8       10.0703    -3.4900    -6.3177  C.ar    1  <O>11       0.0496
  14 C9       10.1308    -4.9025    -6.3392  C.ar    1  <O>11      -0.0487
  15 C10       9.2611    -5.6703    -5.5637  C.ar    1  <O>11      -0.0610
  16 C11       8.3141    -5.0473    -4.7616  C.ar    1  <O>11      -0.0611
  17 C12       8.2341    -3.6544    -4.7321  C.ar    1  <O>11      -0.0520
  18 C13       9.1130    -2.8574    -5.5046  C.ar    1  <O>11       0.0118
  19 C14       9.6456    -2.3965    -0.5230  C.ar    1  <O>11      -0.0355
  20 C15       8.9310    -3.5680    -0.8268  C.ar    1  <O>11      -0.0578
  21 C16       9.2078    -4.7591    -0.1467  C.ar    1  <O>11      -0.0615
  22 C17      10.2016    -4.7935     0.8357  C.ar    1  <O>11      -0.0617
  23 C18      10.9164    -3.6273     1.1331  C.ar    1  <O>11      -0.0615
  24 C19      10.6487    -2.4354     0.4585  C.ar    1  <O>11      -0.0578
  25 H1        6.2395    -0.6561     0.1599  H       1  <O>11       0.0230
  26 H2        7.2319    -2.1335     0.1369  H       1  <O>11       0.0230
  27 H3        6.6520    -1.4271    -1.3905  H       1  <O>11       0.0230
  28 H4        8.0389     0.5706    -0.9931  H       1  <O>11       0.0273
  29 H5        8.6188    -0.1358     0.5343  H       1  <O>11       0.0273
  30 H6       10.2446    -0.5204    -1.2978  H       1  <O>11       0.0443
  31 H7        8.5865     0.5529    -3.1490  H       1  <O>11       0.1491
  32 H8        7.1279    -1.3226    -4.7421  H       1  <O>11       0.0528
  33 H9        7.8082     0.2142    -5.3262  H       1  <O>11       0.0528
  34 H10      11.5287    -0.7548    -7.5613  H       1  <O>11       0.1921
  35 H11      10.8282    -5.3725    -6.9372  H       1  <O>11       0.0625
  36 H12       9.3218    -6.7002    -5.5862  H       1  <O>11       0.0618
  37 H13       7.6700    -5.6139    -4.1879  H       1  <O>11       0.0618
  38 H14       7.5238    -3.1984    -4.1383  H       1  <O>11       0.0624
  39 H15       8.1992    -3.5496    -1.5543  H       1  <O>11       0.0620
  40 H16       8.6765    -5.6149    -0.3711  H       1  <O>11       0.0618
  41 H17      10.4067    -5.6716     1.3376  H       1  <O>11       0.0618
  42 H18      11.6495    -3.6492     1.8591  H       1  <O>11       0.0618
  43 H19      11.1872    -1.5836     0.6808  H       1  <O>11       0.0620
@<TRIPOS>BOND
     1     1     2    1
     2     2     3    1
     3     3     4    1
     4     4     5    2
     5     4     6   am
     6     6     7    1
     7     7     8    1
     8     8     9   ar
     9     9    10   ar
    10    10    11   ar
    11    11    12    2
    12    11    13   ar
    13    13    14   ar
    14    14    15   ar
    15    15    16   ar
    16    16    17   ar
    17    17    18   ar
    18     8    18   ar
    19    13    18   ar
    20     3    19    1
    21    19    20   ar
    22    20    21   ar
    23    21    22   ar
    24    22    23   ar
    25    23    24   ar
    26    19    24   ar
    27     1    25    1
    28     1    26    1
    29     1    27    1
    30     2    28    1
    31     2    29    1
    32     3    30    1
    33     6    31    1
    34     7    32    1
    35     7    33    1
    36    10    34    1
    37    14    35    1
    38    15    36    1
    39    16    37    1
    40    17    38    1
    41    20    39    1
    42    21    40    1
    43    22    41    1
    44    23    42    1
    45    24    43    1
