@<TRIPOS>MOLECULE
mol19_1_1
 49 52 0 0 0
SMALL
USER_CHARGES
****
VDW energy = -140.40
@<TRIPOS>ATOM
   1 O1        2.8124    -6.3749     2.8314  O.2     1  <O>11      -0.2756
   2 C1        2.5669    -5.2321     3.1878  C.2     1  <O>11       0.2161
   3 C2        2.8470    -4.0880     2.2710  C.3     1  <O>11       0.0309
   4 C3        3.4300    -4.6140     0.9690  C.3     1  <O>11       0.0138
   5 C4        3.7070    -3.4830     0.0620  C.ar    1  <O>11       0.1108
   6 N1        2.7585    -3.0617    -0.7962  N.ar    1  <O>11      -0.2337
   7 C5        3.0532    -2.0329    -1.6035  C.ar    1  <O>11       0.0781
   8 C6        2.0909    -1.5791    -2.4987  C.ar    1  <O>11      -0.0355
   9 C7        2.3350    -0.5106    -3.3680  C.ar    1  <O>11      -0.0597
  10 C8        3.5676     0.1282    -3.3500  C.ar    1  <O>11      -0.0609
  11 C9        4.5490    -0.3068    -2.4623  C.ar    1  <O>11      -0.0474
  12 C10       4.2934    -1.3909    -1.5865  C.ar    1  <O>11       0.0647
  13 C11       5.1964    -1.9098    -0.6614  C.ar    1  <O>11       0.2592
  14 O2        6.4596    -1.2877    -0.6163  O.2     1  <O>11      -0.2672
  15 N2        4.9243    -2.9416     0.1620  N.ar    1  <O>11      -0.3103
  16 N3        2.0350    -5.0010     4.4280  N.am    1  <O>11      -0.2985
  17 C12       1.7355    -3.6708     4.8763  C.3     1  <O>11       0.0304
  18 C13       2.4932    -3.3857     6.1914  C.3     1  <O>11       0.0280
  19 N4        2.2268    -4.4925     7.2160  N.pl3   1  <O>11      -0.3269
  20 C14       1.7512    -4.1983     8.5437  C.ar    1  <O>11       0.0299
  21 C15       2.6616    -3.9669     9.5890  C.ar    1  <O>11      -0.0379
  22 C16       2.1980    -3.6938    10.8805  C.ar    1  <O>11      -0.0247
  23 C17       0.8265    -3.6454    11.1394  C.ar    1  <O>11       0.1235
  24 F1        0.3669    -3.3801    12.4039  F       1  <O>11      -0.2055
  25 C18      -0.0812    -3.8701    10.0976  C.ar    1  <O>11      -0.0247
  26 C19       0.3713    -4.1413     8.8055  C.ar    1  <O>11      -0.0379
  27 C20       2.5289    -5.8812     6.6440  C.3     1  <O>11       0.0280
  28 C21       1.7550    -6.0774     5.3312  C.3     1  <O>11       0.0304
  29 H1        1.9200    -3.5530     2.0650  H       1  <O>11       0.0362
  30 H2        3.5600    -3.4120     2.7420  H       1  <O>11       0.0362
  31 H3        4.3560    -5.1500     1.1770  H       1  <O>11       0.0348
  32 H4        2.7170    -5.2910     0.4990  H       1  <O>11       0.0348
  33 H5        5.5708    -3.3228     0.8375  H       1  <O>11       0.1700
  34 H6        2.0457    -2.9530     4.1165  H       1  <O>11       0.0480
  35 H7        0.6630    -3.5785     5.0477  H       1  <O>11       0.0480
  36 H8        3.5627    -3.3372     5.9854  H       1  <O>11       0.0479
  37 H9        2.1573    -2.4319     6.5983  H       1  <O>11       0.0479
  38 H10       3.5980    -5.9684     6.4509  H       1  <O>11       0.0479
  39 H11       2.2244    -6.6420     7.3620  H       1  <O>11       0.0479
  40 H12       2.0553    -7.0204     4.8738  H       1  <O>11       0.0480
  41 H13       0.6856    -6.1005     5.5438  H       1  <O>11       0.0480
  42 H14       1.1700    -2.0442    -2.5226  H       1  <O>11       0.0639
  43 H15       1.6002    -0.1977    -4.0215  H       1  <O>11       0.0618
  44 H16       3.7548     0.9174    -3.9880  H       1  <O>11       0.0618
  45 H17       5.4675     0.1633    -2.4423  H       1  <O>11       0.0626
  46 H18       3.6762    -3.9985     9.4032  H       1  <O>11       0.0637
  47 H19       2.8717    -3.5276    11.6444  H       1  <O>11       0.0647
  48 H20      -1.0951    -3.8348    10.2868  H       1  <O>11       0.0647
  49 H21      -0.3062    -4.2999     8.0434  H       1  <O>11       0.0637
@<TRIPOS>BOND
     1     1     2    2
     2     2     3    1
     3     3     4    1
     4     4     5    1
     5     5     6   ar
     6     6     7   ar
     7     7     8   ar
     8     8     9   ar
     9     9    10   ar
    10    10    11   ar
    11    11    12   ar
    12     7    12   ar
    13    12    13   ar
    14    13    14    2
    15    13    15   ar
    16     5    15   ar
    17     2    16   am
    18    16    17    1
    19    17    18    1
    20    18    19    1
    21    19    20    1
    22    20    21   ar
    23    21    22   ar
    24    22    23   ar
    25    23    24    1
    26    23    25   ar
    27    25    26   ar
    28    20    26   ar
    29    19    27    1
    30    27    28    1
    31    16    28    1
    32     3    29    1
    33     3    30    1
    34     4    31    1
    35     4    32    1
    36    15    33    1
    37    17    34    1
    38    17    35    1
    39    18    36    1
    40    18    37    1
    41    27    38    1
    42    27    39    1
    43    28    40    1
    44    28    41    1
    45     8    42    1
    46     9    43    1
    47    10    44    1
    48    11    45    1
    49    21    46    1
    50    22    47    1
    51    25    48    1
    52    26    49    1
@<TRIPOS>MOLECULE
mol19_1_2
 49 52 0 0 0
SMALL
USER_CHARGES
****
VDW energy = -140.40
@<TRIPOS>ATOM
   1 O1        2.8124    -6.3749     2.8314  O.2     1  <O>11      -0.2756
   2 C1        2.5669    -5.2321     3.1878  C.2     1  <O>11       0.2161
   3 C2        2.8470    -4.0880     2.2710  C.3     1  <O>11       0.0309
   4 C3        3.4300    -4.6140     0.9690  C.3     1  <O>11       0.0138
   5 C4        3.7070    -3.4830     0.0620  C.ar    1  <O>11       0.1108
   6 N1        2.7585    -3.0617    -0.7962  N.ar    1  <O>11      -0.2337
   7 C5        3.0532    -2.0329    -1.6035  C.ar    1  <O>11       0.0781
   8 C6        2.0909    -1.5791    -2.4987  C.ar    1  <O>11      -0.0355
   9 C7        2.3350    -0.5106    -3.3680  C.ar    1  <O>11      -0.0597
  10 C8        3.5676     0.1282    -3.3500  C.ar    1  <O>11      -0.0609
  11 C9        4.5490    -0.3068    -2.4623  C.ar    1  <O>11      -0.0474
  12 C10       4.2934    -1.3909    -1.5865  C.ar    1  <O>11       0.0647
  13 C11       5.1964    -1.9098    -0.6614  C.ar    1  <O>11       0.2592
  14 O2        6.4596    -1.2877    -0.6163  O.2     1  <O>11      -0.2672
  15 N2        4.9243    -2.9416     0.1620  N.ar    1  <O>11      -0.3103
  16 N3        2.0350    -5.0010     4.4280  N.am    1  <O>11      -0.2985
  17 C12       1.7355    -3.6708     4.8763  C.3     1  <O>11       0.0304
  18 C13       2.4932    -3.3857     6.1914  C.3     1  <O>11       0.0280
  19 N4        2.2268    -4.4925     7.2160  N.pl3   1  <O>11      -0.3269
  20 C14       1.7512    -4.1983     8.5437  C.ar    1  <O>11       0.0299
  21 C15       0.3720    -4.1398     8.8070  C.ar    1  <O>11      -0.0379
  22 C16      -0.0884    -3.8415    10.0941  C.ar    1  <O>11      -0.0247
  23 C17       0.8200    -3.6035    11.1278  C.ar    1  <O>11       0.1235
  24 F1        0.3741    -3.3088    12.3907  F       1  <O>11      -0.2055
  25 C18       2.1941    -3.6673    10.8678  C.ar    1  <O>11      -0.0247
  26 C19       2.6631    -3.9659     9.5878  C.ar    1  <O>11      -0.0379
  27 C20       2.5289    -5.8812     6.6440  C.3     1  <O>11       0.0280
  28 C21       1.7550    -6.0774     5.3312  C.3     1  <O>11       0.0304
  29 H1        1.9200    -3.5530     2.0650  H       1  <O>11       0.0362
  30 H2        3.5600    -3.4120     2.7420  H       1  <O>11       0.0362
  31 H3        4.3560    -5.1500     1.1770  H       1  <O>11       0.0348
  32 H4        2.7170    -5.2910     0.4990  H       1  <O>11       0.0348
  33 H5        5.5708    -3.3228     0.8375  H       1  <O>11       0.1700
  34 H6        2.0457    -2.9530     4.1165  H       1  <O>11       0.0480
  35 H7        0.6630    -3.5785     5.0477  H       1  <O>11       0.0480
  36 H8        3.5627    -3.3372     5.9854  H       1  <O>11       0.0479
  37 H9        2.1573    -2.4319     6.5983  H       1  <O>11       0.0479
  38 H10       3.5980    -5.9684     6.4509  H       1  <O>11       0.0479
  39 H11       2.2244    -6.6420     7.3620  H       1  <O>11       0.0479
  40 H12       2.0553    -7.0204     4.8738  H       1  <O>11       0.0480
  41 H13       0.6856    -6.1005     5.5438  H       1  <O>11       0.0480
  42 H14       1.1700    -2.0442    -2.5226  H       1  <O>11       0.0639
  43 H15       1.6002    -0.1977    -4.0215  H       1  <O>11       0.0618
  44 H16       3.7548     0.9174    -3.9880  H       1  <O>11       0.0618
  45 H17       5.4675     0.1633    -2.4423  H       1  <O>11       0.0626
  46 H18      -0.3042    -4.3176     8.0478  H       1  <O>11       0.0637
  47 H19      -1.1025    -3.7972    10.2803  H       1  <O>11       0.0647
  48 H20       2.8670    -3.4917    11.6303  H       1  <O>11       0.0647
  49 H21       3.6781    -4.0161     9.4080  H       1  <O>11       0.0637
@<TRIPOS>BOND
     1     1     2    2
     2     2     3    1
     3     3     4    1
     4     4     5    1
     5     5     6   ar
     6     6     7   ar
     7     7     8   ar
     8     8     9   ar
     9     9    10   ar
    10    10    11   ar
    11    11    12   ar
    12     7    12   ar
    13    12    13   ar
    14    13    14    2
    15    13    15   ar
    16     5    15   ar
    17     2    16   am
    18    16    17    1
    19    17    18    1
    20    18    19    1
    21    19    20    1
    22    20    21   ar
    23    21    22   ar
    24    22    23   ar
    25    23    24    1
    26    23    25   ar
    27    25    26   ar
    28    20    26   ar
    29    19    27    1
    30    27    28    1
    31    16    28    1
    32     3    29    1
    33     3    30    1
    34     4    31    1
    35     4    32    1
    36    15    33    1
    37    17    34    1
    38    17    35    1
    39    18    36    1
    40    18    37    1
    41    27    38    1
    42    27    39    1
    43    28    40    1
    44    28    41    1
    45     8    42    1
    46     9    43    1
    47    10    44    1
    48    11    45    1
    49    21    46    1
    50    22    47    1
    51    25    48    1
    52    26    49    1
@<TRIPOS>MOLECULE
mol19_1_3
 49 52 0 0 0
SMALL
USER_CHARGES
****
VDW energy = -140.39
@<TRIPOS>ATOM
   1 O1        2.8124    -6.3749     2.8314  O.2     1  <O>11      -0.2756
   2 C1        2.5669    -5.2321     3.1878  C.2     1  <O>11       0.2161
   3 C2        2.8470    -4.0880     2.2710  C.3     1  <O>11       0.0309
   4 C3        3.4300    -4.6140     0.9690  C.3     1  <O>11       0.0138
   5 C4        3.7070    -3.4830     0.0620  C.ar    1  <O>11       0.1108
   6 N1        4.9078    -2.8742     0.0941  N.ar    1  <O>11      -0.2337
   7 C5        5.1159    -1.8498    -0.7452  C.ar    1  <O>11       0.0781
   8 C6        6.3474    -1.2043    -0.7314  C.ar    1  <O>11      -0.0355
   9 C7        6.6284    -0.1292    -1.5812  C.ar    1  <O>11      -0.0597
  10 C8        5.6622     0.3197    -2.4715  C.ar    1  <O>11      -0.0609
  11 C9        4.4201    -0.3099    -2.5055  C.ar    1  <O>11      -0.0474
  12 C10       4.1438    -1.3971    -1.6400  C.ar    1  <O>11       0.0647
  13 C11       2.9418    -2.0991    -1.5861  C.ar    1  <O>11       0.2592
  14 O2        1.9362    -1.6698    -2.4743  O.2     1  <O>11      -0.2672
  15 N2        2.7081    -3.1327    -0.7532  N.ar    1  <O>11      -0.3103
  16 N3        2.0350    -5.0010     4.4280  N.am    1  <O>11      -0.2985
  17 C12       1.7540    -6.0790     5.3330  C.3     1  <O>11       0.0304
  18 C13       0.2620    -6.0450     5.7300  C.3     1  <O>11       0.0280
  19 N4       -0.1280    -4.6530     6.2360  N.pl3   1  <O>11      -0.3269
  20 C14      -0.7690    -4.4620     7.5120  C.ar    1  <O>11       0.0299
  21 C15      -2.1706    -4.4799     7.6121  C.ar    1  <O>11      -0.0379
  22 C16      -2.7919    -4.2816     8.8500  C.ar    1  <O>11      -0.0247
  23 C17      -2.0230    -4.0683     9.9961  C.ar    1  <O>11       0.1235
  24 F1       -2.6270    -3.8715    11.2115  F       1  <O>11      -0.2055
  25 C18      -0.6265    -4.0561     9.8983  C.ar    1  <O>11      -0.0247
  26 C19       0.0026    -4.2548     8.6685  C.ar    1  <O>11      -0.0379
  27 C20       0.2460    -3.5580     5.2320  C.3     1  <O>11       0.0280
  28 C21       1.7360    -3.6730     4.8750  C.3     1  <O>11       0.0304
  29 H1        1.9200    -3.5530     2.0650  H       1  <O>11       0.0362
  30 H2        3.5600    -3.4120     2.7420  H       1  <O>11       0.0362
  31 H3        4.3560    -5.1500     1.1770  H       1  <O>11       0.0348
  32 H4        2.7170    -5.2910     0.4990  H       1  <O>11       0.0348
  33 H5        1.8417    -3.6494    -0.7086  H       1  <O>11       0.1700
  34 H6        1.9780    -7.0290     4.8470  H       1  <O>11       0.0480
  35 H7        2.3700    -5.9730     6.2260  H       1  <O>11       0.0480
  36 H8       -0.3460    -6.2940     4.8600  H       1  <O>11       0.0479
  37 H9        0.0850    -6.7760     6.5190  H       1  <O>11       0.0479
  38 H10      -0.3530    -3.6750     4.3290  H       1  <O>11       0.0479
  39 H11       0.0530    -2.5810     5.6740  H       1  <O>11       0.0479
  40 H12       1.9720    -2.9630     4.0820  H       1  <O>11       0.0480
  41 H13       2.3360    -3.4460     5.7570  H       1  <O>11       0.0480
  42 H14       7.0753    -1.5278    -0.0752  H       1  <O>11       0.0639
  43 H15       7.5522     0.3294    -1.5464  H       1  <O>11       0.0618
  44 H16       5.8623     1.1119    -3.1018  H       1  <O>11       0.0618
  45 H17       3.6969     0.0174    -3.1649  H       1  <O>11       0.0626
  46 H18      -2.7441    -4.6400     6.7692  H       1  <O>11       0.0637
  47 H19      -3.8217    -4.2931     8.9163  H       1  <O>11       0.0647
  48 H20      -0.0565    -3.8986    10.7441  H       1  <O>11       0.0647
  49 H21       1.0328    -4.2495     8.6083  H       1  <O>11       0.0637
@<TRIPOS>BOND
     1     1     2    2
     2     2     3    1
     3     3     4    1
     4     4     5    1
     5     5     6   ar
     6     6     7   ar
     7     7     8   ar
     8     8     9   ar
     9     9    10   ar
    10    10    11   ar
    11    11    12   ar
    12     7    12   ar
    13    12    13   ar
    14    13    14    2
    15    13    15   ar
    16     5    15   ar
    17     2    16   am
    18    16    17    1
    19    17    18    1
    20    18    19    1
    21    19    20    1
    22    20    21   ar
    23    21    22   ar
    24    22    23   ar
    25    23    24    1
    26    23    25   ar
    27    25    26   ar
    28    20    26   ar
    29    19    27    1
    30    27    28    1
    31    16    28    1
    32     3    29    1
    33     3    30    1
    34     4    31    1
    35     4    32    1
    36    15    33    1
    37    17    34    1
    38    17    35    1
    39    18    36    1
    40    18    37    1
    41    27    38    1
    42    27    39    1
    43    28    40    1
    44    28    41    1
    45     8    42    1
    46     9    43    1
    47    10    44    1
    48    11    45    1
    49    21    46    1
    50    22    47    1
    51    25    48    1
    52    26    49    1
@<TRIPOS>MOLECULE
mol19_1_4
 49 52 0 0 0
SMALL
USER_CHARGES
****
VDW energy = -139.80
@<TRIPOS>ATOM
   1 O1        2.8124    -6.3749     2.8314  O.2     1  <O>11      -0.2756
   2 C1        2.5669    -5.2321     3.1878  C.2     1  <O>11       0.2161
   3 C2        2.8470    -4.0880     2.2710  C.3     1  <O>11       0.0309
   4 C3        3.4300    -4.6140     0.9690  C.3     1  <O>11       0.0138
   5 C4        3.7070    -3.4830     0.0620  C.ar    1  <O>11       0.1108
   6 N1        3.4350    -2.2240     0.4550  N.ar    1  <O>11      -0.2337
   7 C5        3.7000    -1.2270    -0.4010  C.ar    1  <O>11       0.0781
   8 C6        3.4280     0.0820    -0.0190  C.ar    1  <O>11      -0.0355
   9 C7        3.6810     1.1670    -0.8650  C.ar    1  <O>11      -0.0597
  10 C8        4.2200     0.9500    -2.1260  C.ar    1  <O>11      -0.0609
  11 C9        4.5020    -0.3520    -2.5330  C.ar    1  <O>11      -0.0474
  12 C10       4.2410    -1.4450    -1.6700  C.ar    1  <O>11       0.0647
  13 C11       4.4810    -2.7840    -1.9700  C.ar    1  <O>11       0.2592
  14 O2        5.0260    -3.0430    -3.2430  O.2     1  <O>11      -0.2672
  15 N2        4.2250    -3.8040    -1.1270  N.ar    1  <O>11      -0.3103
  16 N3        2.0350    -5.0010     4.4280  N.am    1  <O>11      -0.2985
  17 C12       1.7355    -3.6708     4.8763  C.3     1  <O>11       0.0304
  18 C13       2.4932    -3.3857     6.1914  C.3     1  <O>11       0.0280
  19 N4        2.2268    -4.4925     7.2160  N.pl3   1  <O>11      -0.3269
  20 C14       1.7512    -4.1983     8.5437  C.ar    1  <O>11       0.0299
  21 C15       2.6616    -3.9669     9.5890  C.ar    1  <O>11      -0.0379
  22 C16       2.1980    -3.6938    10.8805  C.ar    1  <O>11      -0.0247
  23 C17       0.8265    -3.6454    11.1394  C.ar    1  <O>11       0.1235
  24 F1        0.3669    -3.3801    12.4039  F       1  <O>11      -0.2055
  25 C18      -0.0812    -3.8701    10.0976  C.ar    1  <O>11      -0.0247
  26 C19       0.3713    -4.1413     8.8055  C.ar    1  <O>11      -0.0379
  27 C20       2.5289    -5.8812     6.6440  C.3     1  <O>11       0.0280
  28 C21       1.7550    -6.0774     5.3312  C.3     1  <O>11       0.0304
  29 H1        1.9200    -3.5530     2.0650  H       1  <O>11       0.0362
  30 H2        3.5600    -3.4120     2.7420  H       1  <O>11       0.0362
  31 H3        4.3560    -5.1500     1.1770  H       1  <O>11       0.0348
  32 H4        2.7170    -5.2910     0.4990  H       1  <O>11       0.0348
  33 H5        4.3980    -4.7770    -1.3340  H       1  <O>11       0.1700
  34 H6        2.0457    -2.9530     4.1165  H       1  <O>11       0.0480
  35 H7        0.6630    -3.5785     5.0477  H       1  <O>11       0.0480
  36 H8        3.5627    -3.3372     5.9854  H       1  <O>11       0.0479
  37 H9        2.1573    -2.4319     6.5983  H       1  <O>11       0.0479
  38 H10       3.5980    -5.9684     6.4509  H       1  <O>11       0.0479
  39 H11       2.2244    -6.6420     7.3620  H       1  <O>11       0.0479
  40 H12       2.0553    -7.0204     4.8738  H       1  <O>11       0.0480
  41 H13       0.6856    -6.1005     5.5438  H       1  <O>11       0.0480
  42 H14       3.0278     0.2582     0.9158  H       1  <O>11       0.0639
  43 H15       3.4674     2.1270    -0.5524  H       1  <O>11       0.0618
  44 H16       4.4098     1.7454    -2.7555  H       1  <O>11       0.0618
  45 H17       4.9034    -0.5215    -3.4685  H       1  <O>11       0.0626
  46 H18       3.6762    -3.9985     9.4032  H       1  <O>11       0.0637
  47 H19       2.8717    -3.5276    11.6444  H       1  <O>11       0.0647
  48 H20      -1.0951    -3.8348    10.2868  H       1  <O>11       0.0647
  49 H21      -0.3062    -4.2999     8.0434  H       1  <O>11       0.0637
@<TRIPOS>BOND
     1     1     2    2
     2     2     3    1
     3     3     4    1
     4     4     5    1
     5     5     6   ar
     6     6     7   ar
     7     7     8   ar
     8     8     9   ar
     9     9    10   ar
    10    10    11   ar
    11    11    12   ar
    12     7    12   ar
    13    12    13   ar
    14    13    14    2
    15    13    15   ar
    16     5    15   ar
    17     2    16   am
    18    16    17    1
    19    17    18    1
    20    18    19    1
    21    19    20    1
    22    20    21   ar
    23    21    22   ar
    24    22    23   ar
    25    23    24    1
    26    23    25   ar
    27    25    26   ar
    28    20    26   ar
    29    19    27    1
    30    27    28    1
    31    16    28    1
    32     3    29    1
    33     3    30    1
    34     4    31    1
    35     4    32    1
    36    15    33    1
    37    17    34    1
    38    17    35    1
    39    18    36    1
    40    18    37    1
    41    27    38    1
    42    27    39    1
    43    28    40    1
    44    28    41    1
    45     8    42    1
    46     9    43    1
    47    10    44    1
    48    11    45    1
    49    21    46    1
    50    22    47    1
    51    25    48    1
    52    26    49    1
@<TRIPOS>MOLECULE
mol19_1_5
 49 52 0 0 0
SMALL
USER_CHARGES
****
VDW energy = -139.80
@<TRIPOS>ATOM
   1 O1        2.8124    -6.3749     2.8314  O.2     1  <O>11      -0.2756
   2 C1        2.5669    -5.2321     3.1878  C.2     1  <O>11       0.2161
   3 C2        2.8470    -4.0880     2.2710  C.3     1  <O>11       0.0309
   4 C3        3.4300    -4.6140     0.9690  C.3     1  <O>11       0.0138
   5 C4        3.7070    -3.4830     0.0620  C.ar    1  <O>11       0.1108
   6 N1        3.4350    -2.2240     0.4550  N.ar    1  <O>11      -0.2337
   7 C5        3.7000    -1.2270    -0.4010  C.ar    1  <O>11       0.0781
   8 C6        3.4280     0.0820    -0.0190  C.ar    1  <O>11      -0.0355
   9 C7        3.6810     1.1670    -0.8650  C.ar    1  <O>11      -0.0597
  10 C8        4.2200     0.9500    -2.1260  C.ar    1  <O>11      -0.0609
  11 C9        4.5020    -0.3520    -2.5330  C.ar    1  <O>11      -0.0474
  12 C10       4.2410    -1.4450    -1.6700  C.ar    1  <O>11       0.0647
  13 C11       4.4810    -2.7840    -1.9700  C.ar    1  <O>11       0.2592
  14 O2        5.0260    -3.0430    -3.2430  O.2     1  <O>11      -0.2672
  15 N2        4.2250    -3.8040    -1.1270  N.ar    1  <O>11      -0.3103
  16 N3        2.0350    -5.0010     4.4280  N.am    1  <O>11      -0.2985
  17 C12       1.7355    -3.6708     4.8763  C.3     1  <O>11       0.0304
  18 C13       2.4932    -3.3857     6.1914  C.3     1  <O>11       0.0280
  19 N4        2.2268    -4.4925     7.2160  N.pl3   1  <O>11      -0.3269
  20 C14       1.7512    -4.1983     8.5437  C.ar    1  <O>11       0.0299
  21 C15       0.3720    -4.1398     8.8070  C.ar    1  <O>11      -0.0379
  22 C16      -0.0884    -3.8415    10.0941  C.ar    1  <O>11      -0.0247
  23 C17       0.8200    -3.6035    11.1278  C.ar    1  <O>11       0.1235
  24 F1        0.3741    -3.3088    12.3907  F       1  <O>11      -0.2055
  25 C18       2.1941    -3.6673    10.8678  C.ar    1  <O>11      -0.0247
  26 C19       2.6631    -3.9659     9.5878  C.ar    1  <O>11      -0.0379
  27 C20       2.5289    -5.8812     6.6440  C.3     1  <O>11       0.0280
  28 C21       1.7550    -6.0774     5.3312  C.3     1  <O>11       0.0304
  29 H1        1.9200    -3.5530     2.0650  H       1  <O>11       0.0362
  30 H2        3.5600    -3.4120     2.7420  H       1  <O>11       0.0362
  31 H3        4.3560    -5.1500     1.1770  H       1  <O>11       0.0348
  32 H4        2.7170    -5.2910     0.4990  H       1  <O>11       0.0348
  33 H5        4.3980    -4.7770    -1.3340  H       1  <O>11       0.1700
  34 H6        2.0457    -2.9530     4.1165  H       1  <O>11       0.0480
  35 H7        0.6630    -3.5785     5.0477  H       1  <O>11       0.0480
  36 H8        3.5627    -3.3372     5.9854  H       1  <O>11       0.0479
  37 H9        2.1573    -2.4319     6.5983  H       1  <O>11       0.0479
  38 H10       3.5980    -5.9684     6.4509  H       1  <O>11       0.0479
  39 H11       2.2244    -6.6420     7.3620  H       1  <O>11       0.0479
  40 H12       2.0553    -7.0204     4.8738  H       1  <O>11       0.0480
  41 H13       0.6856    -6.1005     5.5438  H       1  <O>11       0.0480
  42 H14       3.0278     0.2582     0.9158  H       1  <O>11       0.0639
  43 H15       3.4674     2.1270    -0.5524  H       1  <O>11       0.0618
  44 H16       4.4098     1.7454    -2.7555  H       1  <O>11       0.0618
  45 H17       4.9034    -0.5215    -3.4685  H       1  <O>11       0.0626
  46 H18      -0.3042    -4.3176     8.0478  H       1  <O>11       0.0637
  47 H19      -1.1025    -3.7972    10.2803  H       1  <O>11       0.0647
  48 H20       2.8670    -3.4917    11.6303  H       1  <O>11       0.0647
  49 H21       3.6781    -4.0161     9.4080  H       1  <O>11       0.0637
@<TRIPOS>BOND
     1     1     2    2
     2     2     3    1
     3     3     4    1
     4     4     5    1
     5     5     6   ar
     6     6     7   ar
     7     7     8   ar
     8     8     9   ar
     9     9    10   ar
    10    10    11   ar
    11    11    12   ar
    12     7    12   ar
    13    12    13   ar
    14    13    14    2
    15    13    15   ar
    16     5    15   ar
    17     2    16   am
    18    16    17    1
    19    17    18    1
    20    18    19    1
    21    19    20    1
    22    20    21   ar
    23    21    22   ar
    24    22    23   ar
    25    23    24    1
    26    23    25   ar
    27    25    26   ar
    28    20    26   ar
    29    19    27    1
    30    27    28    1
    31    16    28    1
    32     3    29    1
    33     3    30    1
    34     4    31    1
    35     4    32    1
    36    15    33    1
    37    17    34    1
    38    17    35    1
    39    18    36    1
    40    18    37    1
    41    27    38    1
    42    27    39    1
    43    28    40    1
    44    28    41    1
    45     8    42    1
    46     9    43    1
    47    10    44    1
    48    11    45    1
    49    21    46    1
    50    22    47    1
    51    25    48    1
    52    26    49    1
@<TRIPOS>MOLECULE
mol19_1_6
 49 52 0 0 0
SMALL
USER_CHARGES
****
VDW energy = -139.77
@<TRIPOS>ATOM
   1 O1        2.8124    -6.3749     2.8314  O.2     1  <O>11      -0.2756
   2 C1        2.5669    -5.2321     3.1878  C.2     1  <O>11       0.2161
   3 C2        2.8470    -4.0880     2.2710  C.3     1  <O>11       0.0309
   4 C3        3.4300    -4.6140     0.9690  C.3     1  <O>11       0.0138
   5 C4        3.7070    -3.4830     0.0620  C.ar    1  <O>11       0.1108
   6 N1        3.4350    -2.2240     0.4550  N.ar    1  <O>11      -0.2337
   7 C5        3.7000    -1.2270    -0.4010  C.ar    1  <O>11       0.0781
   8 C6        3.4280     0.0820    -0.0190  C.ar    1  <O>11      -0.0355
   9 C7        3.6810     1.1670    -0.8650  C.ar    1  <O>11      -0.0597
  10 C8        4.2200     0.9500    -2.1260  C.ar    1  <O>11      -0.0609
  11 C9        4.5020    -0.3520    -2.5330  C.ar    1  <O>11      -0.0474
  12 C10       4.2410    -1.4450    -1.6700  C.ar    1  <O>11       0.0647
  13 C11       4.4810    -2.7840    -1.9700  C.ar    1  <O>11       0.2592
  14 O2        5.0260    -3.0430    -3.2430  O.2     1  <O>11      -0.2672
  15 N2        4.2250    -3.8040    -1.1270  N.ar    1  <O>11      -0.3103
  16 N3        2.0350    -5.0010     4.4280  N.am    1  <O>11      -0.2985
  17 C12       1.7540    -6.0790     5.3330  C.3     1  <O>11       0.0304
  18 C13       0.2620    -6.0450     5.7300  C.3     1  <O>11       0.0280
  19 N4       -0.1280    -4.6530     6.2360  N.pl3   1  <O>11      -0.3269
  20 C14      -0.7690    -4.4620     7.5120  C.ar    1  <O>11       0.0299
  21 C15      -2.1706    -4.4799     7.6121  C.ar    1  <O>11      -0.0379
  22 C16      -2.7919    -4.2816     8.8500  C.ar    1  <O>11      -0.0247
  23 C17      -2.0230    -4.0683     9.9961  C.ar    1  <O>11       0.1235
  24 F1       -2.6270    -3.8715    11.2115  F       1  <O>11      -0.2055
  25 C18      -0.6265    -4.0561     9.8983  C.ar    1  <O>11      -0.0247
  26 C19       0.0026    -4.2548     8.6685  C.ar    1  <O>11      -0.0379
  27 C20       0.2460    -3.5580     5.2320  C.3     1  <O>11       0.0280
  28 C21       1.7360    -3.6730     4.8750  C.3     1  <O>11       0.0304
  29 H1        1.9200    -3.5530     2.0650  H       1  <O>11       0.0362
  30 H2        3.5600    -3.4120     2.7420  H       1  <O>11       0.0362
  31 H3        4.3560    -5.1500     1.1770  H       1  <O>11       0.0348
  32 H4        2.7170    -5.2910     0.4990  H       1  <O>11       0.0348
  33 H5        4.3980    -4.7770    -1.3340  H       1  <O>11       0.1700
  34 H6        1.9780    -7.0290     4.8470  H       1  <O>11       0.0480
  35 H7        2.3700    -5.9730     6.2260  H       1  <O>11       0.0480
  36 H8       -0.3460    -6.2940     4.8600  H       1  <O>11       0.0479
  37 H9        0.0850    -6.7760     6.5190  H       1  <O>11       0.0479
  38 H10      -0.3530    -3.6750     4.3290  H       1  <O>11       0.0479
  39 H11       0.0530    -2.5810     5.6740  H       1  <O>11       0.0479
  40 H12       1.9720    -2.9630     4.0820  H       1  <O>11       0.0480
  41 H13       2.3360    -3.4460     5.7570  H       1  <O>11       0.0480
  42 H14       3.0278     0.2582     0.9158  H       1  <O>11       0.0639
  43 H15       3.4674     2.1270    -0.5524  H       1  <O>11       0.0618
  44 H16       4.4098     1.7454    -2.7555  H       1  <O>11       0.0618
  45 H17       4.9034    -0.5215    -3.4685  H       1  <O>11       0.0626
  46 H18      -2.7441    -4.6400     6.7692  H       1  <O>11       0.0637
  47 H19      -3.8217    -4.2931     8.9163  H       1  <O>11       0.0647
  48 H20      -0.0565    -3.8986    10.7441  H       1  <O>11       0.0647
  49 H21       1.0328    -4.2495     8.6083  H       1  <O>11       0.0637
@<TRIPOS>BOND
     1     1     2    2
     2     2     3    1
     3     3     4    1
     4     4     5    1
     5     5     6   ar
     6     6     7   ar
     7     7     8   ar
     8     8     9   ar
     9     9    10   ar
    10    10    11   ar
    11    11    12   ar
    12     7    12   ar
    13    12    13   ar
    14    13    14    2
    15    13    15   ar
    16     5    15   ar
    17     2    16   am
    18    16    17    1
    19    17    18    1
    20    18    19    1
    21    19    20    1
    22    20    21   ar
    23    21    22   ar
    24    22    23   ar
    25    23    24    1
    26    23    25   ar
    27    25    26   ar
    28    20    26   ar
    29    19    27    1
    30    27    28    1
    31    16    28    1
    32     3    29    1
    33     3    30    1
    34     4    31    1
    35     4    32    1
    36    15    33    1
    37    17    34    1
    38    17    35    1
    39    18    36    1
    40    18    37    1
    41    27    38    1
    42    27    39    1
    43    28    40    1
    44    28    41    1
    45     8    42    1
    46     9    43    1
    47    10    44    1
    48    11    45    1
    49    21    46    1
    50    22    47    1
    51    25    48    1
    52    26    49    1
@<TRIPOS>MOLECULE
mol19_1_7
 49 52 0 0 0
SMALL
USER_CHARGES
****
VDW energy = -139.31
@<TRIPOS>ATOM
   1 O1        2.8124    -6.3749     2.8314  O.2     1  <O>11      -0.2756
   2 C1        2.5669    -5.2321     3.1878  C.2     1  <O>11       0.2161
   3 C2        2.8470    -4.0880     2.2710  C.3     1  <O>11       0.0309
   4 C3        3.4300    -4.6140     0.9690  C.3     1  <O>11       0.0138
   5 C4        3.7072    -3.4830     0.0621  C.ar    1  <O>11       0.1108
   6 N1        3.4353    -2.2240     0.4551  N.ar    1  <O>11      -0.2337
   7 C5        3.7004    -1.2270    -0.4008  C.ar    1  <O>11       0.0781
   8 C6        3.4285     0.0820    -0.0188  C.ar    1  <O>11      -0.0355
   9 C7        3.6817     1.1671    -0.8647  C.ar    1  <O>11      -0.0597
  10 C8        4.2207     0.9501    -2.1257  C.ar    1  <O>11      -0.0609
  11 C9        4.5026    -0.3519    -2.5328  C.ar    1  <O>11      -0.0474
  12 C10       4.2414    -1.4450    -1.6698  C.ar    1  <O>11       0.0647
  13 C11       4.4813    -2.7840    -1.9699  C.ar    1  <O>11       0.2592
  14 O2        5.0263    -3.0430    -3.2429  O.2     1  <O>11      -0.2672
  15 N2        4.2252    -3.8040    -1.1269  N.ar    1  <O>11      -0.3103
  16 N3        2.0350    -5.0010     4.4280  N.am    1  <O>11      -0.2985
  17 C12       1.7355    -3.6708     4.8763  C.3     1  <O>11       0.0304
  18 C13       2.4932    -3.3857     6.1914  C.3     1  <O>11       0.0280
  19 N4        2.2268    -4.4925     7.2160  N.pl3   1  <O>11      -0.3269
  20 C14       1.7512    -4.1983     8.5437  C.ar    1  <O>11       0.0299
  21 C15       0.4726    -3.6468     8.7338  C.ar    1  <O>11      -0.0379
  22 C16       0.0171    -3.3499    10.0230  C.ar    1  <O>11      -0.0247
  23 C17       0.8287    -3.6033    11.1309  C.ar    1  <O>11       0.1235
  24 F1        0.3878    -3.3124    12.3964  F       1  <O>11      -0.2055
  25 C18       2.1002    -4.1581    10.9429  C.ar    1  <O>11      -0.0247
  26 C19       2.5628    -4.4595     9.6612  C.ar    1  <O>11      -0.0379
  27 C20       2.5289    -5.8812     6.6440  C.3     1  <O>11       0.0280
  28 C21       1.7550    -6.0774     5.3312  C.3     1  <O>11       0.0304
  29 H1        1.9200    -3.5530     2.0650  H       1  <O>11       0.0362
  30 H2        3.5600    -3.4120     2.7420  H       1  <O>11       0.0362
  31 H3        4.3559    -5.1501     1.1770  H       1  <O>11       0.0348
  32 H4        2.7170    -5.2909     0.4989  H       1  <O>11       0.0348
  33 H5        4.3981    -4.7770    -1.3340  H       1  <O>11       0.1700
  34 H6        2.0457    -2.9530     4.1165  H       1  <O>11       0.0480
  35 H7        0.6630    -3.5785     5.0477  H       1  <O>11       0.0480
  36 H8        3.5627    -3.3372     5.9854  H       1  <O>11       0.0479
  37 H9        2.1573    -2.4319     6.5983  H       1  <O>11       0.0479
  38 H10       3.5980    -5.9684     6.4509  H       1  <O>11       0.0479
  39 H11       2.2244    -6.6420     7.3620  H       1  <O>11       0.0479
  40 H12       2.0553    -7.0204     4.8738  H       1  <O>11       0.0480
  41 H13       0.6856    -6.1005     5.5438  H       1  <O>11       0.0480
  42 H14       3.0283     0.2582     0.9160  H       1  <O>11       0.0639
  43 H15       3.4682     2.1271    -0.5521  H       1  <O>11       0.0618
  44 H16       4.4106     1.7455    -2.7552  H       1  <O>11       0.0618
  45 H17       4.9040    -0.5214    -3.4683  H       1  <O>11       0.0626
  46 H18      -0.1328    -3.4600     7.9192  H       1  <O>11       0.0637
  47 H19      -0.9217    -2.9424    10.1556  H       1  <O>11       0.0647
  48 H20       2.7015    -4.3461    11.7603  H       1  <O>11       0.0647
  49 H21       3.4995    -4.8735     9.5340  H       1  <O>11       0.0637
@<TRIPOS>BOND
     1     1     2    2
     2     2     3    1
     3     3     4    1
     4     4     5    1
     5     5     6   ar
     6     6     7   ar
     7     7     8   ar
     8     8     9   ar
     9     9    10   ar
    10    10    11   ar
    11    11    12   ar
    12     7    12   ar
    13    12    13   ar
    14    13    14    2
    15    13    15   ar
    16     5    15   ar
    17     2    16   am
    18    16    17    1
    19    17    18    1
    20    18    19    1
    21    19    20    1
    22    20    21   ar
    23    21    22   ar
    24    22    23   ar
    25    23    24    1
    26    23    25   ar
    27    25    26   ar
    28    20    26   ar
    29    19    27    1
    30    27    28    1
    31    16    28    1
    32     3    29    1
    33     3    30    1
    34     4    31    1
    35     4    32    1
    36    15    33    1
    37    17    34    1
    38    17    35    1
    39    18    36    1
    40    18    37    1
    41    27    38    1
    42    27    39    1
    43    28    40    1
    44    28    41    1
    45     8    42    1
    46     9    43    1
    47    10    44    1
    48    11    45    1
    49    21    46    1
    50    22    47    1
    51    25    48    1
    52    26    49    1
@<TRIPOS>MOLECULE
mol19_1_8
 49 52 0 0 0
SMALL
USER_CHARGES
****
VDW energy = -139.27
@<TRIPOS>ATOM
   1 O1        2.8124    -6.3749     2.8314  O.2     1  <O>11      -0.2756
   2 C1        2.5669    -5.2321     3.1878  C.2     1  <O>11       0.2161
   3 C2        2.8470    -4.0880     2.2710  C.3     1  <O>11       0.0309
   4 C3        3.4300    -4.6140     0.9690  C.3     1  <O>11       0.0138
   5 C4        3.7070    -3.4830     0.0620  C.ar    1  <O>11       0.1108
   6 N1        3.4350    -2.2240     0.4550  N.ar    1  <O>11      -0.2337
   7 C5        3.7000    -1.2270    -0.4010  C.ar    1  <O>11       0.0781
   8 C6        3.4280     0.0820    -0.0190  C.ar    1  <O>11      -0.0355
   9 C7        3.6810     1.1670    -0.8650  C.ar    1  <O>11      -0.0597
  10 C8        4.2200     0.9500    -2.1260  C.ar    1  <O>11      -0.0609
  11 C9        4.5020    -0.3520    -2.5330  C.ar    1  <O>11      -0.0474
  12 C10       4.2410    -1.4450    -1.6700  C.ar    1  <O>11       0.0647
  13 C11       4.4810    -2.7840    -1.9700  C.ar    1  <O>11       0.2592
  14 O2        5.0260    -3.0430    -3.2430  O.2     1  <O>11      -0.2672
  15 N2        4.2250    -3.8040    -1.1270  N.ar    1  <O>11      -0.3103
  16 N3        2.0350    -5.0010     4.4280  N.am    1  <O>11      -0.2985
  17 C12       1.7540    -6.0790     5.3330  C.3     1  <O>11       0.0304
  18 C13       0.2620    -6.0450     5.7300  C.3     1  <O>11       0.0280
  19 N4       -0.1280    -4.6530     6.2360  N.pl3   1  <O>11      -0.3269
  20 C14      -0.7690    -4.4620     7.5120  C.ar    1  <O>11       0.0299
  21 C15      -0.0826    -4.7563     8.7024  C.ar    1  <O>11      -0.0379
  22 C16      -0.7109    -4.5823     9.9404  C.ar    1  <O>11      -0.0247
  23 C17      -2.0240    -4.1109    10.0020  C.ar    1  <O>11       0.1235
  24 F1       -2.6451    -3.9404    11.2127  F       1  <O>11      -0.2055
  25 C18      -2.7066    -3.8119     8.8168  C.ar    1  <O>11      -0.0247
  26 C19      -2.0879    -3.9804     7.5773  C.ar    1  <O>11      -0.0379
  27 C20       0.2460    -3.5580     5.2320  C.3     1  <O>11       0.0280
  28 C21       1.7360    -3.6730     4.8750  C.3     1  <O>11       0.0304
  29 H1        1.9200    -3.5530     2.0650  H       1  <O>11       0.0362
  30 H2        3.5600    -3.4120     2.7420  H       1  <O>11       0.0362
  31 H3        4.3560    -5.1500     1.1770  H       1  <O>11       0.0348
  32 H4        2.7170    -5.2910     0.4990  H       1  <O>11       0.0348
  33 H5        4.3980    -4.7770    -1.3340  H       1  <O>11       0.1700
  34 H6        1.9780    -7.0290     4.8470  H       1  <O>11       0.0480
  35 H7        2.3700    -5.9730     6.2260  H       1  <O>11       0.0480
  36 H8       -0.3460    -6.2940     4.8600  H       1  <O>11       0.0479
  37 H9        0.0850    -6.7760     6.5190  H       1  <O>11       0.0479
  38 H10      -0.3530    -3.6750     4.3290  H       1  <O>11       0.0479
  39 H11       0.0530    -2.5810     5.6740  H       1  <O>11       0.0479
  40 H12       1.9720    -2.9630     4.0820  H       1  <O>11       0.0480
  41 H13       2.3360    -3.4460     5.7570  H       1  <O>11       0.0480
  42 H14       3.0278     0.2582     0.9158  H       1  <O>11       0.0639
  43 H15       3.4674     2.1270    -0.5524  H       1  <O>11       0.0618
  44 H16       4.4098     1.7454    -2.7555  H       1  <O>11       0.0618
  45 H17       4.9034    -0.5215    -3.4685  H       1  <O>11       0.0626
  46 H18       0.8889    -5.1022     8.6634  H       1  <O>11       0.0637
  47 H19      -0.2023    -4.8029    10.8109  H       1  <O>11       0.0647
  48 H20      -3.6771    -3.4634     8.8602  H       1  <O>11       0.0647
  49 H21      -2.5980    -3.7517     6.7098  H       1  <O>11       0.0637
@<TRIPOS>BOND
     1     1     2    2
     2     2     3    1
     3     3     4    1
     4     4     5    1
     5     5     6   ar
     6     6     7   ar
     7     7     8   ar
     8     8     9   ar
     9     9    10   ar
    10    10    11   ar
    11    11    12   ar
    12     7    12   ar
    13    12    13   ar
    14    13    14    2
    15    13    15   ar
    16     5    15   ar
    17     2    16   am
    18    16    17    1
    19    17    18    1
    20    18    19    1
    21    19    20    1
    22    20    21   ar
    23    21    22   ar
    24    22    23   ar
    25    23    24    1
    26    23    25   ar
    27    25    26   ar
    28    20    26   ar
    29    19    27    1
    30    27    28    1
    31    16    28    1
    32     3    29    1
    33     3    30    1
    34     4    31    1
    35     4    32    1
    36    15    33    1
    37    17    34    1
    38    17    35    1
    39    18    36    1
    40    18    37    1
    41    27    38    1
    42    27    39    1
    43    28    40    1
    44    28    41    1
    45     8    42    1
    46     9    43    1
    47    10    44    1
    48    11    45    1
    49    21    46    1
    50    22    47    1
    51    25    48    1
    52    26    49    1
@<TRIPOS>MOLECULE
mol19_1_9
 49 52 0 0 0
SMALL
USER_CHARGES
****
VDW energy = -138.49
@<TRIPOS>ATOM
   1 O1        2.8124    -6.3749     2.8314  O.2     1  <O>11      -0.2756
   2 C1        2.5669    -5.2321     3.1878  C.2     1  <O>11       0.2161
   3 C2        2.8470    -4.0880     2.2710  C.3     1  <O>11       0.0309
   4 C3        3.4300    -4.6140     0.9690  C.3     1  <O>11       0.0138
   5 C4        3.7072    -3.4830     0.0621  C.ar    1  <O>11       0.1108
   6 N1        4.9633    -3.2588    -0.3684  N.ar    1  <O>11      -0.2337
   7 C5        5.1706    -2.2193    -1.1890  C.ar    1  <O>11       0.0781
   8 C6        6.4588    -1.9665    -1.6474  C.ar    1  <O>11      -0.0355
   9 C7        6.7422    -0.8984    -2.5052  C.ar    1  <O>11      -0.0597
  10 C8        5.7202    -0.0562    -2.9223  C.ar    1  <O>11      -0.0609
  11 C9        4.4205    -0.2878    -2.4778  C.ar    1  <O>11      -0.0474
  12 C10       4.1431    -1.3712    -1.6079  C.ar    1  <O>11       0.0647
  13 C11       2.8870    -1.6965    -1.1010  C.ar    1  <O>11       0.2592
  14 O2        1.8250    -0.8618    -1.5011  O.2     1  <O>11      -0.2672
  15 N2        2.6521    -2.7363    -0.2762  N.ar    1  <O>11      -0.3103
  16 N3        2.0350    -5.0010     4.4280  N.am    1  <O>11      -0.2985
  17 C12       1.7355    -3.6708     4.8763  C.3     1  <O>11       0.0304
  18 C13       2.4932    -3.3857     6.1914  C.3     1  <O>11       0.0280
  19 N4        2.2268    -4.4925     7.2160  N.pl3   1  <O>11      -0.3269
  20 C14       1.7512    -4.1983     8.5437  C.ar    1  <O>11       0.0299
  21 C15       2.6616    -3.9669     9.5890  C.ar    1  <O>11      -0.0379
  22 C16       2.1980    -3.6938    10.8805  C.ar    1  <O>11      -0.0247
  23 C17       0.8265    -3.6454    11.1394  C.ar    1  <O>11       0.1235
  24 F1        0.3669    -3.3801    12.4039  F       1  <O>11      -0.2055
  25 C18      -0.0812    -3.8701    10.0976  C.ar    1  <O>11      -0.0247
  26 C19       0.3713    -4.1413     8.8055  C.ar    1  <O>11      -0.0379
  27 C20       2.5289    -5.8812     6.6440  C.3     1  <O>11       0.0280
  28 C21       1.7550    -6.0774     5.3312  C.3     1  <O>11       0.0304
  29 H1        1.9200    -3.5530     2.0650  H       1  <O>11       0.0362
  30 H2        3.5600    -3.4120     2.7420  H       1  <O>11       0.0362
  31 H3        4.3559    -5.1501     1.1770  H       1  <O>11       0.0348
  32 H4        2.7170    -5.2909     0.4989  H       1  <O>11       0.0348
  33 H5        1.7454    -2.9819     0.0940  H       1  <O>11       0.1700
  34 H6        2.0457    -2.9530     4.1165  H       1  <O>11       0.0480
  35 H7        0.6630    -3.5785     5.0477  H       1  <O>11       0.0480
  36 H8        3.5627    -3.3372     5.9854  H       1  <O>11       0.0479
  37 H9        2.1573    -2.4319     6.5983  H       1  <O>11       0.0479
  38 H10       3.5980    -5.9684     6.4509  H       1  <O>11       0.0479
  39 H11       2.2244    -6.6420     7.3620  H       1  <O>11       0.0479
  40 H12       2.0553    -7.0204     4.8738  H       1  <O>11       0.0480
  41 H13       0.6856    -6.1005     5.5438  H       1  <O>11       0.0480
  42 H14       7.2282    -2.5847    -1.3459  H       1  <O>11       0.0639
  43 H15       7.7092    -0.7367    -2.8273  H       1  <O>11       0.0618
  44 H16       5.9215     0.7335    -3.5554  H       1  <O>11       0.0618
  45 H17       3.6553     0.3333    -2.7840  H       1  <O>11       0.0626
  46 H18       3.6762    -3.9985     9.4032  H       1  <O>11       0.0637
  47 H19       2.8717    -3.5276    11.6444  H       1  <O>11       0.0647
  48 H20      -1.0951    -3.8348    10.2868  H       1  <O>11       0.0647
  49 H21      -0.3062    -4.2999     8.0434  H       1  <O>11       0.0637
@<TRIPOS>BOND
     1     1     2    2
     2     2     3    1
     3     3     4    1
     4     4     5    1
     5     5     6   ar
     6     6     7   ar
     7     7     8   ar
     8     8     9   ar
     9     9    10   ar
    10    10    11   ar
    11    11    12   ar
    12     7    12   ar
    13    12    13   ar
    14    13    14    2
    15    13    15   ar
    16     5    15   ar
    17     2    16   am
    18    16    17    1
    19    17    18    1
    20    18    19    1
    21    19    20    1
    22    20    21   ar
    23    21    22   ar
    24    22    23   ar
    25    23    24    1
    26    23    25   ar
    27    25    26   ar
    28    20    26   ar
    29    19    27    1
    30    27    28    1
    31    16    28    1
    32     3    29    1
    33     3    30    1
    34     4    31    1
    35     4    32    1
    36    15    33    1
    37    17    34    1
    38    17    35    1
    39    18    36    1
    40    18    37    1
    41    27    38    1
    42    27    39    1
    43    28    40    1
    44    28    41    1
    45     8    42    1
    46     9    43    1
    47    10    44    1
    48    11    45    1
    49    21    46    1
    50    22    47    1
    51    25    48    1
    52    26    49    1
@<TRIPOS>MOLECULE
mol19_1_10
 49 52 0 0 0
SMALL
USER_CHARGES
****
VDW energy = -138.43
@<TRIPOS>ATOM
   1 O1        2.8124    -6.3749     2.8314  O.2     1  <O>11      -0.2756
   2 C1        2.5669    -5.2321     3.1878  C.2     1  <O>11       0.2161
   3 C2        2.8470    -4.0880     2.2710  C.3     1  <O>11       0.0309
   4 C3        3.4300    -4.6140     0.9690  C.3     1  <O>11       0.0138
   5 C4        3.7070    -3.4830     0.0620  C.ar    1  <O>11       0.1108
   6 N1        3.1019    -3.4211    -1.1395  N.ar    1  <O>11      -0.2337
   7 C5        3.3840    -2.3778    -1.9325  C.ar    1  <O>11       0.0781
   8 C6        2.7722    -2.2908    -3.1781  C.ar    1  <O>11      -0.0355
   9 C7        3.0235    -1.2285    -4.0529  C.ar    1  <O>11      -0.0597
  10 C8        3.9056    -0.2220    -3.6834  C.ar    1  <O>11      -0.0609
  11 C9        4.5316    -0.2852    -2.4406  C.ar    1  <O>11      -0.0474
  12 C10       4.2722    -1.3658    -1.5617  C.ar    1  <O>11       0.0647
  13 C11       4.8392    -1.5327    -0.3003  C.ar    1  <O>11       0.2592
  14 O2        5.7419    -0.5312     0.1078  O.2     1  <O>11      -0.2672
  15 N2        4.5712    -2.5709     0.5163  N.ar    1  <O>11      -0.3103
  16 N3        2.0350    -5.0010     4.4280  N.am    1  <O>11      -0.2985
  17 C12       1.7540    -6.0790     5.3330  C.3     1  <O>11       0.0304
  18 C13       0.2620    -6.0450     5.7300  C.3     1  <O>11       0.0280
  19 N4       -0.1280    -4.6530     6.2360  N.pl3   1  <O>11      -0.3269
  20 C14      -0.7690    -4.4620     7.5120  C.ar    1  <O>11       0.0299
  21 C15      -2.1706    -4.4799     7.6121  C.ar    1  <O>11      -0.0379
  22 C16      -2.7919    -4.2816     8.8500  C.ar    1  <O>11      -0.0247
  23 C17      -2.0230    -4.0683     9.9961  C.ar    1  <O>11       0.1235
  24 F1       -2.6270    -3.8715    11.2115  F       1  <O>11      -0.2055
  25 C18      -0.6265    -4.0561     9.8983  C.ar    1  <O>11      -0.0247
  26 C19       0.0026    -4.2548     8.6685  C.ar    1  <O>11      -0.0379
  27 C20       0.2460    -3.5580     5.2320  C.3     1  <O>11       0.0280
  28 C21       1.7360    -3.6730     4.8750  C.3     1  <O>11       0.0304
  29 H1        1.9200    -3.5530     2.0650  H       1  <O>11       0.0362
  30 H2        3.5600    -3.4120     2.7420  H       1  <O>11       0.0362
  31 H3        4.3560    -5.1500     1.1770  H       1  <O>11       0.0348
  32 H4        2.7170    -5.2910     0.4990  H       1  <O>11       0.0348
  33 H5        4.9746    -2.6993     1.4330  H       1  <O>11       0.1700
  34 H6        1.9780    -7.0290     4.8470  H       1  <O>11       0.0480
  35 H7        2.3700    -5.9730     6.2260  H       1  <O>11       0.0480
  36 H8       -0.3460    -6.2940     4.8600  H       1  <O>11       0.0479
  37 H9        0.0850    -6.7760     6.5190  H       1  <O>11       0.0479
  38 H10      -0.3530    -3.6750     4.3290  H       1  <O>11       0.0479
  39 H11       0.0530    -2.5810     5.6740  H       1  <O>11       0.0479
  40 H12       1.9720    -2.9630     4.0820  H       1  <O>11       0.0480
  41 H13       2.3360    -3.4460     5.7570  H       1  <O>11       0.0480
  42 H14       2.1137    -3.0316    -3.4657  H       1  <O>11       0.0639
  43 H15       2.5540    -1.1929    -4.9712  H       1  <O>11       0.0618
  44 H16       4.0957     0.5651    -4.3232  H       1  <O>11       0.0618
  45 H17       5.1880     0.4594    -2.1584  H       1  <O>11       0.0626
  46 H18      -2.7441    -4.6400     6.7692  H       1  <O>11       0.0637
  47 H19      -3.8217    -4.2931     8.9163  H       1  <O>11       0.0647
  48 H20      -0.0565    -3.8986    10.7441  H       1  <O>11       0.0647
  49 H21       1.0328    -4.2495     8.6083  H       1  <O>11       0.0637
@<TRIPOS>BOND
     1     1     2    2
     2     2     3    1
     3     3     4    1
     4     4     5    1
     5     5     6   ar
     6     6     7   ar
     7     7     8   ar
     8     8     9   ar
     9     9    10   ar
    10    10    11   ar
    11    11    12   ar
    12     7    12   ar
    13    12    13   ar
    14    13    14    2
    15    13    15   ar
    16     5    15   ar
    17     2    16   am
    18    16    17    1
    19    17    18    1
    20    18    19    1
    21    19    20    1
    22    20    21   ar
    23    21    22   ar
    24    22    23   ar
    25    23    24    1
    26    23    25   ar
    27    25    26   ar
    28    20    26   ar
    29    19    27    1
    30    27    28    1
    31    16    28    1
    32     3    29    1
    33     3    30    1
    34     4    31    1
    35     4    32    1
    36    15    33    1
    37    17    34    1
    38    17    35    1
    39    18    36    1
    40    18    37    1
    41    27    38    1
    42    27    39    1
    43    28    40    1
    44    28    41    1
    45     8    42    1
    46     9    43    1
    47    10    44    1
    48    11    45    1
    49    21    46    1
    50    22    47    1
    51    25    48    1
    52    26    49    1
@<TRIPOS>MOLECULE
mol19_1_11
 49 52 0 0 0
SMALL
USER_CHARGES
****
VDW energy = -138.36
@<TRIPOS>ATOM
   1 O1        2.8124    -6.3749     2.8314  O.2     1  <O>11      -0.2756
   2 C1        2.5669    -5.2321     3.1878  C.2     1  <O>11       0.2161
   3 C2        2.8470    -4.0880     2.2710  C.3     1  <O>11       0.0309
   4 C3        3.4300    -4.6140     0.9690  C.3     1  <O>11       0.0138
   5 C4        3.7070    -3.4830     0.0620  C.ar    1  <O>11       0.1108
   6 N1        3.1019    -3.4211    -1.1395  N.ar    1  <O>11      -0.2337
   7 C5        3.3840    -2.3778    -1.9325  C.ar    1  <O>11       0.0781
   8 C6        2.7722    -2.2908    -3.1781  C.ar    1  <O>11      -0.0355
   9 C7        3.0235    -1.2285    -4.0529  C.ar    1  <O>11      -0.0597
  10 C8        3.9056    -0.2220    -3.6834  C.ar    1  <O>11      -0.0609
  11 C9        4.5316    -0.2852    -2.4406  C.ar    1  <O>11      -0.0474
  12 C10       4.2722    -1.3658    -1.5617  C.ar    1  <O>11       0.0647
  13 C11       4.8392    -1.5327    -0.3003  C.ar    1  <O>11       0.2592
  14 O2        5.7419    -0.5312     0.1078  O.2     1  <O>11      -0.2672
  15 N2        4.5712    -2.5709     0.5163  N.ar    1  <O>11      -0.3103
  16 N3        2.0350    -5.0010     4.4280  N.am    1  <O>11      -0.2985
  17 C12       1.7355    -3.6708     4.8763  C.3     1  <O>11       0.0304
  18 C13       2.4932    -3.3857     6.1914  C.3     1  <O>11       0.0280
  19 N4        2.2268    -4.4925     7.2160  N.pl3   1  <O>11      -0.3269
  20 C14       1.7512    -4.1983     8.5437  C.ar    1  <O>11       0.0299
  21 C15       2.6616    -3.9669     9.5890  C.ar    1  <O>11      -0.0379
  22 C16       2.1980    -3.6938    10.8805  C.ar    1  <O>11      -0.0247
  23 C17       0.8265    -3.6454    11.1394  C.ar    1  <O>11       0.1235
  24 F1        0.3669    -3.3801    12.4039  F       1  <O>11      -0.2055
  25 C18      -0.0812    -3.8701    10.0976  C.ar    1  <O>11      -0.0247
  26 C19       0.3713    -4.1413     8.8055  C.ar    1  <O>11      -0.0379
  27 C20       2.5289    -5.8812     6.6440  C.3     1  <O>11       0.0280
  28 C21       1.7550    -6.0774     5.3312  C.3     1  <O>11       0.0304
  29 H1        1.9200    -3.5530     2.0650  H       1  <O>11       0.0362
  30 H2        3.5600    -3.4120     2.7420  H       1  <O>11       0.0362
  31 H3        4.3560    -5.1500     1.1770  H       1  <O>11       0.0348
  32 H4        2.7170    -5.2910     0.4990  H       1  <O>11       0.0348
  33 H5        4.9746    -2.6993     1.4330  H       1  <O>11       0.1700
  34 H6        2.0457    -2.9530     4.1165  H       1  <O>11       0.0480
  35 H7        0.6630    -3.5785     5.0477  H       1  <O>11       0.0480
  36 H8        3.5627    -3.3372     5.9854  H       1  <O>11       0.0479
  37 H9        2.1573    -2.4319     6.5983  H       1  <O>11       0.0479
  38 H10       3.5980    -5.9684     6.4509  H       1  <O>11       0.0479
  39 H11       2.2244    -6.6420     7.3620  H       1  <O>11       0.0479
  40 H12       2.0553    -7.0204     4.8738  H       1  <O>11       0.0480
  41 H13       0.6856    -6.1005     5.5438  H       1  <O>11       0.0480
  42 H14       2.1137    -3.0316    -3.4657  H       1  <O>11       0.0639
  43 H15       2.5540    -1.1929    -4.9712  H       1  <O>11       0.0618
  44 H16       4.0957     0.5651    -4.3232  H       1  <O>11       0.0618
  45 H17       5.1880     0.4594    -2.1584  H       1  <O>11       0.0626
  46 H18       3.6762    -3.9985     9.4032  H       1  <O>11       0.0637
  47 H19       2.8717    -3.5276    11.6444  H       1  <O>11       0.0647
  48 H20      -1.0951    -3.8348    10.2868  H       1  <O>11       0.0647
  49 H21      -0.3062    -4.2999     8.0434  H       1  <O>11       0.0637
@<TRIPOS>BOND
     1     1     2    2
     2     2     3    1
     3     3     4    1
     4     4     5    1
     5     5     6   ar
     6     6     7   ar
     7     7     8   ar
     8     8     9   ar
     9     9    10   ar
    10    10    11   ar
    11    11    12   ar
    12     7    12   ar
    13    12    13   ar
    14    13    14    2
    15    13    15   ar
    16     5    15   ar
    17     2    16   am
    18    16    17    1
    19    17    18    1
    20    18    19    1
    21    19    20    1
    22    20    21   ar
    23    21    22   ar
    24    22    23   ar
    25    23    24    1
    26    23    25   ar
    27    25    26   ar
    28    20    26   ar
    29    19    27    1
    30    27    28    1
    31    16    28    1
    32     3    29    1
    33     3    30    1
    34     4    31    1
    35     4    32    1
    36    15    33    1
    37    17    34    1
    38    17    35    1
    39    18    36    1
    40    18    37    1
    41    27    38    1
    42    27    39    1
    43    28    40    1
    44    28    41    1
    45     8    42    1
    46     9    43    1
    47    10    44    1
    48    11    45    1
    49    21    46    1
    50    22    47    1
    51    25    48    1
    52    26    49    1
@<TRIPOS>MOLECULE
mol19_1_12
 49 52 0 0 0
SMALL
USER_CHARGES
****
VDW energy = -138.01
@<TRIPOS>ATOM
   1 O1        2.8124    -6.3749     2.8314  O.2     1  <O>11      -0.2756
   2 C1        2.5669    -5.2321     3.1878  C.2     1  <O>11       0.2161
   3 C2        2.8470    -4.0880     2.2710  C.3     1  <O>11       0.0309
   4 C3        3.4300    -4.6140     0.9690  C.3     1  <O>11       0.0138
   5 C4        3.7072    -3.4830     0.0621  C.ar    1  <O>11       0.1108
   6 N1        4.9633    -3.2588    -0.3684  N.ar    1  <O>11      -0.2337
   7 C5        5.1706    -2.2193    -1.1890  C.ar    1  <O>11       0.0781
   8 C6        6.4588    -1.9665    -1.6474  C.ar    1  <O>11      -0.0355
   9 C7        6.7422    -0.8984    -2.5052  C.ar    1  <O>11      -0.0597
  10 C8        5.7202    -0.0562    -2.9223  C.ar    1  <O>11      -0.0609
  11 C9        4.4205    -0.2878    -2.4778  C.ar    1  <O>11      -0.0474
  12 C10       4.1431    -1.3712    -1.6079  C.ar    1  <O>11       0.0647
  13 C11       2.8870    -1.6965    -1.1010  C.ar    1  <O>11       0.2592
  14 O2        1.8250    -0.8618    -1.5011  O.2     1  <O>11      -0.2672
  15 N2        2.6521    -2.7363    -0.2762  N.ar    1  <O>11      -0.3103
  16 N3        2.0350    -5.0010     4.4280  N.am    1  <O>11      -0.2985
  17 C12       1.7355    -3.6708     4.8763  C.3     1  <O>11       0.0304
  18 C13       2.4932    -3.3857     6.1914  C.3     1  <O>11       0.0280
  19 N4        2.2268    -4.4925     7.2160  N.pl3   1  <O>11      -0.3269
  20 C14       1.7512    -4.1983     8.5437  C.ar    1  <O>11       0.0299
  21 C15       0.4726    -3.6468     8.7338  C.ar    1  <O>11      -0.0379
  22 C16       0.0171    -3.3499    10.0230  C.ar    1  <O>11      -0.0247
  23 C17       0.8287    -3.6033    11.1309  C.ar    1  <O>11       0.1235
  24 F1        0.3878    -3.3124    12.3964  F       1  <O>11      -0.2055
  25 C18       2.1002    -4.1581    10.9429  C.ar    1  <O>11      -0.0247
  26 C19       2.5628    -4.4595     9.6612  C.ar    1  <O>11      -0.0379
  27 C20       2.5289    -5.8812     6.6440  C.3     1  <O>11       0.0280
  28 C21       1.7550    -6.0774     5.3312  C.3     1  <O>11       0.0304
  29 H1        1.9200    -3.5530     2.0650  H       1  <O>11       0.0362
  30 H2        3.5600    -3.4120     2.7420  H       1  <O>11       0.0362
  31 H3        4.3559    -5.1501     1.1770  H       1  <O>11       0.0348
  32 H4        2.7170    -5.2909     0.4989  H       1  <O>11       0.0348
  33 H5        1.7454    -2.9819     0.0940  H       1  <O>11       0.1700
  34 H6        2.0457    -2.9530     4.1165  H       1  <O>11       0.0480
  35 H7        0.6630    -3.5785     5.0477  H       1  <O>11       0.0480
  36 H8        3.5627    -3.3372     5.9854  H       1  <O>11       0.0479
  37 H9        2.1573    -2.4319     6.5983  H       1  <O>11       0.0479
  38 H10       3.5980    -5.9684     6.4509  H       1  <O>11       0.0479
  39 H11       2.2244    -6.6420     7.3620  H       1  <O>11       0.0479
  40 H12       2.0553    -7.0204     4.8738  H       1  <O>11       0.0480
  41 H13       0.6856    -6.1005     5.5438  H       1  <O>11       0.0480
  42 H14       7.2282    -2.5847    -1.3459  H       1  <O>11       0.0639
  43 H15       7.7092    -0.7367    -2.8273  H       1  <O>11       0.0618
  44 H16       5.9215     0.7335    -3.5554  H       1  <O>11       0.0618
  45 H17       3.6553     0.3333    -2.7840  H       1  <O>11       0.0626
  46 H18      -0.1328    -3.4600     7.9192  H       1  <O>11       0.0637
  47 H19      -0.9217    -2.9424    10.1556  H       1  <O>11       0.0647
  48 H20       2.7015    -4.3461    11.7603  H       1  <O>11       0.0647
  49 H21       3.4995    -4.8735     9.5340  H       1  <O>11       0.0637
@<TRIPOS>BOND
     1     1     2    2
     2     2     3    1
     3     3     4    1
     4     4     5    1
     5     5     6   ar
     6     6     7   ar
     7     7     8   ar
     8     8     9   ar
     9     9    10   ar
    10    10    11   ar
    11    11    12   ar
    12     7    12   ar
    13    12    13   ar
    14    13    14    2
    15    13    15   ar
    16     5    15   ar
    17     2    16   am
    18    16    17    1
    19    17    18    1
    20    18    19    1
    21    19    20    1
    22    20    21   ar
    23    21    22   ar
    24    22    23   ar
    25    23    24    1
    26    23    25   ar
    27    25    26   ar
    28    20    26   ar
    29    19    27    1
    30    27    28    1
    31    16    28    1
    32     3    29    1
    33     3    30    1
    34     4    31    1
    35     4    32    1
    36    15    33    1
    37    17    34    1
    38    17    35    1
    39    18    36    1
    40    18    37    1
    41    27    38    1
    42    27    39    1
    43    28    40    1
    44    28    41    1
    45     8    42    1
    46     9    43    1
    47    10    44    1
    48    11    45    1
    49    21    46    1
    50    22    47    1
    51    25    48    1
    52    26    49    1
@<TRIPOS>MOLECULE
mol19_1_13
 49 52 0 0 0
SMALL
USER_CHARGES
****
VDW energy = -130.88
@<TRIPOS>ATOM
   1 O1        2.8124    -6.3749     2.8314  O.2     1  <O>11      -0.2756
   2 C1        2.5669    -5.2321     3.1878  C.2     1  <O>11       0.2161
   3 C2        2.8470    -4.0880     2.2710  C.3     1  <O>11       0.0309
   4 C3        3.4300    -4.6140     0.9690  C.3     1  <O>11       0.0138
   5 C4        4.6847    -5.3390     1.2496  C.ar    1  <O>11       0.1108
   6 N1        5.1325    -5.4426     2.5154  N.ar    1  <O>11      -0.2337
   7 C5        6.2774    -6.1076     2.7248  C.ar    1  <O>11       0.0781
   8 C6        6.7610    -6.2285     4.0229  C.ar    1  <O>11      -0.0355
   9 C7        7.9491    -6.9093     4.3090  C.ar    1  <O>11      -0.0597
  10 C8        8.6796    -7.4884     3.2800  C.ar    1  <O>11      -0.0609
  11 C9        8.2168    -7.3820     1.9704  C.ar    1  <O>11      -0.0474
  12 C10       7.0131    -6.6892     1.6899  C.ar    1  <O>11       0.0647
  13 C11       6.4572    -6.5194     0.4239  C.ar    1  <O>11       0.2592
  14 O2        7.1727    -7.0919    -0.6460  O.2     1  <O>11      -0.2672
  15 N2        5.3076    -5.8569     0.1871  N.ar    1  <O>11      -0.3103
  16 N3        2.0350    -5.0010     4.4280  N.am    1  <O>11      -0.2985
  17 C12       1.7355    -3.6708     4.8763  C.3     1  <O>11       0.0304
  18 C13       2.4932    -3.3857     6.1914  C.3     1  <O>11       0.0280
  19 N4        2.2268    -4.4925     7.2160  N.pl3   1  <O>11      -0.3269
  20 C14       1.7512    -4.1983     8.5437  C.ar    1  <O>11       0.0299
  21 C15       0.4726    -3.6468     8.7338  C.ar    1  <O>11      -0.0379
  22 C16       0.0171    -3.3499    10.0230  C.ar    1  <O>11      -0.0247
  23 C17       0.8287    -3.6033    11.1309  C.ar    1  <O>11       0.1235
  24 F1        0.3878    -3.3124    12.3964  F       1  <O>11      -0.2055
  25 C18       2.1002    -4.1581    10.9429  C.ar    1  <O>11      -0.0247
  26 C19       2.5628    -4.4595     9.6612  C.ar    1  <O>11      -0.0379
  27 C20       2.5289    -5.8812     6.6440  C.3     1  <O>11       0.0280
  28 C21       1.7550    -6.0774     5.3312  C.3     1  <O>11       0.0304
  29 H1        1.9200    -3.5530     2.0650  H       1  <O>11       0.0362
  30 H2        3.5600    -3.4120     2.7420  H       1  <O>11       0.0362
  31 H3        2.7156    -5.2897     0.4989  H       1  <O>11       0.0348
  32 H4        3.6343    -3.7792     0.2990  H       1  <O>11       0.0348
  33 H5        4.8953    -5.7309    -0.7260  H       1  <O>11       0.1700
  34 H6        2.0457    -2.9530     4.1165  H       1  <O>11       0.0480
  35 H7        0.6630    -3.5785     5.0477  H       1  <O>11       0.0480
  36 H8        3.5627    -3.3372     5.9854  H       1  <O>11       0.0479
  37 H9        2.1573    -2.4319     6.5983  H       1  <O>11       0.0479
  38 H10       3.5980    -5.9684     6.4509  H       1  <O>11       0.0479
  39 H11       2.2244    -6.6420     7.3620  H       1  <O>11       0.0479
  40 H12       2.0553    -7.0204     4.8738  H       1  <O>11       0.0480
  41 H13       0.6856    -6.1005     5.5438  H       1  <O>11       0.0480
  42 H14       6.2280    -5.8036     4.7977  H       1  <O>11       0.0639
  43 H15       8.2821    -6.9811     5.2831  H       1  <O>11       0.0618
  44 H16       9.5568    -7.9926     3.4833  H       1  <O>11       0.0618
  45 H17       8.7536    -7.8103     1.2002  H       1  <O>11       0.0626
  46 H18      -0.1328    -3.4600     7.9192  H       1  <O>11       0.0637
  47 H19      -0.9217    -2.9424    10.1556  H       1  <O>11       0.0647
  48 H20       2.7015    -4.3461    11.7603  H       1  <O>11       0.0647
  49 H21       3.4995    -4.8735     9.5340  H       1  <O>11       0.0637
@<TRIPOS>BOND
     1     1     2    2
     2     2     3    1
     3     3     4    1
     4     4     5    1
     5     5     6   ar
     6     6     7   ar
     7     7     8   ar
     8     8     9   ar
     9     9    10   ar
    10    10    11   ar
    11    11    12   ar
    12     7    12   ar
    13    12    13   ar
    14    13    14    2
    15    13    15   ar
    16     5    15   ar
    17     2    16   am
    18    16    17    1
    19    17    18    1
    20    18    19    1
    21    19    20    1
    22    20    21   ar
    23    21    22   ar
    24    22    23   ar
    25    23    24    1
    26    23    25   ar
    27    25    26   ar
    28    20    26   ar
    29    19    27    1
    30    27    28    1
    31    16    28    1
    32     3    29    1
    33     3    30    1
    34     4    31    1
    35     4    32    1
    36    15    33    1
    37    17    34    1
    38    17    35    1
    39    18    36    1
    40    18    37    1
    41    27    38    1
    42    27    39    1
    43    28    40    1
    44    28    41    1
    45     8    42    1
    46     9    43    1
    47    10    44    1
    48    11    45    1
    49    21    46    1
    50    22    47    1
    51    25    48    1
    52    26    49    1
@<TRIPOS>MOLECULE
mol19_1_14
 49 52 0 0 0
SMALL
USER_CHARGES
****
VDW energy = -130.78
@<TRIPOS>ATOM
   1 O1        2.8124    -6.3749     2.8314  O.2     1  <O>11      -0.2756
   2 C1        2.5669    -5.2321     3.1878  C.2     1  <O>11       0.2161
   3 C2        2.8470    -4.0880     2.2710  C.3     1  <O>11       0.0309
   4 C3        3.4300    -4.6140     0.9690  C.3     1  <O>11       0.0138
   5 C4        4.6847    -5.3390     1.2496  C.ar    1  <O>11       0.1108
   6 N1        5.1325    -5.4426     2.5154  N.ar    1  <O>11      -0.2337
   7 C5        6.2774    -6.1076     2.7248  C.ar    1  <O>11       0.0781
   8 C6        6.7610    -6.2285     4.0229  C.ar    1  <O>11      -0.0355
   9 C7        7.9491    -6.9093     4.3090  C.ar    1  <O>11      -0.0597
  10 C8        8.6796    -7.4884     3.2800  C.ar    1  <O>11      -0.0609
  11 C9        8.2168    -7.3820     1.9704  C.ar    1  <O>11      -0.0474
  12 C10       7.0131    -6.6892     1.6899  C.ar    1  <O>11       0.0647
  13 C11       6.4572    -6.5194     0.4239  C.ar    1  <O>11       0.2592
  14 O2        7.1727    -7.0919    -0.6460  O.2     1  <O>11      -0.2672
  15 N2        5.3076    -5.8569     0.1871  N.ar    1  <O>11      -0.3103
  16 N3        2.0350    -5.0010     4.4280  N.am    1  <O>11      -0.2985
  17 C12       1.7540    -6.0790     5.3330  C.3     1  <O>11       0.0304
  18 C13       0.2620    -6.0450     5.7300  C.3     1  <O>11       0.0280
  19 N4       -0.1280    -4.6530     6.2360  N.pl3   1  <O>11      -0.3269
  20 C14      -0.7690    -4.4620     7.5120  C.ar    1  <O>11       0.0299
  21 C15      -2.1706    -4.4799     7.6121  C.ar    1  <O>11      -0.0379
  22 C16      -2.7919    -4.2816     8.8500  C.ar    1  <O>11      -0.0247
  23 C17      -2.0230    -4.0683     9.9961  C.ar    1  <O>11       0.1235
  24 F1       -2.6270    -3.8715    11.2115  F       1  <O>11      -0.2055
  25 C18      -0.6265    -4.0561     9.8983  C.ar    1  <O>11      -0.0247
  26 C19       0.0026    -4.2548     8.6685  C.ar    1  <O>11      -0.0379
  27 C20       0.2460    -3.5580     5.2320  C.3     1  <O>11       0.0280
  28 C21       1.7360    -3.6730     4.8750  C.3     1  <O>11       0.0304
  29 H1        1.9200    -3.5530     2.0650  H       1  <O>11       0.0362
  30 H2        3.5600    -3.4120     2.7420  H       1  <O>11       0.0362
  31 H3        2.7156    -5.2897     0.4989  H       1  <O>11       0.0348
  32 H4        3.6343    -3.7792     0.2990  H       1  <O>11       0.0348
  33 H5        4.8953    -5.7309    -0.7260  H       1  <O>11       0.1700
  34 H6        1.9780    -7.0290     4.8470  H       1  <O>11       0.0480
  35 H7        2.3700    -5.9730     6.2260  H       1  <O>11       0.0480
  36 H8       -0.3460    -6.2940     4.8600  H       1  <O>11       0.0479
  37 H9        0.0850    -6.7760     6.5190  H       1  <O>11       0.0479
  38 H10      -0.3530    -3.6750     4.3290  H       1  <O>11       0.0479
  39 H11       0.0530    -2.5810     5.6740  H       1  <O>11       0.0479
  40 H12       1.9720    -2.9630     4.0820  H       1  <O>11       0.0480
  41 H13       2.3360    -3.4460     5.7570  H       1  <O>11       0.0480
  42 H14       6.2280    -5.8036     4.7977  H       1  <O>11       0.0639
  43 H15       8.2821    -6.9811     5.2831  H       1  <O>11       0.0618
  44 H16       9.5568    -7.9926     3.4833  H       1  <O>11       0.0618
  45 H17       8.7536    -7.8103     1.2002  H       1  <O>11       0.0626
  46 H18      -2.7441    -4.6400     6.7692  H       1  <O>11       0.0637
  47 H19      -3.8217    -4.2931     8.9163  H       1  <O>11       0.0647
  48 H20      -0.0565    -3.8986    10.7441  H       1  <O>11       0.0647
  49 H21       1.0328    -4.2495     8.6083  H       1  <O>11       0.0637
@<TRIPOS>BOND
     1     1     2    2
     2     2     3    1
     3     3     4    1
     4     4     5    1
     5     5     6   ar
     6     6     7   ar
     7     7     8   ar
     8     8     9   ar
     9     9    10   ar
    10    10    11   ar
    11    11    12   ar
    12     7    12   ar
    13    12    13   ar
    14    13    14    2
    15    13    15   ar
    16     5    15   ar
    17     2    16   am
    18    16    17    1
    19    17    18    1
    20    18    19    1
    21    19    20    1
    22    20    21   ar
    23    21    22   ar
    24    22    23   ar
    25    23    24    1
    26    23    25   ar
    27    25    26   ar
    28    20    26   ar
    29    19    27    1
    30    27    28    1
    31    16    28    1
    32     3    29    1
    33     3    30    1
    34     4    31    1
    35     4    32    1
    36    15    33    1
    37    17    34    1
    38    17    35    1
    39    18    36    1
    40    18    37    1
    41    27    38    1
    42    27    39    1
    43    28    40    1
    44    28    41    1
    45     8    42    1
    46     9    43    1
    47    10    44    1
    48    11    45    1
    49    21    46    1
    50    22    47    1
    51    25    48    1
    52    26    49    1
@<TRIPOS>MOLECULE
mol19_1_15
 49 52 0 0 0
SMALL
USER_CHARGES
****
VDW energy = -130.78
@<TRIPOS>ATOM
   1 O1        2.8124    -6.3749     2.8314  O.2     1  <O>11      -0.2756
   2 C1        2.5669    -5.2321     3.1878  C.2     1  <O>11       0.2161
   3 C2        2.8470    -4.0880     2.2710  C.3     1  <O>11       0.0309
   4 C3        3.4300    -4.6140     0.9690  C.3     1  <O>11       0.0138
   5 C4        2.4637    -5.5303     0.3324  C.ar    1  <O>11       0.1108
   6 N1        1.2797    -5.7761     0.9249  N.ar    1  <O>11      -0.2337
   7 C5        0.4329    -6.6163     0.3134  C.ar    1  <O>11       0.0781
   8 C6       -0.7960    -6.8867     0.9049  C.ar    1  <O>11      -0.0355
   9 C7       -1.7241    -7.7539     0.3187  C.ar    1  <O>11      -0.0597
  10 C8       -1.4274    -8.3710    -0.8891  C.ar    1  <O>11      -0.0609
  11 C9       -0.2030    -8.1168    -1.5028  C.ar    1  <O>11      -0.0474
  12 C10       0.7316    -7.2382    -0.9010  C.ar    1  <O>11       0.0647
  13 C11       1.9819    -6.9119    -1.4214  C.ar    1  <O>11       0.2592
  14 O2        2.3188    -7.5215    -2.6459  O.2     1  <O>11      -0.2672
  15 N2        2.8502    -6.0695    -0.8273  N.ar    1  <O>11      -0.3103
  16 N3        2.0350    -5.0010     4.4280  N.am    1  <O>11      -0.2985
  17 C12       1.7540    -6.0790     5.3330  C.3     1  <O>11       0.0304
  18 C13       0.2620    -6.0450     5.7300  C.3     1  <O>11       0.0280
  19 N4       -0.1280    -4.6530     6.2360  N.pl3   1  <O>11      -0.3269
  20 C14      -0.7690    -4.4620     7.5120  C.ar    1  <O>11       0.0299
  21 C15      -0.0826    -4.7563     8.7024  C.ar    1  <O>11      -0.0379
  22 C16      -0.7109    -4.5823     9.9404  C.ar    1  <O>11      -0.0247
  23 C17      -2.0240    -4.1109    10.0020  C.ar    1  <O>11       0.1235
  24 F1       -2.6451    -3.9404    11.2127  F       1  <O>11      -0.2055
  25 C18      -2.7066    -3.8119     8.8168  C.ar    1  <O>11      -0.0247
  26 C19      -2.0879    -3.9804     7.5773  C.ar    1  <O>11      -0.0379
  27 C20       0.2460    -3.5580     5.2320  C.3     1  <O>11       0.0280
  28 C21       1.7360    -3.6730     4.8750  C.3     1  <O>11       0.0304
  29 H1        1.9200    -3.5530     2.0650  H       1  <O>11       0.0362
  30 H2        3.5600    -3.4120     2.7420  H       1  <O>11       0.0362
  31 H3        3.6354    -3.7782     0.3001  H       1  <O>11       0.0348
  32 H4        4.3566    -5.1490     1.1758  H       1  <O>11       0.0348
  33 H5        3.7571    -5.8246    -1.1978  H       1  <O>11       0.1700
  34 H6        1.9780    -7.0290     4.8470  H       1  <O>11       0.0480
  35 H7        2.3700    -5.9730     6.2260  H       1  <O>11       0.0480
  36 H8       -0.3460    -6.2940     4.8600  H       1  <O>11       0.0479
  37 H9        0.0850    -6.7760     6.5190  H       1  <O>11       0.0479
  38 H10      -0.3530    -3.6750     4.3290  H       1  <O>11       0.0479
  39 H11       0.0530    -2.5810     5.6740  H       1  <O>11       0.0479
  40 H12       1.9720    -2.9630     4.0820  H       1  <O>11       0.0480
  41 H13       2.3360    -3.4460     5.7570  H       1  <O>11       0.0480
  42 H14      -1.0302    -6.4346     1.8026  H       1  <O>11       0.0639
  43 H15      -2.6277    -7.9347     0.7832  H       1  <O>11       0.0618
  44 H16      -2.1071    -9.0115    -1.3279  H       1  <O>11       0.0618
  45 H17       0.0248    -8.5710    -2.4011  H       1  <O>11       0.0626
  46 H18       0.8889    -5.1022     8.6634  H       1  <O>11       0.0637
  47 H19      -0.2023    -4.8029    10.8109  H       1  <O>11       0.0647
  48 H20      -3.6771    -3.4634     8.8602  H       1  <O>11       0.0647
  49 H21      -2.5980    -3.7517     6.7098  H       1  <O>11       0.0637
@<TRIPOS>BOND
     1     1     2    2
     2     2     3    1
     3     3     4    1
     4     4     5    1
     5     5     6   ar
     6     6     7   ar
     7     7     8   ar
     8     8     9   ar
     9     9    10   ar
    10    10    11   ar
    11    11    12   ar
    12     7    12   ar
    13    12    13   ar
    14    13    14    2
    15    13    15   ar
    16     5    15   ar
    17     2    16   am
    18    16    17    1
    19    17    18    1
    20    18    19    1
    21    19    20    1
    22    20    21   ar
    23    21    22   ar
    24    22    23   ar
    25    23    24    1
    26    23    25   ar
    27    25    26   ar
    28    20    26   ar
    29    19    27    1
    30    27    28    1
    31    16    28    1
    32     3    29    1
    33     3    30    1
    34     4    31    1
    35     4    32    1
    36    15    33    1
    37    17    34    1
    38    17    35    1
    39    18    36    1
    40    18    37    1
    41    27    38    1
    42    27    39    1
    43    28    40    1
    44    28    41    1
    45     8    42    1
    46     9    43    1
    47    10    44    1
    48    11    45    1
    49    21    46    1
    50    22    47    1
    51    25    48    1
    52    26    49    1
@<TRIPOS>MOLECULE
mol19_1_16
 49 52 0 0 0
SMALL
USER_CHARGES
****
VDW energy = -130.29
@<TRIPOS>ATOM
   1 O1        2.8124    -6.3749     2.8314  O.2     1  <O>11      -0.2756
   2 C1        2.5669    -5.2321     3.1878  C.2     1  <O>11       0.2161
   3 C2        2.8470    -4.0880     2.2710  C.3     1  <O>11       0.0309
   4 C3        3.4300    -4.6140     0.9690  C.3     1  <O>11       0.0138
   5 C4        4.6847    -5.3390     1.2496  C.ar    1  <O>11       0.1108
   6 N1        5.1325    -5.4426     2.5154  N.ar    1  <O>11      -0.2337
   7 C5        6.2774    -6.1076     2.7248  C.ar    1  <O>11       0.0781
   8 C6        6.7610    -6.2285     4.0229  C.ar    1  <O>11      -0.0355
   9 C7        7.9491    -6.9093     4.3090  C.ar    1  <O>11      -0.0597
  10 C8        8.6796    -7.4884     3.2800  C.ar    1  <O>11      -0.0609
  11 C9        8.2168    -7.3820     1.9704  C.ar    1  <O>11      -0.0474
  12 C10       7.0131    -6.6892     1.6899  C.ar    1  <O>11       0.0647
  13 C11       6.4572    -6.5194     0.4239  C.ar    1  <O>11       0.2592
  14 O2        7.1727    -7.0919    -0.6460  O.2     1  <O>11      -0.2672
  15 N2        5.3076    -5.8569     0.1871  N.ar    1  <O>11      -0.3103
  16 N3        2.0350    -5.0010     4.4280  N.am    1  <O>11      -0.2985
  17 C12       1.7540    -6.0790     5.3330  C.3     1  <O>11       0.0304
  18 C13       0.2620    -6.0450     5.7300  C.3     1  <O>11       0.0280
  19 N4       -0.1280    -4.6530     6.2360  N.pl3   1  <O>11      -0.3269
  20 C14      -0.7690    -4.4620     7.5120  C.ar    1  <O>11       0.0299
  21 C15      -0.0826    -4.7563     8.7024  C.ar    1  <O>11      -0.0379
  22 C16      -0.7109    -4.5823     9.9404  C.ar    1  <O>11      -0.0247
  23 C17      -2.0240    -4.1109    10.0020  C.ar    1  <O>11       0.1235
  24 F1       -2.6451    -3.9404    11.2127  F       1  <O>11      -0.2055
  25 C18      -2.7066    -3.8119     8.8168  C.ar    1  <O>11      -0.0247
  26 C19      -2.0879    -3.9804     7.5773  C.ar    1  <O>11      -0.0379
  27 C20       0.2460    -3.5580     5.2320  C.3     1  <O>11       0.0280
  28 C21       1.7360    -3.6730     4.8750  C.3     1  <O>11       0.0304
  29 H1        1.9200    -3.5530     2.0650  H       1  <O>11       0.0362
  30 H2        3.5600    -3.4120     2.7420  H       1  <O>11       0.0362
  31 H3        2.7156    -5.2897     0.4989  H       1  <O>11       0.0348
  32 H4        3.6343    -3.7792     0.2990  H       1  <O>11       0.0348
  33 H5        4.8953    -5.7309    -0.7260  H       1  <O>11       0.1700
  34 H6        1.9780    -7.0290     4.8470  H       1  <O>11       0.0480
  35 H7        2.3700    -5.9730     6.2260  H       1  <O>11       0.0480
  36 H8       -0.3460    -6.2940     4.8600  H       1  <O>11       0.0479
  37 H9        0.0850    -6.7760     6.5190  H       1  <O>11       0.0479
  38 H10      -0.3530    -3.6750     4.3290  H       1  <O>11       0.0479
  39 H11       0.0530    -2.5810     5.6740  H       1  <O>11       0.0479
  40 H12       1.9720    -2.9630     4.0820  H       1  <O>11       0.0480
  41 H13       2.3360    -3.4460     5.7570  H       1  <O>11       0.0480
  42 H14       6.2280    -5.8036     4.7977  H       1  <O>11       0.0639
  43 H15       8.2821    -6.9811     5.2831  H       1  <O>11       0.0618
  44 H16       9.5568    -7.9926     3.4833  H       1  <O>11       0.0618
  45 H17       8.7536    -7.8103     1.2002  H       1  <O>11       0.0626
  46 H18       0.8889    -5.1022     8.6634  H       1  <O>11       0.0637
  47 H19      -0.2023    -4.8029    10.8109  H       1  <O>11       0.0647
  48 H20      -3.6771    -3.4634     8.8602  H       1  <O>11       0.0647
  49 H21      -2.5980    -3.7517     6.7098  H       1  <O>11       0.0637
@<TRIPOS>BOND
     1     1     2    2
     2     2     3    1
     3     3     4    1
     4     4     5    1
     5     5     6   ar
     6     6     7   ar
     7     7     8   ar
     8     8     9   ar
     9     9    10   ar
    10    10    11   ar
    11    11    12   ar
    12     7    12   ar
    13    12    13   ar
    14    13    14    2
    15    13    15   ar
    16     5    15   ar
    17     2    16   am
    18    16    17    1
    19    17    18    1
    20    18    19    1
    21    19    20    1
    22    20    21   ar
    23    21    22   ar
    24    22    23   ar
    25    23    24    1
    26    23    25   ar
    27    25    26   ar
    28    20    26   ar
    29    19    27    1
    30    27    28    1
    31    16    28    1
    32     3    29    1
    33     3    30    1
    34     4    31    1
    35     4    32    1
    36    15    33    1
    37    17    34    1
    38    17    35    1
    39    18    36    1
    40    18    37    1
    41    27    38    1
    42    27    39    1
    43    28    40    1
    44    28    41    1
    45     8    42    1
    46     9    43    1
    47    10    44    1
    48    11    45    1
    49    21    46    1
    50    22    47    1
    51    25    48    1
    52    26    49    1
@<TRIPOS>MOLECULE
mol19_1_17
 49 52 0 0 0
SMALL
USER_CHARGES
****
VDW energy = -130.28
@<TRIPOS>ATOM
   1 O1        2.8124    -6.3749     2.8314  O.2     1  <O>11      -0.2756
   2 C1        2.5669    -5.2321     3.1878  C.2     1  <O>11       0.2161
   3 C2        2.8470    -4.0880     2.2710  C.3     1  <O>11       0.0309
   4 C3        3.4300    -4.6140     0.9690  C.3     1  <O>11       0.0138
   5 C4        2.4637    -5.5303     0.3324  C.ar    1  <O>11       0.1108
   6 N1        1.2797    -5.7761     0.9249  N.ar    1  <O>11      -0.2337
   7 C5        0.4329    -6.6163     0.3134  C.ar    1  <O>11       0.0781
   8 C6       -0.7960    -6.8867     0.9049  C.ar    1  <O>11      -0.0355
   9 C7       -1.7241    -7.7539     0.3187  C.ar    1  <O>11      -0.0597
  10 C8       -1.4274    -8.3710    -0.8891  C.ar    1  <O>11      -0.0609
  11 C9       -0.2030    -8.1168    -1.5028  C.ar    1  <O>11      -0.0474
  12 C10       0.7316    -7.2382    -0.9010  C.ar    1  <O>11       0.0647
  13 C11       1.9819    -6.9119    -1.4214  C.ar    1  <O>11       0.2592
  14 O2        2.3188    -7.5215    -2.6459  O.2     1  <O>11      -0.2672
  15 N2        2.8502    -6.0695    -0.8273  N.ar    1  <O>11      -0.3103
  16 N3        2.0350    -5.0010     4.4280  N.am    1  <O>11      -0.2985
  17 C12       1.7355    -3.6708     4.8763  C.3     1  <O>11       0.0304
  18 C13       2.4932    -3.3857     6.1914  C.3     1  <O>11       0.0280
  19 N4        2.2268    -4.4925     7.2160  N.pl3   1  <O>11      -0.3269
  20 C14       1.7512    -4.1983     8.5437  C.ar    1  <O>11       0.0299
  21 C15       0.4726    -3.6468     8.7338  C.ar    1  <O>11      -0.0379
  22 C16       0.0171    -3.3499    10.0230  C.ar    1  <O>11      -0.0247
  23 C17       0.8287    -3.6033    11.1309  C.ar    1  <O>11       0.1235
  24 F1        0.3878    -3.3124    12.3964  F       1  <O>11      -0.2055
  25 C18       2.1002    -4.1581    10.9429  C.ar    1  <O>11      -0.0247
  26 C19       2.5628    -4.4595     9.6612  C.ar    1  <O>11      -0.0379
  27 C20       2.5289    -5.8812     6.6440  C.3     1  <O>11       0.0280
  28 C21       1.7550    -6.0774     5.3312  C.3     1  <O>11       0.0304
  29 H1        1.9200    -3.5530     2.0650  H       1  <O>11       0.0362
  30 H2        3.5600    -3.4120     2.7420  H       1  <O>11       0.0362
  31 H3        3.6354    -3.7782     0.3001  H       1  <O>11       0.0348
  32 H4        4.3566    -5.1490     1.1758  H       1  <O>11       0.0348
  33 H5        3.7571    -5.8246    -1.1978  H       1  <O>11       0.1700
  34 H6        2.0457    -2.9530     4.1165  H       1  <O>11       0.0480
  35 H7        0.6630    -3.5785     5.0477  H       1  <O>11       0.0480
  36 H8        3.5627    -3.3372     5.9854  H       1  <O>11       0.0479
  37 H9        2.1573    -2.4319     6.5983  H       1  <O>11       0.0479
  38 H10       3.5980    -5.9684     6.4509  H       1  <O>11       0.0479
  39 H11       2.2244    -6.6420     7.3620  H       1  <O>11       0.0479
  40 H12       2.0553    -7.0204     4.8738  H       1  <O>11       0.0480
  41 H13       0.6856    -6.1005     5.5438  H       1  <O>11       0.0480
  42 H14      -1.0302    -6.4346     1.8026  H       1  <O>11       0.0639
  43 H15      -2.6277    -7.9347     0.7832  H       1  <O>11       0.0618
  44 H16      -2.1071    -9.0115    -1.3279  H       1  <O>11       0.0618
  45 H17       0.0248    -8.5710    -2.4011  H       1  <O>11       0.0626
  46 H18      -0.1328    -3.4600     7.9192  H       1  <O>11       0.0637
  47 H19      -0.9217    -2.9424    10.1556  H       1  <O>11       0.0647
  48 H20       2.7015    -4.3461    11.7603  H       1  <O>11       0.0647
  49 H21       3.4995    -4.8735     9.5340  H       1  <O>11       0.0637
@<TRIPOS>BOND
     1     1     2    2
     2     2     3    1
     3     3     4    1
     4     4     5    1
     5     5     6   ar
     6     6     7   ar
     7     7     8   ar
     8     8     9   ar
     9     9    10   ar
    10    10    11   ar
    11    11    12   ar
    12     7    12   ar
    13    12    13   ar
    14    13    14    2
    15    13    15   ar
    16     5    15   ar
    17     2    16   am
    18    16    17    1
    19    17    18    1
    20    18    19    1
    21    19    20    1
    22    20    21   ar
    23    21    22   ar
    24    22    23   ar
    25    23    24    1
    26    23    25   ar
    27    25    26   ar
    28    20    26   ar
    29    19    27    1
    30    27    28    1
    31    16    28    1
    32     3    29    1
    33     3    30    1
    34     4    31    1
    35     4    32    1
    36    15    33    1
    37    17    34    1
    38    17    35    1
    39    18    36    1
    40    18    37    1
    41    27    38    1
    42    27    39    1
    43    28    40    1
    44    28    41    1
    45     8    42    1
    46     9    43    1
    47    10    44    1
    48    11    45    1
    49    21    46    1
    50    22    47    1
    51    25    48    1
    52    26    49    1
@<TRIPOS>MOLECULE
mol19_1_18
 49 52 0 0 0
SMALL
USER_CHARGES
****
VDW energy = -129.09
@<TRIPOS>ATOM
   1 O1        2.8124    -6.3749     2.8314  O.2     1  <O>11      -0.2756
   2 C1        2.5669    -5.2321     3.1878  C.2     1  <O>11       0.2161
   3 C2        2.8470    -4.0880     2.2710  C.3     1  <O>11       0.0309
   4 C3        3.4300    -4.6140     0.9690  C.3     1  <O>11       0.0138
   5 C4        3.7070    -3.4830     0.0620  C.ar    1  <O>11       0.1108
   6 N1        3.4350    -2.2240     0.4550  N.ar    1  <O>11      -0.2337
   7 C5        3.7000    -1.2270    -0.4010  C.ar    1  <O>11       0.0781
   8 C6        3.4280     0.0820    -0.0190  C.ar    1  <O>11      -0.0355
   9 C7        3.6810     1.1670    -0.8650  C.ar    1  <O>11      -0.0597
  10 C8        4.2200     0.9500    -2.1260  C.ar    1  <O>11      -0.0609
  11 C9        4.5020    -0.3520    -2.5330  C.ar    1  <O>11      -0.0474
  12 C10       4.2410    -1.4450    -1.6700  C.ar    1  <O>11       0.0647
  13 C11       4.4810    -2.7840    -1.9700  C.ar    1  <O>11       0.2592
  14 O2        5.0260    -3.0430    -3.2430  O.2     1  <O>11      -0.2672
  15 N2        4.2250    -3.8040    -1.1270  N.ar    1  <O>11      -0.3103
  16 N3        2.0350    -5.0010     4.4280  N.am    1  <O>11      -0.2985
  17 C12       1.7355    -3.6708     4.8763  C.3     1  <O>11       0.0304
  18 C13       2.4932    -3.3857     6.1914  C.3     1  <O>11       0.0280
  19 N4        2.2268    -4.4925     7.2160  N.pl3   1  <O>11      -0.3269
  20 C14       1.7512    -4.1983     8.5437  C.ar    1  <O>11       0.0299
  21 C15       1.5166    -5.2375     9.4603  C.ar    1  <O>11      -0.0379
  22 C16       1.0426    -4.9510    10.7451  C.ar    1  <O>11      -0.0247
  23 C17       0.8027    -3.6294    11.1273  C.ar    1  <O>11       0.1235
  24 F1        0.3363    -3.3433    12.3848  F       1  <O>11      -0.2055
  25 C18       1.0417    -2.5931    10.2169  C.ar    1  <O>11      -0.0247
  26 C19       1.5163    -2.8685     8.9337  C.ar    1  <O>11      -0.0379
  27 C20       2.5289    -5.8812     6.6440  C.3     1  <O>11       0.0280
  28 C21       1.7550    -6.0774     5.3312  C.3     1  <O>11       0.0304
  29 H1        1.9200    -3.5530     2.0650  H       1  <O>11       0.0362
  30 H2        3.5600    -3.4120     2.7420  H       1  <O>11       0.0362
  31 H3        4.3560    -5.1500     1.1770  H       1  <O>11       0.0348
  32 H4        2.7170    -5.2910     0.4990  H       1  <O>11       0.0348
  33 H5        4.3980    -4.7770    -1.3340  H       1  <O>11       0.1700
  34 H6        2.0457    -2.9530     4.1165  H       1  <O>11       0.0480
  35 H7        0.6630    -3.5785     5.0477  H       1  <O>11       0.0480
  36 H8        3.5627    -3.3372     5.9854  H       1  <O>11       0.0479
  37 H9        2.1573    -2.4319     6.5983  H       1  <O>11       0.0479
  38 H10       3.5980    -5.9684     6.4509  H       1  <O>11       0.0479
  39 H11       2.2244    -6.6420     7.3620  H       1  <O>11       0.0479
  40 H12       2.0553    -7.0204     4.8738  H       1  <O>11       0.0480
  41 H13       0.6856    -6.1005     5.5438  H       1  <O>11       0.0480
  42 H14       3.0278     0.2582     0.9158  H       1  <O>11       0.0639
  43 H15       3.4674     2.1270    -0.5524  H       1  <O>11       0.0618
  44 H16       4.4098     1.7454    -2.7555  H       1  <O>11       0.0618
  45 H17       4.9034    -0.5215    -3.4685  H       1  <O>11       0.0626
  46 H18       1.6947    -6.2159     9.1846  H       1  <O>11       0.0637
  47 H19       0.8696    -5.7189    11.4126  H       1  <O>11       0.0647
  48 H20       0.8651    -1.6158    10.4974  H       1  <O>11       0.0647
  49 H21       1.6945    -2.0968     8.2721  H       1  <O>11       0.0637
@<TRIPOS>BOND
     1     1     2    2
     2     2     3    1
     3     3     4    1
     4     4     5    1
     5     5     6   ar
     6     6     7   ar
     7     7     8   ar
     8     8     9   ar
     9     9    10   ar
    10    10    11   ar
    11    11    12   ar
    12     7    12   ar
    13    12    13   ar
    14    13    14    2
    15    13    15   ar
    16     5    15   ar
    17     2    16   am
    18    16    17    1
    19    17    18    1
    20    18    19    1
    21    19    20    1
    22    20    21   ar
    23    21    22   ar
    24    22    23   ar
    25    23    24    1
    26    23    25   ar
    27    25    26   ar
    28    20    26   ar
    29    19    27    1
    30    27    28    1
    31    16    28    1
    32     3    29    1
    33     3    30    1
    34     4    31    1
    35     4    32    1
    36    15    33    1
    37    17    34    1
    38    17    35    1
    39    18    36    1
    40    18    37    1
    41    27    38    1
    42    27    39    1
    43    28    40    1
    44    28    41    1
    45     8    42    1
    46     9    43    1
    47    10    44    1
    48    11    45    1
    49    21    46    1
    50    22    47    1
    51    25    48    1
    52    26    49    1
@<TRIPOS>MOLECULE
mol19_1_19
 49 52 0 0 0
SMALL
USER_CHARGES
****
VDW energy = -129.06
@<TRIPOS>ATOM
   1 O1        2.8124    -6.3749     2.8314  O.2     1  <O>11      -0.2756
   2 C1        2.5669    -5.2321     3.1878  C.2     1  <O>11       0.2161
   3 C2        2.8470    -4.0880     2.2710  C.3     1  <O>11       0.0309
   4 C3        3.4300    -4.6140     0.9690  C.3     1  <O>11       0.0138
   5 C4        3.7070    -3.4830     0.0620  C.ar    1  <O>11       0.1108
   6 N1        3.4350    -2.2240     0.4550  N.ar    1  <O>11      -0.2337
   7 C5        3.7000    -1.2270    -0.4010  C.ar    1  <O>11       0.0781
   8 C6        3.4280     0.0820    -0.0190  C.ar    1  <O>11      -0.0355
   9 C7        3.6810     1.1670    -0.8650  C.ar    1  <O>11      -0.0597
  10 C8        4.2200     0.9500    -2.1260  C.ar    1  <O>11      -0.0609
  11 C9        4.5020    -0.3520    -2.5330  C.ar    1  <O>11      -0.0474
  12 C10       4.2410    -1.4450    -1.6700  C.ar    1  <O>11       0.0647
  13 C11       4.4810    -2.7840    -1.9700  C.ar    1  <O>11       0.2592
  14 O2        5.0260    -3.0430    -3.2430  O.2     1  <O>11      -0.2672
  15 N2        4.2250    -3.8040    -1.1270  N.ar    1  <O>11      -0.3103
  16 N3        2.0350    -5.0010     4.4280  N.am    1  <O>11      -0.2985
  17 C12       1.7540    -6.0790     5.3330  C.3     1  <O>11       0.0304
  18 C13       0.2620    -6.0450     5.7300  C.3     1  <O>11       0.0280
  19 N4       -0.1280    -4.6530     6.2360  N.pl3   1  <O>11      -0.3269
  20 C14      -0.7690    -4.4620     7.5120  C.ar    1  <O>11       0.0299
  21 C15      -1.1140    -3.1710     7.9470  C.ar    1  <O>11      -0.0379
  22 C16      -1.7250    -2.9860     9.1920  C.ar    1  <O>11      -0.0247
  23 C17      -2.0000    -4.0840    10.0100  C.ar    1  <O>11       0.1235
  24 F1       -2.5970    -3.9080    11.2320  F       1  <O>11      -0.2055
  25 C18      -1.6620    -5.3710     9.5750  C.ar    1  <O>11      -0.0247
  26 C19      -1.0540    -5.5660     8.3340  C.ar    1  <O>11      -0.0379
  27 C20       0.2460    -3.5580     5.2320  C.3     1  <O>11       0.0280
  28 C21       1.7360    -3.6730     4.8750  C.3     1  <O>11       0.0304
  29 H1        1.9200    -3.5530     2.0650  H       1  <O>11       0.0362
  30 H2        3.5600    -3.4120     2.7420  H       1  <O>11       0.0362
  31 H3        4.3560    -5.1500     1.1770  H       1  <O>11       0.0348
  32 H4        2.7170    -5.2910     0.4990  H       1  <O>11       0.0348
  33 H5        4.3980    -4.7770    -1.3340  H       1  <O>11       0.1700
  34 H6        1.9780    -7.0290     4.8470  H       1  <O>11       0.0480
  35 H7        2.3700    -5.9730     6.2260  H       1  <O>11       0.0480
  36 H8       -0.3460    -6.2940     4.8600  H       1  <O>11       0.0479
  37 H9        0.0850    -6.7760     6.5190  H       1  <O>11       0.0479
  38 H10      -0.3530    -3.6750     4.3290  H       1  <O>11       0.0479
  39 H11       0.0530    -2.5810     5.6740  H       1  <O>11       0.0479
  40 H12       1.9720    -2.9630     4.0820  H       1  <O>11       0.0480
  41 H13       2.3360    -3.4460     5.7570  H       1  <O>11       0.0480
  42 H14       3.0278     0.2582     0.9158  H       1  <O>11       0.0639
  43 H15       3.4674     2.1270    -0.5524  H       1  <O>11       0.0618
  44 H16       4.4098     1.7454    -2.7555  H       1  <O>11       0.0618
  45 H17       4.9034    -0.5215    -3.4685  H       1  <O>11       0.0626
  46 H18      -0.9159    -2.3560     7.3457  H       1  <O>11       0.0637
  47 H19      -1.9733    -2.0351     9.5069  H       1  <O>11       0.0647
  48 H20      -1.8644    -6.1837    10.1780  H       1  <O>11       0.0647
  49 H21      -0.8140    -6.5194     8.0203  H       1  <O>11       0.0637
@<TRIPOS>BOND
     1     1     2    2
     2     2     3    1
     3     3     4    1
     4     4     5    1
     5     5     6   ar
     6     6     7   ar
     7     7     8   ar
     8     8     9   ar
     9     9    10   ar
    10    10    11   ar
    11    11    12   ar
    12     7    12   ar
    13    12    13   ar
    14    13    14    2
    15    13    15   ar
    16     5    15   ar
    17     2    16   am
    18    16    17    1
    19    17    18    1
    20    18    19    1
    21    19    20    1
    22    20    21   ar
    23    21    22   ar
    24    22    23   ar
    25    23    24    1
    26    23    25   ar
    27    25    26   ar
    28    20    26   ar
    29    19    27    1
    30    27    28    1
    31    16    28    1
    32     3    29    1
    33     3    30    1
    34     4    31    1
    35     4    32    1
    36    15    33    1
    37    17    34    1
    38    17    35    1
    39    18    36    1
    40    18    37    1
    41    27    38    1
    42    27    39    1
    43    28    40    1
    44    28    41    1
    45     8    42    1
    46     9    43    1
    47    10    44    1
    48    11    45    1
    49    21    46    1
    50    22    47    1
    51    25    48    1
    52    26    49    1
@<TRIPOS>MOLECULE
mol19_1_20
 49 52 0 0 0
SMALL
USER_CHARGES
****
VDW energy = -127.79
@<TRIPOS>ATOM
   1 O1        2.8124    -6.3749     2.8314  O.2     1  <O>11      -0.2756
   2 C1        2.5669    -5.2321     3.1878  C.2     1  <O>11       0.2161
   3 C2        2.8470    -4.0880     2.2710  C.3     1  <O>11       0.0309
   4 C3        3.4300    -4.6140     0.9690  C.3     1  <O>11       0.0138
   5 C4        3.7072    -3.4830     0.0621  C.ar    1  <O>11       0.1108
   6 N1        4.9633    -3.2588    -0.3684  N.ar    1  <O>11      -0.2337
   7 C5        5.1706    -2.2193    -1.1890  C.ar    1  <O>11       0.0781
   8 C6        6.4588    -1.9665    -1.6474  C.ar    1  <O>11      -0.0355
   9 C7        6.7422    -0.8984    -2.5052  C.ar    1  <O>11      -0.0597
  10 C8        5.7202    -0.0562    -2.9223  C.ar    1  <O>11      -0.0609
  11 C9        4.4205    -0.2878    -2.4778  C.ar    1  <O>11      -0.0474
  12 C10       4.1431    -1.3712    -1.6079  C.ar    1  <O>11       0.0647
  13 C11       2.8870    -1.6965    -1.1010  C.ar    1  <O>11       0.2592
  14 O2        1.8250    -0.8618    -1.5011  O.2     1  <O>11      -0.2672
  15 N2        2.6521    -2.7363    -0.2762  N.ar    1  <O>11      -0.3103
  16 N3        2.0350    -5.0010     4.4280  N.am    1  <O>11      -0.2985
  17 C12       1.7355    -3.6708     4.8763  C.3     1  <O>11       0.0304
  18 C13       2.4932    -3.3857     6.1914  C.3     1  <O>11       0.0280
  19 N4        2.2268    -4.4925     7.2160  N.pl3   1  <O>11      -0.3269
  20 C14       1.7512    -4.1983     8.5437  C.ar    1  <O>11       0.0299
  21 C15       1.5166    -5.2375     9.4603  C.ar    1  <O>11      -0.0379
  22 C16       1.0426    -4.9510    10.7451  C.ar    1  <O>11      -0.0247
  23 C17       0.8027    -3.6294    11.1273  C.ar    1  <O>11       0.1235
  24 F1        0.3363    -3.3433    12.3848  F       1  <O>11      -0.2055
  25 C18       1.0417    -2.5931    10.2169  C.ar    1  <O>11      -0.0247
  26 C19       1.5163    -2.8685     8.9337  C.ar    1  <O>11      -0.0379
  27 C20       2.5289    -5.8812     6.6440  C.3     1  <O>11       0.0280
  28 C21       1.7550    -6.0774     5.3312  C.3     1  <O>11       0.0304
  29 H1        1.9200    -3.5530     2.0650  H       1  <O>11       0.0362
  30 H2        3.5600    -3.4120     2.7420  H       1  <O>11       0.0362
  31 H3        4.3559    -5.1501     1.1770  H       1  <O>11       0.0348
  32 H4        2.7170    -5.2909     0.4989  H       1  <O>11       0.0348
  33 H5        1.7454    -2.9819     0.0940  H       1  <O>11       0.1700
  34 H6        2.0457    -2.9530     4.1165  H       1  <O>11       0.0480
  35 H7        0.6630    -3.5785     5.0477  H       1  <O>11       0.0480
  36 H8        3.5627    -3.3372     5.9854  H       1  <O>11       0.0479
  37 H9        2.1573    -2.4319     6.5983  H       1  <O>11       0.0479
  38 H10       3.5980    -5.9684     6.4509  H       1  <O>11       0.0479
  39 H11       2.2244    -6.6420     7.3620  H       1  <O>11       0.0479
  40 H12       2.0553    -7.0204     4.8738  H       1  <O>11       0.0480
  41 H13       0.6856    -6.1005     5.5438  H       1  <O>11       0.0480
  42 H14       7.2282    -2.5847    -1.3459  H       1  <O>11       0.0639
  43 H15       7.7092    -0.7367    -2.8273  H       1  <O>11       0.0618
  44 H16       5.9215     0.7335    -3.5554  H       1  <O>11       0.0618
  45 H17       3.6553     0.3333    -2.7840  H       1  <O>11       0.0626
  46 H18       1.6947    -6.2159     9.1846  H       1  <O>11       0.0637
  47 H19       0.8696    -5.7189    11.4126  H       1  <O>11       0.0647
  48 H20       0.8651    -1.6158    10.4974  H       1  <O>11       0.0647
  49 H21       1.6945    -2.0968     8.2720  H       1  <O>11       0.0637
@<TRIPOS>BOND
     1     1     2    2
     2     2     3    1
     3     3     4    1
     4     4     5    1
     5     5     6   ar
     6     6     7   ar
     7     7     8   ar
     8     8     9   ar
     9     9    10   ar
    10    10    11   ar
    11    11    12   ar
    12     7    12   ar
    13    12    13   ar
    14    13    14    2
    15    13    15   ar
    16     5    15   ar
    17     2    16   am
    18    16    17    1
    19    17    18    1
    20    18    19    1
    21    19    20    1
    22    20    21   ar
    23    21    22   ar
    24    22    23   ar
    25    23    24    1
    26    23    25   ar
    27    25    26   ar
    28    20    26   ar
    29    19    27    1
    30    27    28    1
    31    16    28    1
    32     3    29    1
    33     3    30    1
    34     4    31    1
    35     4    32    1
    36    15    33    1
    37    17    34    1
    38    17    35    1
    39    18    36    1
    40    18    37    1
    41    27    38    1
    42    27    39    1
    43    28    40    1
    44    28    41    1
    45     8    42    1
    46     9    43    1
    47    10    44    1
    48    11    45    1
    49    21    46    1
    50    22    47    1
    51    25    48    1
    52    26    49    1
@<TRIPOS>MOLECULE
mol19_1_21
 49 52 0 0 0
SMALL
USER_CHARGES
****
VDW energy = -127.71
@<TRIPOS>ATOM
   1 O1        2.8124    -6.3749     2.8314  O.2     1  <O>11      -0.2756
   2 C1        2.5669    -5.2321     3.1878  C.2     1  <O>11       0.2161
   3 C2        2.8470    -4.0880     2.2710  C.3     1  <O>11       0.0309
   4 C3        3.4300    -4.6140     0.9690  C.3     1  <O>11       0.0138
   5 C4        3.7070    -3.4830     0.0620  C.ar    1  <O>11       0.1108
   6 N1        3.1019    -3.4211    -1.1395  N.ar    1  <O>11      -0.2337
   7 C5        3.3840    -2.3778    -1.9325  C.ar    1  <O>11       0.0781
   8 C6        2.7722    -2.2908    -3.1781  C.ar    1  <O>11      -0.0355
   9 C7        3.0235    -1.2285    -4.0529  C.ar    1  <O>11      -0.0597
  10 C8        3.9056    -0.2220    -3.6834  C.ar    1  <O>11      -0.0609
  11 C9        4.5316    -0.2852    -2.4406  C.ar    1  <O>11      -0.0474
  12 C10       4.2722    -1.3658    -1.5617  C.ar    1  <O>11       0.0647
  13 C11       4.8392    -1.5327    -0.3003  C.ar    1  <O>11       0.2592
  14 O2        5.7419    -0.5312     0.1078  O.2     1  <O>11      -0.2672
  15 N2        4.5712    -2.5709     0.5163  N.ar    1  <O>11      -0.3103
  16 N3        2.0350    -5.0010     4.4280  N.am    1  <O>11      -0.2985
  17 C12       1.7541    -6.0790     5.3330  C.3     1  <O>11       0.0304
  18 C13       0.2621    -6.0451     5.7300  C.3     1  <O>11       0.0280
  19 N4       -0.1280    -4.6531     6.2360  N.pl3   1  <O>11      -0.3269
  20 C14      -0.7690    -4.4621     7.5120  C.ar    1  <O>11       0.0299
  21 C15      -1.1141    -3.1711     7.9470  C.ar    1  <O>11      -0.0379
  22 C16      -1.7251    -2.9861     9.1920  C.ar    1  <O>11      -0.0247
  23 C17      -2.0000    -4.0841    10.0100  C.ar    1  <O>11       0.1235
  24 F1       -2.5970    -3.9081    11.2320  F       1  <O>11      -0.2055
  25 C18      -1.6619    -5.3711     9.5750  C.ar    1  <O>11      -0.0247
  26 C19      -1.0539    -5.5661     8.3340  C.ar    1  <O>11      -0.0379
  27 C20       0.2459    -3.5581     5.2320  C.3     1  <O>11       0.0280
  28 C21       1.7359    -3.6730     4.8750  C.3     1  <O>11       0.0304
  29 H1        1.9200    -3.5530     2.0650  H       1  <O>11       0.0362
  30 H2        3.5600    -3.4120     2.7420  H       1  <O>11       0.0362
  31 H3        4.3560    -5.1500     1.1770  H       1  <O>11       0.0348
  32 H4        2.7170    -5.2910     0.4990  H       1  <O>11       0.0348
  33 H5        4.9746    -2.6993     1.4330  H       1  <O>11       0.1700
  34 H6        1.9781    -7.0290     4.8471  H       1  <O>11       0.0480
  35 H7        2.3701    -5.9729     6.2260  H       1  <O>11       0.0480
  36 H8       -0.3459    -6.2941     4.8601  H       1  <O>11       0.0479
  37 H9        0.0851    -6.7761     6.5191  H       1  <O>11       0.0479
  38 H10      -0.3531    -3.6751     4.3290  H       1  <O>11       0.0479
  39 H11       0.0529    -2.5811     5.6740  H       1  <O>11       0.0479
  40 H12       1.9719    -2.9630     4.0819  H       1  <O>11       0.0480
  41 H13       2.3359    -3.4459     5.7570  H       1  <O>11       0.0480
  42 H14       2.1137    -3.0316    -3.4657  H       1  <O>11       0.0639
  43 H15       2.5540    -1.1929    -4.9712  H       1  <O>11       0.0618
  44 H16       4.0957     0.5651    -4.3232  H       1  <O>11       0.0618
  45 H17       5.1880     0.4594    -2.1584  H       1  <O>11       0.0626
  46 H18      -0.9160    -2.3561     7.3457  H       1  <O>11       0.0637
  47 H19      -1.9734    -2.0352     9.5069  H       1  <O>11       0.0647
  48 H20      -1.8643    -6.1838    10.1781  H       1  <O>11       0.0647
  49 H21      -0.8139    -6.5195     8.0204  H       1  <O>11       0.0637
@<TRIPOS>BOND
     1     1     2    2
     2     2     3    1
     3     3     4    1
     4     4     5    1
     5     5     6   ar
     6     6     7   ar
     7     7     8   ar
     8     8     9   ar
     9     9    10   ar
    10    10    11   ar
    11    11    12   ar
    12     7    12   ar
    13    12    13   ar
    14    13    14    2
    15    13    15   ar
    16     5    15   ar
    17     2    16   am
    18    16    17    1
    19    17    18    1
    20    18    19    1
    21    19    20    1
    22    20    21   ar
    23    21    22   ar
    24    22    23   ar
    25    23    24    1
    26    23    25   ar
    27    25    26   ar
    28    20    26   ar
    29    19    27    1
    30    27    28    1
    31    16    28    1
    32     3    29    1
    33     3    30    1
    34     4    31    1
    35     4    32    1
    36    15    33    1
    37    17    34    1
    38    17    35    1
    39    18    36    1
    40    18    37    1
    41    27    38    1
    42    27    39    1
    43    28    40    1
    44    28    41    1
    45     8    42    1
    46     9    43    1
    47    10    44    1
    48    11    45    1
    49    21    46    1
    50    22    47    1
    51    25    48    1
    52    26    49    1
@<TRIPOS>MOLECULE
mol19_1_22
 49 52 0 0 0
SMALL
USER_CHARGES
****
VDW energy = -127.66
@<TRIPOS>ATOM
   1 O1        2.8124    -6.3749     2.8314  O.2     1  <O>11      -0.2756
   2 C1        2.5669    -5.2321     3.1878  C.2     1  <O>11       0.2161
   3 C2        2.8470    -4.0880     2.2710  C.3     1  <O>11       0.0309
   4 C3        3.4300    -4.6140     0.9690  C.3     1  <O>11       0.0138
   5 C4        3.7070    -3.4830     0.0620  C.ar    1  <O>11       0.1108
   6 N1        4.9631    -3.2587    -0.3685  N.ar    1  <O>11      -0.2337
   7 C5        5.1703    -2.2192    -1.1892  C.ar    1  <O>11       0.0781
   8 C6        6.4584    -1.9663    -1.6476  C.ar    1  <O>11      -0.0355
   9 C7        6.7417    -0.8982    -2.5055  C.ar    1  <O>11      -0.0597
  10 C8        5.7196    -0.0561    -2.9226  C.ar    1  <O>11      -0.0609
  11 C9        4.4200    -0.2879    -2.4781  C.ar    1  <O>11      -0.0474
  12 C10       4.1426    -1.3712    -1.6080  C.ar    1  <O>11       0.0647
  13 C11       2.8866    -1.6967    -1.1011  C.ar    1  <O>11       0.2592
  14 O2        1.8245    -0.8621    -1.5012  O.2     1  <O>11      -0.2672
  15 N2        2.6518    -2.7365    -0.2763  N.ar    1  <O>11      -0.3103
  16 N3        2.0350    -5.0010     4.4280  N.am    1  <O>11      -0.2985
  17 C12       1.7540    -6.0790     5.3330  C.3     1  <O>11       0.0304
  18 C13       0.2620    -6.0450     5.7300  C.3     1  <O>11       0.0280
  19 N4       -0.1280    -4.6530     6.2360  N.pl3   1  <O>11      -0.3269
  20 C14      -0.7690    -4.4620     7.5120  C.ar    1  <O>11       0.0299
  21 C15      -1.1140    -3.1710     7.9470  C.ar    1  <O>11      -0.0379
  22 C16      -1.7250    -2.9860     9.1920  C.ar    1  <O>11      -0.0247
  23 C17      -2.0000    -4.0840    10.0100  C.ar    1  <O>11       0.1235
  24 F1       -2.5970    -3.9080    11.2320  F       1  <O>11      -0.2055
  25 C18      -1.6620    -5.3710     9.5750  C.ar    1  <O>11      -0.0247
  26 C19      -1.0540    -5.5660     8.3340  C.ar    1  <O>11      -0.0379
  27 C20       0.2460    -3.5580     5.2320  C.3     1  <O>11       0.0280
  28 C21       1.7360    -3.6730     4.8750  C.3     1  <O>11       0.0304
  29 H1        1.9200    -3.5530     2.0650  H       1  <O>11       0.0362
  30 H2        3.5600    -3.4120     2.7420  H       1  <O>11       0.0362
  31 H3        4.3560    -5.1500     1.1770  H       1  <O>11       0.0348
  32 H4        2.7170    -5.2910     0.4990  H       1  <O>11       0.0348
  33 H5        1.7452    -2.9821     0.0940  H       1  <O>11       0.1700
  34 H6        1.9780    -7.0290     4.8470  H       1  <O>11       0.0480
  35 H7        2.3700    -5.9730     6.2260  H       1  <O>11       0.0480
  36 H8       -0.3460    -6.2940     4.8600  H       1  <O>11       0.0479
  37 H9        0.0850    -6.7760     6.5190  H       1  <O>11       0.0479
  38 H10      -0.3530    -3.6750     4.3290  H       1  <O>11       0.0479
  39 H11       0.0530    -2.5810     5.6740  H       1  <O>11       0.0479
  40 H12       1.9720    -2.9630     4.0820  H       1  <O>11       0.0480
  41 H13       2.3360    -3.4460     5.7570  H       1  <O>11       0.0480
  42 H14       7.2279    -2.5845    -1.3462  H       1  <O>11       0.0639
  43 H15       7.7086    -0.7364    -2.8277  H       1  <O>11       0.0618
  44 H16       5.9207     0.7336    -3.5558  H       1  <O>11       0.0618
  45 H17       3.6547     0.3331    -2.7842  H       1  <O>11       0.0626
  46 H18      -0.9159    -2.3560     7.3457  H       1  <O>11       0.0637
  47 H19      -1.9733    -2.0351     9.5069  H       1  <O>11       0.0647
  48 H20      -1.8644    -6.1837    10.1780  H       1  <O>11       0.0647
  49 H21      -0.8140    -6.5194     8.0203  H       1  <O>11       0.0637
@<TRIPOS>BOND
     1     1     2    2
     2     2     3    1
     3     3     4    1
     4     4     5    1
     5     5     6   ar
     6     6     7   ar
     7     7     8   ar
     8     8     9   ar
     9     9    10   ar
    10    10    11   ar
    11    11    12   ar
    12     7    12   ar
    13    12    13   ar
    14    13    14    2
    15    13    15   ar
    16     5    15   ar
    17     2    16   am
    18    16    17    1
    19    17    18    1
    20    18    19    1
    21    19    20    1
    22    20    21   ar
    23    21    22   ar
    24    22    23   ar
    25    23    24    1
    26    23    25   ar
    27    25    26   ar
    28    20    26   ar
    29    19    27    1
    30    27    28    1
    31    16    28    1
    32     3    29    1
    33     3    30    1
    34     4    31    1
    35     4    32    1
    36    15    33    1
    37    17    34    1
    38    17    35    1
    39    18    36    1
    40    18    37    1
    41    27    38    1
    42    27    39    1
    43    28    40    1
    44    28    41    1
    45     8    42    1
    46     9    43    1
    47    10    44    1
    48    11    45    1
    49    21    46    1
    50    22    47    1
    51    25    48    1
    52    26    49    1
@<TRIPOS>MOLECULE
mol19_1_23
 49 52 0 0 0
SMALL
USER_CHARGES
****
VDW energy = -127.66
@<TRIPOS>ATOM
   1 O1        2.8124    -6.3749     2.8314  O.2     1  <O>11      -0.2756
   2 C1        2.5669    -5.2321     3.1878  C.2     1  <O>11       0.2161
   3 C2        2.8470    -4.0880     2.2710  C.3     1  <O>11       0.0309
   4 C3        3.4300    -4.6140     0.9690  C.3     1  <O>11       0.0138
   5 C4        3.7070    -3.4830     0.0620  C.ar    1  <O>11       0.1108
   6 N1        3.1019    -3.4211    -1.1395  N.ar    1  <O>11      -0.2337
   7 C5        3.3840    -2.3778    -1.9325  C.ar    1  <O>11       0.0781
   8 C6        2.7722    -2.2908    -3.1781  C.ar    1  <O>11      -0.0355
   9 C7        3.0235    -1.2285    -4.0529  C.ar    1  <O>11      -0.0597
  10 C8        3.9056    -0.2220    -3.6834  C.ar    1  <O>11      -0.0609
  11 C9        4.5316    -0.2852    -2.4406  C.ar    1  <O>11      -0.0474
  12 C10       4.2722    -1.3658    -1.5617  C.ar    1  <O>11       0.0647
  13 C11       4.8392    -1.5327    -0.3003  C.ar    1  <O>11       0.2592
  14 O2        5.7419    -0.5312     0.1078  O.2     1  <O>11      -0.2672
  15 N2        4.5712    -2.5709     0.5163  N.ar    1  <O>11      -0.3103
  16 N3        2.0350    -5.0010     4.4280  N.am    1  <O>11      -0.2985
  17 C12       1.7355    -3.6708     4.8763  C.3     1  <O>11       0.0304
  18 C13       2.4932    -3.3857     6.1914  C.3     1  <O>11       0.0280
  19 N4        2.2268    -4.4925     7.2160  N.pl3   1  <O>11      -0.3269
  20 C14       1.7512    -4.1983     8.5437  C.ar    1  <O>11       0.0299
  21 C15       1.5166    -5.2375     9.4603  C.ar    1  <O>11      -0.0379
  22 C16       1.0426    -4.9510    10.7451  C.ar    1  <O>11      -0.0247
  23 C17       0.8027    -3.6294    11.1273  C.ar    1  <O>11       0.1235
  24 F1        0.3363    -3.3433    12.3848  F       1  <O>11      -0.2055
  25 C18       1.0417    -2.5931    10.2169  C.ar    1  <O>11      -0.0247
  26 C19       1.5163    -2.8685     8.9337  C.ar    1  <O>11      -0.0379
  27 C20       2.5289    -5.8812     6.6440  C.3     1  <O>11       0.0280
  28 C21       1.7550    -6.0774     5.3312  C.3     1  <O>11       0.0304
  29 H1        1.9200    -3.5530     2.0650  H       1  <O>11       0.0362
  30 H2        3.5600    -3.4120     2.7420  H       1  <O>11       0.0362
  31 H3        4.3560    -5.1500     1.1770  H       1  <O>11       0.0348
  32 H4        2.7170    -5.2910     0.4990  H       1  <O>11       0.0348
  33 H5        4.9746    -2.6993     1.4330  H       1  <O>11       0.1700
  34 H6        2.0457    -2.9530     4.1165  H       1  <O>11       0.0480
  35 H7        0.6630    -3.5785     5.0477  H       1  <O>11       0.0480
  36 H8        3.5627    -3.3372     5.9854  H       1  <O>11       0.0479
  37 H9        2.1573    -2.4319     6.5983  H       1  <O>11       0.0479
  38 H10       3.5980    -5.9684     6.4509  H       1  <O>11       0.0479
  39 H11       2.2244    -6.6420     7.3620  H       1  <O>11       0.0479
  40 H12       2.0553    -7.0204     4.8738  H       1  <O>11       0.0480
  41 H13       0.6856    -6.1005     5.5438  H       1  <O>11       0.0480
  42 H14       2.1137    -3.0316    -3.4657  H       1  <O>11       0.0639
  43 H15       2.5540    -1.1929    -4.9712  H       1  <O>11       0.0618
  44 H16       4.0957     0.5651    -4.3232  H       1  <O>11       0.0618
  45 H17       5.1880     0.4594    -2.1584  H       1  <O>11       0.0626
  46 H18       1.6947    -6.2159     9.1846  H       1  <O>11       0.0637
  47 H19       0.8696    -5.7189    11.4126  H       1  <O>11       0.0647
  48 H20       0.8651    -1.6158    10.4974  H       1  <O>11       0.0647
  49 H21       1.6945    -2.0968     8.2721  H       1  <O>11       0.0637
@<TRIPOS>BOND
     1     1     2    2
     2     2     3    1
     3     3     4    1
     4     4     5    1
     5     5     6   ar
     6     6     7   ar
     7     7     8   ar
     8     8     9   ar
     9     9    10   ar
    10    10    11   ar
    11    11    12   ar
    12     7    12   ar
    13    12    13   ar
    14    13    14    2
    15    13    15   ar
    16     5    15   ar
    17     2    16   am
    18    16    17    1
    19    17    18    1
    20    18    19    1
    21    19    20    1
    22    20    21   ar
    23    21    22   ar
    24    22    23   ar
    25    23    24    1
    26    23    25   ar
    27    25    26   ar
    28    20    26   ar
    29    19    27    1
    30    27    28    1
    31    16    28    1
    32     3    29    1
    33     3    30    1
    34     4    31    1
    35     4    32    1
    36    15    33    1
    37    17    34    1
    38    17    35    1
    39    18    36    1
    40    18    37    1
    41    27    38    1
    42    27    39    1
    43    28    40    1
    44    28    41    1
    45     8    42    1
    46     9    43    1
    47    10    44    1
    48    11    45    1
    49    21    46    1
    50    22    47    1
    51    25    48    1
    52    26    49    1
@<TRIPOS>MOLECULE
mol19_1_24
 49 52 0 0 0
SMALL
USER_CHARGES
****
VDW energy = -124.67
@<TRIPOS>ATOM
   1 O1        2.8124    -6.3749     2.8314  O.2     1  <O>11      -0.2756
   2 C1        2.5669    -5.2321     3.1878  C.2     1  <O>11       0.2161
   3 C2        2.8470    -4.0880     2.2710  C.3     1  <O>11       0.0309
   4 C3        3.4300    -4.6140     0.9690  C.3     1  <O>11       0.0138
   5 C4        4.6847    -5.3390     1.2496  C.ar    1  <O>11       0.1108
   6 N1        5.8582    -4.6784     1.2449  N.ar    1  <O>11      -0.2337
   7 C5        6.9735    -5.3761     1.5025  C.ar    1  <O>11       0.0781
   8 C6        8.1978    -4.7171     1.5035  C.ar    1  <O>11      -0.0355
   9 C7        9.3980    -5.3868     1.7645  C.ar    1  <O>11      -0.0597
  10 C8        9.3857    -6.7489     2.0335  C.ar    1  <O>11      -0.0609
  11 C9        8.1722    -7.4327     2.0389  C.ar    1  <O>11      -0.0474
  12 C10       6.9617    -6.7464     1.7719  C.ar    1  <O>11       0.0647
  13 C11       5.6949    -7.3255     1.7497  C.ar    1  <O>11       0.2592
  14 O2        5.6436    -8.7079     2.0160  O.2     1  <O>11      -0.2672
  15 N2        4.5589    -6.6463     1.4951  N.ar    1  <O>11      -0.3103
  16 N3        2.0350    -5.0010     4.4280  N.am    1  <O>11      -0.2985
  17 C12       1.7355    -3.6708     4.8763  C.3     1  <O>11       0.0304
  18 C13       2.4932    -3.3857     6.1914  C.3     1  <O>11       0.0280
  19 N4        2.2268    -4.4925     7.2160  N.pl3   1  <O>11      -0.3269
  20 C14       1.7512    -4.1983     8.5437  C.ar    1  <O>11       0.0299
  21 C15       2.6616    -3.9669     9.5890  C.ar    1  <O>11      -0.0379
  22 C16       2.1980    -3.6938    10.8805  C.ar    1  <O>11      -0.0247
  23 C17       0.8265    -3.6454    11.1394  C.ar    1  <O>11       0.1235
  24 F1        0.3669    -3.3801    12.4039  F       1  <O>11      -0.2055
  25 C18      -0.0812    -3.8701    10.0976  C.ar    1  <O>11      -0.0247
  26 C19       0.3713    -4.1413     8.8055  C.ar    1  <O>11      -0.0379
  27 C20       2.5289    -5.8812     6.6440  C.3     1  <O>11       0.0280
  28 C21       1.7550    -6.0774     5.3312  C.3     1  <O>11       0.0304
  29 H1        1.9200    -3.5530     2.0650  H       1  <O>11       0.0362
  30 H2        3.5600    -3.4120     2.7420  H       1  <O>11       0.0362
  31 H3        2.7156    -5.2897     0.4989  H       1  <O>11       0.0348
  32 H4        3.6343    -3.7792     0.2990  H       1  <O>11       0.0348
  33 H5        3.6363    -7.0562     1.4796  H       1  <O>11       0.1700
  34 H6        2.0457    -2.9530     4.1165  H       1  <O>11       0.0480
  35 H7        0.6630    -3.5785     5.0477  H       1  <O>11       0.0480
  36 H8        3.5627    -3.3372     5.9854  H       1  <O>11       0.0479
  37 H9        2.1573    -2.4319     6.5983  H       1  <O>11       0.0479
  38 H10       3.5980    -5.9684     6.4509  H       1  <O>11       0.0479
  39 H11       2.2244    -6.6420     7.3620  H       1  <O>11       0.0479
  40 H12       2.0553    -7.0204     4.8738  H       1  <O>11       0.0480
  41 H13       0.6856    -6.1005     5.5438  H       1  <O>11       0.0480
  42 H14       8.2219    -3.7044     1.3058  H       1  <O>11       0.0639
  43 H15      10.2908    -4.8694     1.7572  H       1  <O>11       0.0618
  44 H16      10.2669    -7.2497     2.2274  H       1  <O>11       0.0618
  45 H17       8.1546    -8.4450     2.2386  H       1  <O>11       0.0626
  46 H18       3.6762    -3.9985     9.4032  H       1  <O>11       0.0637
  47 H19       2.8717    -3.5276    11.6444  H       1  <O>11       0.0647
  48 H20      -1.0951    -3.8348    10.2868  H       1  <O>11       0.0647
  49 H21      -0.3062    -4.2999     8.0434  H       1  <O>11       0.0637
@<TRIPOS>BOND
     1     1     2    2
     2     2     3    1
     3     3     4    1
     4     4     5    1
     5     5     6   ar
     6     6     7   ar
     7     7     8   ar
     8     8     9   ar
     9     9    10   ar
    10    10    11   ar
    11    11    12   ar
    12     7    12   ar
    13    12    13   ar
    14    13    14    2
    15    13    15   ar
    16     5    15   ar
    17     2    16   am
    18    16    17    1
    19    17    18    1
    20    18    19    1
    21    19    20    1
    22    20    21   ar
    23    21    22   ar
    24    22    23   ar
    25    23    24    1
    26    23    25   ar
    27    25    26   ar
    28    20    26   ar
    29    19    27    1
    30    27    28    1
    31    16    28    1
    32     3    29    1
    33     3    30    1
    34     4    31    1
    35     4    32    1
    36    15    33    1
    37    17    34    1
    38    17    35    1
    39    18    36    1
    40    18    37    1
    41    27    38    1
    42    27    39    1
    43    28    40    1
    44    28    41    1
    45     8    42    1
    46     9    43    1
    47    10    44    1
    48    11    45    1
    49    21    46    1
    50    22    47    1
    51    25    48    1
    52    26    49    1
@<TRIPOS>MOLECULE
mol19_1_25
 49 52 0 0 0
SMALL
USER_CHARGES
****
VDW energy = -124.67
@<TRIPOS>ATOM
   1 O1        2.8124    -6.3749     2.8314  O.2     1  <O>11      -0.2756
   2 C1        2.5669    -5.2321     3.1878  C.2     1  <O>11       0.2161
   3 C2        2.8470    -4.0880     2.2710  C.3     1  <O>11       0.0309
   4 C3        3.4300    -4.6140     0.9690  C.3     1  <O>11       0.0138
   5 C4        4.6847    -5.3390     1.2496  C.ar    1  <O>11       0.1108
   6 N1        5.8582    -4.6784     1.2449  N.ar    1  <O>11      -0.2337
   7 C5        6.9735    -5.3761     1.5025  C.ar    1  <O>11       0.0781
   8 C6        8.1978    -4.7171     1.5035  C.ar    1  <O>11      -0.0355
   9 C7        9.3980    -5.3868     1.7645  C.ar    1  <O>11      -0.0597
  10 C8        9.3857    -6.7489     2.0335  C.ar    1  <O>11      -0.0609
  11 C9        8.1722    -7.4327     2.0389  C.ar    1  <O>11      -0.0474
  12 C10       6.9617    -6.7464     1.7719  C.ar    1  <O>11       0.0647
  13 C11       5.6949    -7.3255     1.7497  C.ar    1  <O>11       0.2592
  14 O2        5.6436    -8.7079     2.0160  O.2     1  <O>11      -0.2672
  15 N2        4.5589    -6.6463     1.4951  N.ar    1  <O>11      -0.3103
  16 N3        2.0350    -5.0010     4.4280  N.am    1  <O>11      -0.2985
  17 C12       1.7355    -3.6708     4.8763  C.3     1  <O>11       0.0304
  18 C13       2.4932    -3.3857     6.1914  C.3     1  <O>11       0.0280
  19 N4        2.2268    -4.4925     7.2160  N.pl3   1  <O>11      -0.3269
  20 C14       1.7512    -4.1983     8.5437  C.ar    1  <O>11       0.0299
  21 C15       0.3720    -4.1398     8.8070  C.ar    1  <O>11      -0.0379
  22 C16      -0.0884    -3.8415    10.0941  C.ar    1  <O>11      -0.0247
  23 C17       0.8200    -3.6035    11.1278  C.ar    1  <O>11       0.1235
  24 F1        0.3741    -3.3088    12.3907  F       1  <O>11      -0.2055
  25 C18       2.1941    -3.6673    10.8678  C.ar    1  <O>11      -0.0247
  26 C19       2.6631    -3.9659     9.5878  C.ar    1  <O>11      -0.0379
  27 C20       2.5289    -5.8812     6.6440  C.3     1  <O>11       0.0280
  28 C21       1.7550    -6.0774     5.3312  C.3     1  <O>11       0.0304
  29 H1        1.9200    -3.5530     2.0650  H       1  <O>11       0.0362
  30 H2        3.5600    -3.4120     2.7420  H       1  <O>11       0.0362
  31 H3        2.7156    -5.2897     0.4989  H       1  <O>11       0.0348
  32 H4        3.6343    -3.7792     0.2990  H       1  <O>11       0.0348
  33 H5        3.6363    -7.0562     1.4796  H       1  <O>11       0.1700
  34 H6        2.0457    -2.9530     4.1165  H       1  <O>11       0.0480
  35 H7        0.6630    -3.5785     5.0477  H       1  <O>11       0.0480
  36 H8        3.5627    -3.3372     5.9854  H       1  <O>11       0.0479
  37 H9        2.1573    -2.4319     6.5983  H       1  <O>11       0.0479
  38 H10       3.5980    -5.9684     6.4509  H       1  <O>11       0.0479
  39 H11       2.2244    -6.6420     7.3620  H       1  <O>11       0.0479
  40 H12       2.0553    -7.0204     4.8738  H       1  <O>11       0.0480
  41 H13       0.6856    -6.1005     5.5438  H       1  <O>11       0.0480
  42 H14       8.2219    -3.7044     1.3058  H       1  <O>11       0.0639
  43 H15      10.2908    -4.8694     1.7572  H       1  <O>11       0.0618
  44 H16      10.2669    -7.2497     2.2274  H       1  <O>11       0.0618
  45 H17       8.1546    -8.4450     2.2386  H       1  <O>11       0.0626
  46 H18      -0.3042    -4.3176     8.0478  H       1  <O>11       0.0637
  47 H19      -1.1025    -3.7972    10.2803  H       1  <O>11       0.0647
  48 H20       2.8670    -3.4917    11.6303  H       1  <O>11       0.0647
  49 H21       3.6781    -4.0161     9.4080  H       1  <O>11       0.0637
@<TRIPOS>BOND
     1     1     2    2
     2     2     3    1
     3     3     4    1
     4     4     5    1
     5     5     6   ar
     6     6     7   ar
     7     7     8   ar
     8     8     9   ar
     9     9    10   ar
    10    10    11   ar
    11    11    12   ar
    12     7    12   ar
    13    12    13   ar
    14    13    14    2
    15    13    15   ar
    16     5    15   ar
    17     2    16   am
    18    16    17    1
    19    17    18    1
    20    18    19    1
    21    19    20    1
    22    20    21   ar
    23    21    22   ar
    24    22    23   ar
    25    23    24    1
    26    23    25   ar
    27    25    26   ar
    28    20    26   ar
    29    19    27    1
    30    27    28    1
    31    16    28    1
    32     3    29    1
    33     3    30    1
    34     4    31    1
    35     4    32    1
    36    15    33    1
    37    17    34    1
    38    17    35    1
    39    18    36    1
    40    18    37    1
    41    27    38    1
    42    27    39    1
    43    28    40    1
    44    28    41    1
    45     8    42    1
    46     9    43    1
    47    10    44    1
    48    11    45    1
    49    21    46    1
    50    22    47    1
    51    25    48    1
    52    26    49    1
@<TRIPOS>MOLECULE
mol19_1_26
 49 52 0 0 0
SMALL
USER_CHARGES
****
VDW energy = -123.05
@<TRIPOS>ATOM
   1 O1        2.8124    -6.3749     2.8314  O.2     1  <O>11      -0.2756
   2 C1        2.5669    -5.2321     3.1878  C.2     1  <O>11       0.2161
   3 C2        2.8470    -4.0880     2.2710  C.3     1  <O>11       0.0309
   4 C3        3.4300    -4.6140     0.9690  C.3     1  <O>11       0.0138
   5 C4        2.4637    -5.5303     0.3324  C.ar    1  <O>11       0.1108
   6 N1        2.4979    -6.8463     0.6161  N.ar    1  <O>11      -0.2337
   7 C5        1.6036    -7.6427     0.0138  C.ar    1  <O>11       0.0781
   8 C6        1.6183    -9.0055     0.2898  C.ar    1  <O>11      -0.0355
   9 C7        0.7127    -9.8903    -0.3051  C.ar    1  <O>11      -0.0597
  10 C8       -0.2360    -9.4121    -1.1990  C.ar    1  <O>11      -0.0609
  11 C9       -0.2722    -8.0509    -1.4925  C.ar    1  <O>11      -0.0474
  12 C10       0.6500    -7.1622    -0.8864  C.ar    1  <O>11       0.0647
  13 C11       0.7073    -5.7877    -1.1048  C.ar    1  <O>11       0.2592
  14 O2       -0.2394    -5.2665    -2.0085  O.2     1  <O>11      -0.2672
  15 N2        1.5950    -4.9654    -0.5111  N.ar    1  <O>11      -0.3103
  16 N3        2.0350    -5.0010     4.4280  N.am    1  <O>11      -0.2985
  17 C12       1.7540    -6.0790     5.3330  C.3     1  <O>11       0.0304
  18 C13       0.2620    -6.0450     5.7300  C.3     1  <O>11       0.0280
  19 N4       -0.1280    -4.6530     6.2360  N.pl3   1  <O>11      -0.3269
  20 C14      -0.7690    -4.4620     7.5120  C.ar    1  <O>11       0.0299
  21 C15      -0.0826    -4.7563     8.7024  C.ar    1  <O>11      -0.0379
  22 C16      -0.7109    -4.5823     9.9404  C.ar    1  <O>11      -0.0247
  23 C17      -2.0240    -4.1109    10.0020  C.ar    1  <O>11       0.1235
  24 F1       -2.6451    -3.9404    11.2127  F       1  <O>11      -0.2055
  25 C18      -2.7066    -3.8119     8.8168  C.ar    1  <O>11      -0.0247
  26 C19      -2.0879    -3.9804     7.5773  C.ar    1  <O>11      -0.0379
  27 C20       0.2460    -3.5580     5.2320  C.3     1  <O>11       0.0280
  28 C21       1.7360    -3.6730     4.8750  C.3     1  <O>11       0.0304
  29 H1        1.9200    -3.5530     2.0650  H       1  <O>11       0.0362
  30 H2        3.5600    -3.4120     2.7420  H       1  <O>11       0.0362
  31 H3        3.6354    -3.7782     0.3001  H       1  <O>11       0.0348
  32 H4        4.3566    -5.1490     1.1758  H       1  <O>11       0.0348
  33 H5        1.6428    -3.9680    -0.6607  H       1  <O>11       0.1700
  34 H6        1.9780    -7.0290     4.8470  H       1  <O>11       0.0480
  35 H7        2.3700    -5.9730     6.2260  H       1  <O>11       0.0480
  36 H8       -0.3460    -6.2940     4.8600  H       1  <O>11       0.0479
  37 H9        0.0850    -6.7760     6.5190  H       1  <O>11       0.0479
  38 H10      -0.3530    -3.6750     4.3290  H       1  <O>11       0.0479
  39 H11       0.0530    -2.5810     5.6740  H       1  <O>11       0.0479
  40 H12       1.9720    -2.9630     4.0820  H       1  <O>11       0.0480
  41 H13       2.3360    -3.4460     5.7570  H       1  <O>11       0.0480
  42 H14       2.3176    -9.3748     0.9528  H       1  <O>11       0.0639
  43 H15       0.7497   -10.8967    -0.0800  H       1  <O>11       0.0618
  44 H16      -0.9076   -10.0587    -1.6415  H       1  <O>11       0.0618
  45 H17      -0.9749    -7.6875    -2.1553  H       1  <O>11       0.0626
  46 H18       0.8889    -5.1022     8.6634  H       1  <O>11       0.0637
  47 H19      -0.2023    -4.8029    10.8109  H       1  <O>11       0.0647
  48 H20      -3.6771    -3.4634     8.8602  H       1  <O>11       0.0647
  49 H21      -2.5980    -3.7517     6.7098  H       1  <O>11       0.0637
@<TRIPOS>BOND
     1     1     2    2
     2     2     3    1
     3     3     4    1
     4     4     5    1
     5     5     6   ar
     6     6     7   ar
     7     7     8   ar
     8     8     9   ar
     9     9    10   ar
    10    10    11   ar
    11    11    12   ar
    12     7    12   ar
    13    12    13   ar
    14    13    14    2
    15    13    15   ar
    16     5    15   ar
    17     2    16   am
    18    16    17    1
    19    17    18    1
    20    18    19    1
    21    19    20    1
    22    20    21   ar
    23    21    22   ar
    24    22    23   ar
    25    23    24    1
    26    23    25   ar
    27    25    26   ar
    28    20    26   ar
    29    19    27    1
    30    27    28    1
    31    16    28    1
    32     3    29    1
    33     3    30    1
    34     4    31    1
    35     4    32    1
    36    15    33    1
    37    17    34    1
    38    17    35    1
    39    18    36    1
    40    18    37    1
    41    27    38    1
    42    27    39    1
    43    28    40    1
    44    28    41    1
    45     8    42    1
    46     9    43    1
    47    10    44    1
    48    11    45    1
    49    21    46    1
    50    22    47    1
    51    25    48    1
    52    26    49    1
@<TRIPOS>MOLECULE
mol19_1_27
 49 52 0 0 0
SMALL
USER_CHARGES
****
VDW energy = -120.66
@<TRIPOS>ATOM
   1 O1        2.8124    -6.3749     2.8314  O.2     1  <O>11      -0.2756
   2 C1        2.5669    -5.2321     3.1878  C.2     1  <O>11       0.2161
   3 C2        2.8470    -4.0880     2.2710  C.3     1  <O>11       0.0309
   4 C3        3.4300    -4.6140     0.9690  C.3     1  <O>11       0.0138
   5 C4        4.6847    -5.3390     1.2496  C.ar    1  <O>11       0.1108
   6 N1        5.1325    -5.4426     2.5154  N.ar    1  <O>11      -0.2337
   7 C5        6.2774    -6.1076     2.7248  C.ar    1  <O>11       0.0781
   8 C6        6.7610    -6.2285     4.0229  C.ar    1  <O>11      -0.0355
   9 C7        7.9491    -6.9093     4.3090  C.ar    1  <O>11      -0.0597
  10 C8        8.6796    -7.4884     3.2800  C.ar    1  <O>11      -0.0609
  11 C9        8.2168    -7.3820     1.9704  C.ar    1  <O>11      -0.0474
  12 C10       7.0131    -6.6892     1.6899  C.ar    1  <O>11       0.0647
  13 C11       6.4572    -6.5194     0.4239  C.ar    1  <O>11       0.2592
  14 O2        7.1727    -7.0919    -0.6460  O.2     1  <O>11      -0.2672
  15 N2        5.3076    -5.8569     0.1871  N.ar    1  <O>11      -0.3103
  16 N3        2.0350    -5.0010     4.4280  N.am    1  <O>11      -0.2985
  17 C12       1.7355    -3.6708     4.8763  C.3     1  <O>11       0.0304
  18 C13       2.4932    -3.3857     6.1914  C.3     1  <O>11       0.0280
  19 N4        2.2268    -4.4925     7.2160  N.pl3   1  <O>11      -0.3269
  20 C14       1.7512    -4.1983     8.5437  C.ar    1  <O>11       0.0299
  21 C15       1.5166    -5.2375     9.4603  C.ar    1  <O>11      -0.0379
  22 C16       1.0426    -4.9510    10.7451  C.ar    1  <O>11      -0.0247
  23 C17       0.8027    -3.6294    11.1273  C.ar    1  <O>11       0.1235
  24 F1        0.3363    -3.3433    12.3848  F       1  <O>11      -0.2055
  25 C18       1.0417    -2.5931    10.2169  C.ar    1  <O>11      -0.0247
  26 C19       1.5163    -2.8685     8.9337  C.ar    1  <O>11      -0.0379
  27 C20       2.5289    -5.8812     6.6440  C.3     1  <O>11       0.0280
  28 C21       1.7550    -6.0774     5.3312  C.3     1  <O>11       0.0304
  29 H1        1.9200    -3.5530     2.0650  H       1  <O>11       0.0362
  30 H2        3.5600    -3.4120     2.7420  H       1  <O>11       0.0362
  31 H3        2.7156    -5.2897     0.4989  H       1  <O>11       0.0348
  32 H4        3.6343    -3.7792     0.2990  H       1  <O>11       0.0348
  33 H5        4.8953    -5.7309    -0.7260  H       1  <O>11       0.1700
  34 H6        2.0457    -2.9530     4.1165  H       1  <O>11       0.0480
  35 H7        0.6630    -3.5785     5.0477  H       1  <O>11       0.0480
  36 H8        3.5627    -3.3372     5.9854  H       1  <O>11       0.0479
  37 H9        2.1573    -2.4319     6.5983  H       1  <O>11       0.0479
  38 H10       3.5980    -5.9684     6.4509  H       1  <O>11       0.0479
  39 H11       2.2244    -6.6420     7.3620  H       1  <O>11       0.0479
  40 H12       2.0553    -7.0204     4.8738  H       1  <O>11       0.0480
  41 H13       0.6856    -6.1005     5.5438  H       1  <O>11       0.0480
  42 H14       6.2280    -5.8036     4.7977  H       1  <O>11       0.0639
  43 H15       8.2821    -6.9811     5.2831  H       1  <O>11       0.0618
  44 H16       9.5568    -7.9926     3.4833  H       1  <O>11       0.0618
  45 H17       8.7536    -7.8103     1.2002  H       1  <O>11       0.0626
  46 H18       1.6947    -6.2159     9.1846  H       1  <O>11       0.0637
  47 H19       0.8696    -5.7189    11.4126  H       1  <O>11       0.0647
  48 H20       0.8651    -1.6158    10.4974  H       1  <O>11       0.0647
  49 H21       1.6945    -2.0968     8.2721  H       1  <O>11       0.0637
@<TRIPOS>BOND
     1     1     2    2
     2     2     3    1
     3     3     4    1
     4     4     5    1
     5     5     6   ar
     6     6     7   ar
     7     7     8   ar
     8     8     9   ar
     9     9    10   ar
    10    10    11   ar
    11    11    12   ar
    12     7    12   ar
    13    12    13   ar
    14    13    14    2
    15    13    15   ar
    16     5    15   ar
    17     2    16   am
    18    16    17    1
    19    17    18    1
    20    18    19    1
    21    19    20    1
    22    20    21   ar
    23    21    22   ar
    24    22    23   ar
    25    23    24    1
    26    23    25   ar
    27    25    26   ar
    28    20    26   ar
    29    19    27    1
    30    27    28    1
    31    16    28    1
    32     3    29    1
    33     3    30    1
    34     4    31    1
    35     4    32    1
    36    15    33    1
    37    17    34    1
    38    17    35    1
    39    18    36    1
    40    18    37    1
    41    27    38    1
    42    27    39    1
    43    28    40    1
    44    28    41    1
    45     8    42    1
    46     9    43    1
    47    10    44    1
    48    11    45    1
    49    21    46    1
    50    22    47    1
    51    25    48    1
    52    26    49    1
@<TRIPOS>MOLECULE
mol19_1_28
 49 52 0 0 0
SMALL
USER_CHARGES
****
VDW energy = -120.58
@<TRIPOS>ATOM
   1 O1        2.8124    -6.3749     2.8314  O.2     1  <O>11      -0.2756
   2 C1        2.5669    -5.2321     3.1878  C.2     1  <O>11       0.2161
   3 C2        2.8470    -4.0880     2.2710  C.3     1  <O>11       0.0309
   4 C3        3.4300    -4.6140     0.9690  C.3     1  <O>11       0.0138
   5 C4        2.4637    -5.5303     0.3324  C.ar    1  <O>11       0.1108
   6 N1        1.2797    -5.7761     0.9249  N.ar    1  <O>11      -0.2337
   7 C5        0.4329    -6.6163     0.3134  C.ar    1  <O>11       0.0781
   8 C6       -0.7960    -6.8867     0.9049  C.ar    1  <O>11      -0.0355
   9 C7       -1.7241    -7.7539     0.3187  C.ar    1  <O>11      -0.0597
  10 C8       -1.4274    -8.3710    -0.8891  C.ar    1  <O>11      -0.0609
  11 C9       -0.2030    -8.1168    -1.5028  C.ar    1  <O>11      -0.0474
  12 C10       0.7316    -7.2382    -0.9010  C.ar    1  <O>11       0.0647
  13 C11       1.9819    -6.9119    -1.4214  C.ar    1  <O>11       0.2592
  14 O2        2.3188    -7.5215    -2.6459  O.2     1  <O>11      -0.2672
  15 N2        2.8502    -6.0695    -0.8273  N.ar    1  <O>11      -0.3103
  16 N3        2.0350    -5.0010     4.4280  N.am    1  <O>11      -0.2985
  17 C12       1.7540    -6.0790     5.3330  C.3     1  <O>11       0.0304
  18 C13       0.2620    -6.0450     5.7300  C.3     1  <O>11       0.0280
  19 N4       -0.1280    -4.6530     6.2360  N.pl3   1  <O>11      -0.3269
  20 C14      -0.7690    -4.4620     7.5120  C.ar    1  <O>11       0.0299
  21 C15      -1.1140    -3.1710     7.9470  C.ar    1  <O>11      -0.0379
  22 C16      -1.7250    -2.9860     9.1920  C.ar    1  <O>11      -0.0247
  23 C17      -2.0000    -4.0840    10.0100  C.ar    1  <O>11       0.1235
  24 F1       -2.5970    -3.9080    11.2320  F       1  <O>11      -0.2055
  25 C18      -1.6620    -5.3710     9.5750  C.ar    1  <O>11      -0.0247
  26 C19      -1.0540    -5.5660     8.3340  C.ar    1  <O>11      -0.0379
  27 C20       0.2460    -3.5580     5.2320  C.3     1  <O>11       0.0280
  28 C21       1.7360    -3.6730     4.8750  C.3     1  <O>11       0.0304
  29 H1        1.9200    -3.5530     2.0650  H       1  <O>11       0.0362
  30 H2        3.5600    -3.4120     2.7420  H       1  <O>11       0.0362
  31 H3        3.6354    -3.7782     0.3001  H       1  <O>11       0.0348
  32 H4        4.3566    -5.1490     1.1758  H       1  <O>11       0.0348
  33 H5        3.7571    -5.8246    -1.1978  H       1  <O>11       0.1700
  34 H6        1.9780    -7.0290     4.8470  H       1  <O>11       0.0480
  35 H7        2.3700    -5.9730     6.2260  H       1  <O>11       0.0480
  36 H8       -0.3460    -6.2940     4.8600  H       1  <O>11       0.0479
  37 H9        0.0850    -6.7760     6.5190  H       1  <O>11       0.0479
  38 H10      -0.3530    -3.6750     4.3290  H       1  <O>11       0.0479
  39 H11       0.0530    -2.5810     5.6740  H       1  <O>11       0.0479
  40 H12       1.9720    -2.9630     4.0820  H       1  <O>11       0.0480
  41 H13       2.3360    -3.4460     5.7570  H       1  <O>11       0.0480
  42 H14      -1.0302    -6.4346     1.8026  H       1  <O>11       0.0639
  43 H15      -2.6277    -7.9347     0.7832  H       1  <O>11       0.0618
  44 H16      -2.1071    -9.0115    -1.3279  H       1  <O>11       0.0618
  45 H17       0.0248    -8.5710    -2.4011  H       1  <O>11       0.0626
  46 H18      -0.9159    -2.3560     7.3457  H       1  <O>11       0.0637
  47 H19      -1.9733    -2.0351     9.5069  H       1  <O>11       0.0647
  48 H20      -1.8644    -6.1837    10.1780  H       1  <O>11       0.0647
  49 H21      -0.8140    -6.5194     8.0203  H       1  <O>11       0.0637
@<TRIPOS>BOND
     1     1     2    2
     2     2     3    1
     3     3     4    1
     4     4     5    1
     5     5     6   ar
     6     6     7   ar
     7     7     8   ar
     8     8     9   ar
     9     9    10   ar
    10    10    11   ar
    11    11    12   ar
    12     7    12   ar
    13    12    13   ar
    14    13    14    2
    15    13    15   ar
    16     5    15   ar
    17     2    16   am
    18    16    17    1
    19    17    18    1
    20    18    19    1
    21    19    20    1
    22    20    21   ar
    23    21    22   ar
    24    22    23   ar
    25    23    24    1
    26    23    25   ar
    27    25    26   ar
    28    20    26   ar
    29    19    27    1
    30    27    28    1
    31    16    28    1
    32     3    29    1
    33     3    30    1
    34     4    31    1
    35     4    32    1
    36    15    33    1
    37    17    34    1
    38    17    35    1
    39    18    36    1
    40    18    37    1
    41    27    38    1
    42    27    39    1
    43    28    40    1
    44    28    41    1
    45     8    42    1
    46     9    43    1
    47    10    44    1
    48    11    45    1
    49    21    46    1
    50    22    47    1
    51    25    48    1
    52    26    49    1
@<TRIPOS>MOLECULE
mol19_1_29
 49 52 0 0 0
SMALL
USER_CHARGES
****
VDW energy = -120.08
@<TRIPOS>ATOM
   1 O1        2.8124    -6.3749     2.8314  O.2     1  <O>11      -0.2756
   2 C1        2.5669    -5.2321     3.1878  C.2     1  <O>11       0.2161
   3 C2        2.8470    -4.0880     2.2710  C.3     1  <O>11       0.0309
   4 C3        3.4300    -4.6140     0.9690  C.3     1  <O>11       0.0138
   5 C4        4.6847    -5.3390     1.2496  C.ar    1  <O>11       0.1108
   6 N1        5.1325    -5.4426     2.5154  N.ar    1  <O>11      -0.2337
   7 C5        6.2774    -6.1076     2.7248  C.ar    1  <O>11       0.0781
   8 C6        6.7610    -6.2285     4.0229  C.ar    1  <O>11      -0.0355
   9 C7        7.9491    -6.9093     4.3090  C.ar    1  <O>11      -0.0597
  10 C8        8.6796    -7.4884     3.2800  C.ar    1  <O>11      -0.0609
  11 C9        8.2168    -7.3820     1.9704  C.ar    1  <O>11      -0.0474
  12 C10       7.0131    -6.6892     1.6899  C.ar    1  <O>11       0.0647
  13 C11       6.4572    -6.5194     0.4239  C.ar    1  <O>11       0.2592
  14 O2        7.1727    -7.0919    -0.6460  O.2     1  <O>11      -0.2672
  15 N2        5.3076    -5.8569     0.1871  N.ar    1  <O>11      -0.3103
  16 N3        2.0350    -5.0010     4.4280  N.am    1  <O>11      -0.2985
  17 C12       1.7540    -6.0790     5.3330  C.3     1  <O>11       0.0304
  18 C13       0.2620    -6.0450     5.7300  C.3     1  <O>11       0.0280
  19 N4       -0.1280    -4.6530     6.2360  N.pl3   1  <O>11      -0.3269
  20 C14      -0.7690    -4.4620     7.5120  C.ar    1  <O>11       0.0299
  21 C15      -1.1140    -3.1710     7.9470  C.ar    1  <O>11      -0.0379
  22 C16      -1.7250    -2.9860     9.1920  C.ar    1  <O>11      -0.0247
  23 C17      -2.0000    -4.0840    10.0100  C.ar    1  <O>11       0.1235
  24 F1       -2.5970    -3.9080    11.2320  F       1  <O>11      -0.2055
  25 C18      -1.6620    -5.3710     9.5750  C.ar    1  <O>11      -0.0247
  26 C19      -1.0540    -5.5660     8.3340  C.ar    1  <O>11      -0.0379
  27 C20       0.2460    -3.5580     5.2320  C.3     1  <O>11       0.0280
  28 C21       1.7360    -3.6730     4.8750  C.3     1  <O>11       0.0304
  29 H1        1.9200    -3.5530     2.0650  H       1  <O>11       0.0362
  30 H2        3.5600    -3.4120     2.7420  H       1  <O>11       0.0362
  31 H3        2.7156    -5.2897     0.4989  H       1  <O>11       0.0348
  32 H4        3.6343    -3.7792     0.2990  H       1  <O>11       0.0348
  33 H5        4.8953    -5.7309    -0.7260  H       1  <O>11       0.1700
  34 H6        1.9780    -7.0290     4.8470  H       1  <O>11       0.0480
  35 H7        2.3700    -5.9730     6.2260  H       1  <O>11       0.0480
  36 H8       -0.3460    -6.2940     4.8600  H       1  <O>11       0.0479
  37 H9        0.0850    -6.7760     6.5190  H       1  <O>11       0.0479
  38 H10      -0.3530    -3.6750     4.3290  H       1  <O>11       0.0479
  39 H11       0.0530    -2.5810     5.6740  H       1  <O>11       0.0479
  40 H12       1.9720    -2.9630     4.0820  H       1  <O>11       0.0480
  41 H13       2.3360    -3.4460     5.7570  H       1  <O>11       0.0480
  42 H14       6.2280    -5.8036     4.7977  H       1  <O>11       0.0639
  43 H15       8.2821    -6.9811     5.2831  H       1  <O>11       0.0618
  44 H16       9.5568    -7.9926     3.4833  H       1  <O>11       0.0618
  45 H17       8.7536    -7.8103     1.2002  H       1  <O>11       0.0626
  46 H18      -0.9159    -2.3560     7.3457  H       1  <O>11       0.0637
  47 H19      -1.9733    -2.0351     9.5069  H       1  <O>11       0.0647
  48 H20      -1.8644    -6.1837    10.1780  H       1  <O>11       0.0647
  49 H21      -0.8140    -6.5194     8.0203  H       1  <O>11       0.0637
@<TRIPOS>BOND
     1     1     2    2
     2     2     3    1
     3     3     4    1
     4     4     5    1
     5     5     6   ar
     6     6     7   ar
     7     7     8   ar
     8     8     9   ar
     9     9    10   ar
    10    10    11   ar
    11    11    12   ar
    12     7    12   ar
    13    12    13   ar
    14    13    14    2
    15    13    15   ar
    16     5    15   ar
    17     2    16   am
    18    16    17    1
    19    17    18    1
    20    18    19    1
    21    19    20    1
    22    20    21   ar
    23    21    22   ar
    24    22    23   ar
    25    23    24    1
    26    23    25   ar
    27    25    26   ar
    28    20    26   ar
    29    19    27    1
    30    27    28    1
    31    16    28    1
    32     3    29    1
    33     3    30    1
    34     4    31    1
    35     4    32    1
    36    15    33    1
    37    17    34    1
    38    17    35    1
    39    18    36    1
    40    18    37    1
    41    27    38    1
    42    27    39    1
    43    28    40    1
    44    28    41    1
    45     8    42    1
    46     9    43    1
    47    10    44    1
    48    11    45    1
    49    21    46    1
    50    22    47    1
    51    25    48    1
    52    26    49    1
@<TRIPOS>MOLECULE
mol19_1_30
 49 52 0 0 0
SMALL
USER_CHARGES
****
VDW energy = -120.07
@<TRIPOS>ATOM
   1 O1        2.8124    -6.3749     2.8314  O.2     1  <O>11      -0.2756
   2 C1        2.5669    -5.2321     3.1878  C.2     1  <O>11       0.2161
   3 C2        2.8470    -4.0880     2.2710  C.3     1  <O>11       0.0309
   4 C3        3.4300    -4.6140     0.9690  C.3     1  <O>11       0.0138
   5 C4        2.4637    -5.5303     0.3324  C.ar    1  <O>11       0.1108
   6 N1        1.2797    -5.7761     0.9249  N.ar    1  <O>11      -0.2337
   7 C5        0.4329    -6.6163     0.3134  C.ar    1  <O>11       0.0781
   8 C6       -0.7960    -6.8867     0.9049  C.ar    1  <O>11      -0.0355
   9 C7       -1.7241    -7.7539     0.3187  C.ar    1  <O>11      -0.0597
  10 C8       -1.4274    -8.3710    -0.8891  C.ar    1  <O>11      -0.0609
  11 C9       -0.2030    -8.1168    -1.5028  C.ar    1  <O>11      -0.0474
  12 C10       0.7316    -7.2382    -0.9010  C.ar    1  <O>11       0.0647
  13 C11       1.9819    -6.9119    -1.4214  C.ar    1  <O>11       0.2592
  14 O2        2.3188    -7.5215    -2.6459  O.2     1  <O>11      -0.2672
  15 N2        2.8502    -6.0695    -0.8273  N.ar    1  <O>11      -0.3103
  16 N3        2.0350    -5.0010     4.4280  N.am    1  <O>11      -0.2985
  17 C12       1.7355    -3.6708     4.8763  C.3     1  <O>11       0.0304
  18 C13       2.4932    -3.3857     6.1914  C.3     1  <O>11       0.0280
  19 N4        2.2268    -4.4925     7.2160  N.pl3   1  <O>11      -0.3269
  20 C14       1.7512    -4.1983     8.5437  C.ar    1  <O>11       0.0299
  21 C15       1.5166    -5.2375     9.4603  C.ar    1  <O>11      -0.0379
  22 C16       1.0426    -4.9510    10.7451  C.ar    1  <O>11      -0.0247
  23 C17       0.8027    -3.6294    11.1273  C.ar    1  <O>11       0.1235
  24 F1        0.3363    -3.3433    12.3848  F       1  <O>11      -0.2055
  25 C18       1.0417    -2.5931    10.2169  C.ar    1  <O>11      -0.0247
  26 C19       1.5163    -2.8685     8.9337  C.ar    1  <O>11      -0.0379
  27 C20       2.5289    -5.8812     6.6440  C.3     1  <O>11       0.0280
  28 C21       1.7550    -6.0774     5.3312  C.3     1  <O>11       0.0304
  29 H1        1.9200    -3.5530     2.0650  H       1  <O>11       0.0362
  30 H2        3.5600    -3.4120     2.7420  H       1  <O>11       0.0362
  31 H3        3.6354    -3.7782     0.3001  H       1  <O>11       0.0348
  32 H4        4.3566    -5.1490     1.1758  H       1  <O>11       0.0348
  33 H5        3.7571    -5.8246    -1.1978  H       1  <O>11       0.1700
  34 H6        2.0457    -2.9530     4.1165  H       1  <O>11       0.0480
  35 H7        0.6630    -3.5785     5.0477  H       1  <O>11       0.0480
  36 H8        3.5627    -3.3372     5.9854  H       1  <O>11       0.0479
  37 H9        2.1573    -2.4319     6.5983  H       1  <O>11       0.0479
  38 H10       3.5980    -5.9684     6.4509  H       1  <O>11       0.0479
  39 H11       2.2244    -6.6420     7.3620  H       1  <O>11       0.0479
  40 H12       2.0553    -7.0204     4.8738  H       1  <O>11       0.0480
  41 H13       0.6856    -6.1005     5.5438  H       1  <O>11       0.0480
  42 H14      -1.0302    -6.4346     1.8026  H       1  <O>11       0.0639
  43 H15      -2.6277    -7.9347     0.7832  H       1  <O>11       0.0618
  44 H16      -2.1071    -9.0115    -1.3279  H       1  <O>11       0.0618
  45 H17       0.0248    -8.5710    -2.4011  H       1  <O>11       0.0626
  46 H18       1.6947    -6.2159     9.1846  H       1  <O>11       0.0637
  47 H19       0.8696    -5.7189    11.4126  H       1  <O>11       0.0647
  48 H20       0.8651    -1.6158    10.4974  H       1  <O>11       0.0647
  49 H21       1.6945    -2.0968     8.2721  H       1  <O>11       0.0637
@<TRIPOS>BOND
     1     1     2    2
     2     2     3    1
     3     3     4    1
     4     4     5    1
     5     5     6   ar
     6     6     7   ar
     7     7     8   ar
     8     8     9   ar
     9     9    10   ar
    10    10    11   ar
    11    11    12   ar
    12     7    12   ar
    13    12    13   ar
    14    13    14    2
    15    13    15   ar
    16     5    15   ar
    17     2    16   am
    18    16    17    1
    19    17    18    1
    20    18    19    1
    21    19    20    1
    22    20    21   ar
    23    21    22   ar
    24    22    23   ar
    25    23    24    1
    26    23    25   ar
    27    25    26   ar
    28    20    26   ar
    29    19    27    1
    30    27    28    1
    31    16    28    1
    32     3    29    1
    33     3    30    1
    34     4    31    1
    35     4    32    1
    36    15    33    1
    37    17    34    1
    38    17    35    1
    39    18    36    1
    40    18    37    1
    41    27    38    1
    42    27    39    1
    43    28    40    1
    44    28    41    1
    45     8    42    1
    46     9    43    1
    47    10    44    1
    48    11    45    1
    49    21    46    1
    50    22    47    1
    51    25    48    1
    52    26    49    1
