@<TRIPOS>MOLECULE
mol1_1_1
 47 50 0 0 0
SMALL
USER_CHARGES
****
VDW energy = -119.02
@<TRIPOS>ATOM
   1 O1        9.2535    -1.1831    -1.4851  O.2     1  <O>11      -0.2748
   2 C1        8.8535    -1.4341    -2.6122  C.2     1  <O>11       0.2251
   3 N1        7.6050    -1.0300    -3.0010  N.am    1  <O>11      -0.3089
   4 C2        6.7510    -0.2990    -2.0700  C.3     1  <O>11       0.0562
   5 C3        5.3884    -0.8673    -2.1014  C.ar    1  <O>11       0.0863
   6 N2        5.1490    -1.8713    -1.2231  N.ar    1  <O>11      -0.1737
   7 N3        3.9595    -2.5148    -1.2624  N.ar    1  <O>11      -0.2424
   8 C4        3.0324    -2.1316    -2.1712  C.ar    1  <O>11       0.2725
   9 O2        1.8564    -2.9030    -2.2250  O.2     1  <O>11      -0.2658
  10 C5        3.1912    -1.0369    -3.0332  C.ar    1  <O>11       0.0496
  11 C6        2.2034    -0.5968    -3.9447  C.ar    1  <O>11      -0.0487
  12 C7        2.4371     0.4820    -4.7954  C.ar    1  <O>11      -0.0610
  13 C8        3.6633     1.1377    -4.7611  C.ar    1  <O>11      -0.0611
  14 C9        4.6536     0.7128    -3.8731  C.ar    1  <O>11      -0.0520
  15 C10       4.4296    -0.3720    -2.9969  C.ar    1  <O>11       0.0118
  16 C11       9.7260    -2.1810    -3.5640  C.3     1  <O>11       0.0855
  17 C12      10.5820    -3.1324    -2.8090  C.ar    1  <O>11      -0.0312
  18 C13      10.0620    -4.3657    -2.3772  C.ar    1  <O>11      -0.0575
  19 C14      10.8655    -5.2557    -1.6565  C.ar    1  <O>11      -0.0615
  20 C15      12.1923    -4.9267    -1.3645  C.ar    1  <O>11      -0.0617
  21 C16      12.7106    -3.7031    -1.7998  C.ar    1  <O>11      -0.0615
  22 C17      11.9185    -2.8089    -2.5204  C.ar    1  <O>11      -0.0575
  23 C18      10.5854    -1.2224    -4.3054  C.ar    1  <O>11      -0.0312
  24 C19      10.9854    -0.0161    -3.7051  C.ar    1  <O>11      -0.0575
  25 C20      11.7847     0.8915    -4.4093  C.ar    1  <O>11      -0.0615
  26 C21      12.1948     0.6020    -5.7137  C.ar    1  <O>11      -0.0617
  27 C22      11.8015    -0.6014    -6.3084  C.ar    1  <O>11      -0.0615
  28 C23      11.0057    -1.5133    -5.6142  C.ar    1  <O>11      -0.0575
  29 H1        7.2710    -1.2390    -3.9420  H       1  <O>11       0.1491
  30 H2        7.1565    -0.3829    -1.0618  H       1  <O>11       0.0528
  31 H3        6.7120     0.7514    -2.3593  H       1  <O>11       0.0528
  32 H4        3.7658    -3.2707    -0.6207  H       1  <O>11       0.1921
  33 H5        9.1048    -2.7334    -4.2700  H       1  <O>11       0.0492
  34 H6        1.2938    -1.0830    -3.9805  H       1  <O>11       0.0625
  35 H7        1.7021     0.7937    -5.4492  H       1  <O>11       0.0618
  36 H8        3.8407     1.9362    -5.3903  H       1  <O>11       0.0618
  37 H9        5.5637     1.1992    -3.8568  H       1  <O>11       0.0624
  38 H10       9.0840    -4.6150    -2.5928  H       1  <O>11       0.0621
  39 H11      10.4774    -6.1578    -1.3394  H       1  <O>11       0.0618
  40 H12      12.7850    -5.5822    -0.8316  H       1  <O>11       0.0618
  41 H13      13.6902    -3.4588    -1.5856  H       1  <O>11       0.0618
  42 H14      12.3136    -1.9110    -2.8409  H       1  <O>11       0.0621
  43 H15      10.6886     0.2012    -2.7409  H       1  <O>11       0.0621
  44 H16      12.0720     1.7772    -3.9643  H       1  <O>11       0.0618
  45 H17      12.7834     1.2711    -6.2342  H       1  <O>11       0.0618
  46 H18      12.1033    -0.8173    -7.2714  H       1  <O>11       0.0618
  47 H19      10.7261    -2.4003    -6.0615  H       1  <O>11       0.0621
@<TRIPOS>BOND
     1     1     2    2
     2     2     3   am
     3     3     4    1
     4     4     5    1
     5     5     6   ar
     6     6     7   ar
     7     7     8   ar
     8     8     9    2
     9     8    10   ar
    10    10    11   ar
    11    11    12   ar
    12    12    13   ar
    13    13    14   ar
    14    14    15   ar
    15     5    15   ar
    16    10    15   ar
    17     2    16    1
    18    16    17    1
    19    17    18   ar
    20    18    19   ar
    21    19    20   ar
    22    20    21   ar
    23    21    22   ar
    24    17    22   ar
    25    16    23    1
    26    23    24   ar
    27    24    25   ar
    28    25    26   ar
    29    26    27   ar
    30    27    28   ar
    31    23    28   ar
    32     3    29    1
    33     4    30    1
    34     4    31    1
    35     7    32    1
    36    16    33    1
    37    11    34    1
    38    12    35    1
    39    13    36    1
    40    14    37    1
    41    18    38    1
    42    19    39    1
    43    20    40    1
    44    21    41    1
    45    22    42    1
    46    24    43    1
    47    25    44    1
    48    26    45    1
    49    27    46    1
    50    28    47    1
@<TRIPOS>MOLECULE
mol1_1_2
 47 50 0 0 0
SMALL
USER_CHARGES
****
VDW energy = -117.41
@<TRIPOS>ATOM
   1 O1        9.2535    -1.1831    -1.4851  O.2     1  <O>11      -0.2748
   2 C1        8.8535    -1.4341    -2.6122  C.2     1  <O>11       0.2251
   3 N1        7.6050    -1.0300    -3.0010  N.am    1  <O>11      -0.3089
   4 C2        6.7510    -0.2990    -2.0700  C.3     1  <O>11       0.0562
   5 C3        6.5004    -1.1299    -0.8752  C.ar    1  <O>11       0.0863
   6 N2        7.3894    -0.9872     0.1378  N.ar    1  <O>11      -0.1737
   7 N3        7.2898    -1.7893     1.2229  N.ar    1  <O>11      -0.2424
   8 C4        6.2965    -2.7074     1.2751  C.ar    1  <O>11       0.2725
   9 O2        6.3066    -3.5741     2.3841  O.2     1  <O>11      -0.2658
  10 C5        5.2940    -2.8279     0.3019  C.ar    1  <O>11       0.0496
  11 C6        4.2214    -3.7464     0.3794  C.ar    1  <O>11      -0.0487
  12 C7        3.2735    -3.8352    -0.6383  C.ar    1  <O>11      -0.0610
  13 C8        3.3811    -3.0168    -1.7578  C.ar    1  <O>11      -0.0611
  14 C9        4.4376    -2.1090    -1.8556  C.ar    1  <O>11      -0.0520
  15 C10       5.4008    -1.9988    -0.8287  C.ar    1  <O>11       0.0118
  16 C11       9.7260    -2.1810    -3.5640  C.3     1  <O>11       0.0855
  17 C12      10.5820    -3.1324    -2.8090  C.ar    1  <O>11      -0.0312
  18 C13      10.0620    -4.3657    -2.3772  C.ar    1  <O>11      -0.0575
  19 C14      10.8655    -5.2557    -1.6565  C.ar    1  <O>11      -0.0615
  20 C15      12.1923    -4.9267    -1.3645  C.ar    1  <O>11      -0.0617
  21 C16      12.7106    -3.7031    -1.7998  C.ar    1  <O>11      -0.0615
  22 C17      11.9185    -2.8089    -2.5204  C.ar    1  <O>11      -0.0575
  23 C18      10.5854    -1.2224    -4.3054  C.ar    1  <O>11      -0.0312
  24 C19      10.9854    -0.0161    -3.7051  C.ar    1  <O>11      -0.0575
  25 C20      11.7847     0.8915    -4.4093  C.ar    1  <O>11      -0.0615
  26 C21      12.1948     0.6020    -5.7137  C.ar    1  <O>11      -0.0617
  27 C22      11.8015    -0.6014    -6.3084  C.ar    1  <O>11      -0.0615
  28 C23      11.0057    -1.5133    -5.6142  C.ar    1  <O>11      -0.0575
  29 H1        7.2710    -1.2390    -3.9420  H       1  <O>11       0.1491
  30 H2        7.2452     0.6257    -1.7724  H       1  <O>11       0.0528
  31 H3        5.8024    -0.0643    -2.5533  H       1  <O>11       0.0528
  32 H4        7.9479    -1.7029     1.9845  H       1  <O>11       0.1921
  33 H5        9.1048    -2.7334    -4.2700  H       1  <O>11       0.0492
  34 H6        4.1392    -4.3617     1.2039  H       1  <O>11       0.0625
  35 H7        2.4935    -4.5066    -0.5615  H       1  <O>11       0.0618
  36 H8        2.6820    -3.0805    -2.5143  H       1  <O>11       0.0618
  37 H9        4.5157    -1.5090    -2.6917  H       1  <O>11       0.0624
  38 H10       9.0840    -4.6150    -2.5928  H       1  <O>11       0.0621
  39 H11      10.4774    -6.1578    -1.3394  H       1  <O>11       0.0618
  40 H12      12.7850    -5.5822    -0.8316  H       1  <O>11       0.0618
  41 H13      13.6902    -3.4588    -1.5856  H       1  <O>11       0.0618
  42 H14      12.3136    -1.9110    -2.8409  H       1  <O>11       0.0621
  43 H15      10.6886     0.2012    -2.7409  H       1  <O>11       0.0621
  44 H16      12.0720     1.7772    -3.9643  H       1  <O>11       0.0618
  45 H17      12.7834     1.2711    -6.2342  H       1  <O>11       0.0618
  46 H18      12.1033    -0.8173    -7.2714  H       1  <O>11       0.0618
  47 H19      10.7261    -2.4003    -6.0615  H       1  <O>11       0.0621
@<TRIPOS>BOND
     1     1     2    2
     2     2     3   am
     3     3     4    1
     4     4     5    1
     5     5     6   ar
     6     6     7   ar
     7     7     8   ar
     8     8     9    2
     9     8    10   ar
    10    10    11   ar
    11    11    12   ar
    12    12    13   ar
    13    13    14   ar
    14    14    15   ar
    15     5    15   ar
    16    10    15   ar
    17     2    16    1
    18    16    17    1
    19    17    18   ar
    20    18    19   ar
    21    19    20   ar
    22    20    21   ar
    23    21    22   ar
    24    17    22   ar
    25    16    23    1
    26    23    24   ar
    27    24    25   ar
    28    25    26   ar
    29    26    27   ar
    30    27    28   ar
    31    23    28   ar
    32     3    29    1
    33     4    30    1
    34     4    31    1
    35     7    32    1
    36    16    33    1
    37    11    34    1
    38    12    35    1
    39    13    36    1
    40    14    37    1
    41    18    38    1
    42    19    39    1
    43    20    40    1
    44    21    41    1
    45    22    42    1
    46    24    43    1
    47    25    44    1
    48    26    45    1
    49    27    46    1
    50    28    47    1
@<TRIPOS>MOLECULE
mol1_1_3
 47 50 0 0 0
SMALL
USER_CHARGES
****
VDW energy = -117.36
@<TRIPOS>ATOM
   1 O1        9.2535    -1.1831    -1.4851  O.2     1  <O>11      -0.2748
   2 C1        8.8535    -1.4341    -2.6122  C.2     1  <O>11       0.2251
   3 N1        7.6050    -1.0300    -3.0010  N.am    1  <O>11      -0.3089
   4 C2        6.7510    -0.2990    -2.0700  C.3     1  <O>11       0.0562
   5 C3        6.5004    -1.1299    -0.8752  C.ar    1  <O>11       0.0863
   6 N2        7.3894    -0.9872     0.1378  N.ar    1  <O>11      -0.1737
   7 N3        7.2898    -1.7893     1.2229  N.ar    1  <O>11      -0.2424
   8 C4        6.2965    -2.7074     1.2751  C.ar    1  <O>11       0.2725
   9 O2        6.3066    -3.5741     2.3841  O.2     1  <O>11      -0.2658
  10 C5        5.2940    -2.8279     0.3019  C.ar    1  <O>11       0.0496
  11 C6        4.2214    -3.7464     0.3794  C.ar    1  <O>11      -0.0487
  12 C7        3.2735    -3.8352    -0.6383  C.ar    1  <O>11      -0.0610
  13 C8        3.3811    -3.0168    -1.7578  C.ar    1  <O>11      -0.0611
  14 C9        4.4376    -2.1090    -1.8556  C.ar    1  <O>11      -0.0520
  15 C10       5.4008    -1.9988    -0.8287  C.ar    1  <O>11       0.0118
  16 C11       9.7260    -2.1810    -3.5640  C.3     1  <O>11       0.0855
  17 C12      10.5820    -3.1324    -2.8090  C.ar    1  <O>11      -0.0312
  18 C13      10.0620    -4.3657    -2.3772  C.ar    1  <O>11      -0.0575
  19 C14      10.8655    -5.2557    -1.6565  C.ar    1  <O>11      -0.0615
  20 C15      12.1923    -4.9267    -1.3645  C.ar    1  <O>11      -0.0617
  21 C16      12.7106    -3.7031    -1.7998  C.ar    1  <O>11      -0.0615
  22 C17      11.9185    -2.8089    -2.5204  C.ar    1  <O>11      -0.0575
  23 C18      10.5854    -1.2224    -4.3054  C.ar    1  <O>11      -0.0312
  24 C19      11.0069    -1.5123    -5.6146  C.ar    1  <O>11      -0.0575
  25 C20      11.8267    -0.6140    -6.3071  C.ar    1  <O>11      -0.0615
  26 C21      12.2280     0.5806    -5.7028  C.ar    1  <O>11      -0.0617
  27 C22      11.8031     0.8714    -4.4022  C.ar    1  <O>11      -0.0615
  28 C23      10.9849    -0.0171    -3.7039  C.ar    1  <O>11      -0.0575
  29 H1        7.2710    -1.2390    -3.9420  H       1  <O>11       0.1491
  30 H2        7.2452     0.6257    -1.7724  H       1  <O>11       0.0528
  31 H3        5.8024    -0.0643    -2.5533  H       1  <O>11       0.0528
  32 H4        7.9479    -1.7029     1.9845  H       1  <O>11       0.1921
  33 H5        9.1048    -2.7334    -4.2700  H       1  <O>11       0.0492
  34 H6        4.1392    -4.3617     1.2039  H       1  <O>11       0.0625
  35 H7        2.4935    -4.5066    -0.5615  H       1  <O>11       0.0618
  36 H8        2.6820    -3.0805    -2.5143  H       1  <O>11       0.0618
  37 H9        4.5157    -1.5090    -2.6917  H       1  <O>11       0.0624
  38 H10       9.0840    -4.6150    -2.5928  H       1  <O>11       0.0621
  39 H11      10.4774    -6.1578    -1.3394  H       1  <O>11       0.0618
  40 H12      12.7850    -5.5822    -0.8316  H       1  <O>11       0.0618
  41 H13      13.6902    -3.4588    -1.5856  H       1  <O>11       0.0618
  42 H14      12.3136    -1.9110    -2.8409  H       1  <O>11       0.0621
  43 H15      10.7106    -2.3912    -6.0670  H       1  <O>11       0.0621
  44 H16      12.1358    -0.8343    -7.2667  H       1  <O>11       0.0618
  45 H17      12.8332     1.2433    -6.2123  H       1  <O>11       0.0618
  46 H18      12.0982     1.7531    -3.9541  H       1  <O>11       0.0618
  47 H19      10.6735     0.2107    -2.7467  H       1  <O>11       0.0621
@<TRIPOS>BOND
     1     1     2    2
     2     2     3   am
     3     3     4    1
     4     4     5    1
     5     5     6   ar
     6     6     7   ar
     7     7     8   ar
     8     8     9    2
     9     8    10   ar
    10    10    11   ar
    11    11    12   ar
    12    12    13   ar
    13    13    14   ar
    14    14    15   ar
    15     5    15   ar
    16    10    15   ar
    17     2    16    1
    18    16    17    1
    19    17    18   ar
    20    18    19   ar
    21    19    20   ar
    22    20    21   ar
    23    21    22   ar
    24    17    22   ar
    25    16    23    1
    26    23    24   ar
    27    24    25   ar
    28    25    26   ar
    29    26    27   ar
    30    27    28   ar
    31    23    28   ar
    32     3    29    1
    33     4    30    1
    34     4    31    1
    35     7    32    1
    36    16    33    1
    37    11    34    1
    38    12    35    1
    39    13    36    1
    40    14    37    1
    41    18    38    1
    42    19    39    1
    43    20    40    1
    44    21    41    1
    45    22    42    1
    46    24    43    1
    47    25    44    1
    48    26    45    1
    49    27    46    1
    50    28    47    1
@<TRIPOS>MOLECULE
mol1_1_4
 47 50 0 0 0
SMALL
USER_CHARGES
****
VDW energy = -117.31
@<TRIPOS>ATOM
   1 O1        9.2535    -1.1831    -1.4851  O.2     1  <O>11      -0.2748
   2 C1        8.8535    -1.4341    -2.6122  C.2     1  <O>11       0.2251
   3 N1        7.6050    -1.0300    -3.0010  N.am    1  <O>11      -0.3089
   4 C2        6.7510    -0.2990    -2.0700  C.3     1  <O>11       0.0562
   5 C3        5.3884    -0.8673    -2.1014  C.ar    1  <O>11       0.0863
   6 N2        5.2778    -2.1010    -2.6515  N.ar    1  <O>11      -0.1737
   7 N3        4.0497    -2.6452    -2.8134  N.ar    1  <O>11      -0.2424
   8 C4        2.9614    -1.9483    -2.4105  C.ar    1  <O>11       0.2725
   9 O2        1.7104    -2.5269    -2.6951  O.2     1  <O>11      -0.2658
  10 C5        3.0272    -0.7147    -1.7465  C.ar    1  <O>11       0.0496
  11 C6        1.8968    -0.0094    -1.2724  C.ar    1  <O>11      -0.0487
  12 C7        2.0302     1.2282    -0.6458  C.ar    1  <O>11      -0.0610
  13 C8        3.2920     1.7916    -0.4875  C.ar    1  <O>11      -0.0611
  14 C9        4.4192     1.1135    -0.9559  C.ar    1  <O>11      -0.0520
  15 C10       4.3028    -0.1461    -1.5839  C.ar    1  <O>11       0.0118
  16 C11       9.7260    -2.1810    -3.5640  C.3     1  <O>11       0.0855
  17 C12      10.5820    -3.1324    -2.8090  C.ar    1  <O>11      -0.0312
  18 C13      10.0620    -4.3657    -2.3772  C.ar    1  <O>11      -0.0575
  19 C14      10.8655    -5.2557    -1.6565  C.ar    1  <O>11      -0.0615
  20 C15      12.1923    -4.9267    -1.3645  C.ar    1  <O>11      -0.0617
  21 C16      12.7106    -3.7031    -1.7998  C.ar    1  <O>11      -0.0615
  22 C17      11.9185    -2.8089    -2.5204  C.ar    1  <O>11      -0.0575
  23 C18      10.5854    -1.2224    -4.3054  C.ar    1  <O>11      -0.0312
  24 C19      10.9854    -0.0161    -3.7051  C.ar    1  <O>11      -0.0575
  25 C20      11.7847     0.8915    -4.4093  C.ar    1  <O>11      -0.0615
  26 C21      12.1948     0.6020    -5.7137  C.ar    1  <O>11      -0.0617
  27 C22      11.8015    -0.6014    -6.3084  C.ar    1  <O>11      -0.0615
  28 C23      11.0057    -1.5133    -5.6142  C.ar    1  <O>11      -0.0575
  29 H1        7.2710    -1.2390    -3.9420  H       1  <O>11       0.1491
  30 H2        7.1565    -0.3829    -1.0618  H       1  <O>11       0.0528
  31 H3        6.7120     0.7514    -2.3593  H       1  <O>11       0.0528
  32 H4        3.9468    -3.5605    -3.2285  H       1  <O>11       0.1921
  33 H5        9.1048    -2.7334    -4.2700  H       1  <O>11       0.0492
  34 H6        0.9568    -0.4182    -1.3927  H       1  <O>11       0.0625
  35 H7        1.1946     1.7255    -0.2998  H       1  <O>11       0.0618
  36 H8        3.3948     2.7085    -0.0252  H       1  <O>11       0.0618
  37 H9        5.3521     1.5396    -0.8414  H       1  <O>11       0.0624
  38 H10       9.0840    -4.6150    -2.5928  H       1  <O>11       0.0621
  39 H11      10.4774    -6.1578    -1.3394  H       1  <O>11       0.0618
  40 H12      12.7850    -5.5822    -0.8316  H       1  <O>11       0.0618
  41 H13      13.6902    -3.4588    -1.5856  H       1  <O>11       0.0618
  42 H14      12.3136    -1.9110    -2.8409  H       1  <O>11       0.0621
  43 H15      10.6886     0.2012    -2.7409  H       1  <O>11       0.0621
  44 H16      12.0720     1.7772    -3.9643  H       1  <O>11       0.0618
  45 H17      12.7834     1.2711    -6.2342  H       1  <O>11       0.0618
  46 H18      12.1033    -0.8173    -7.2714  H       1  <O>11       0.0618
  47 H19      10.7261    -2.4003    -6.0615  H       1  <O>11       0.0621
@<TRIPOS>BOND
     1     1     2    2
     2     2     3   am
     3     3     4    1
     4     4     5    1
     5     5     6   ar
     6     6     7   ar
     7     7     8   ar
     8     8     9    2
     9     8    10   ar
    10    10    11   ar
    11    11    12   ar
    12    12    13   ar
    13    13    14   ar
    14    14    15   ar
    15     5    15   ar
    16    10    15   ar
    17     2    16    1
    18    16    17    1
    19    17    18   ar
    20    18    19   ar
    21    19    20   ar
    22    20    21   ar
    23    21    22   ar
    24    17    22   ar
    25    16    23    1
    26    23    24   ar
    27    24    25   ar
    28    25    26   ar
    29    26    27   ar
    30    27    28   ar
    31    23    28   ar
    32     3    29    1
    33     4    30    1
    34     4    31    1
    35     7    32    1
    36    16    33    1
    37    11    34    1
    38    12    35    1
    39    13    36    1
    40    14    37    1
    41    18    38    1
    42    19    39    1
    43    20    40    1
    44    21    41    1
    45    22    42    1
    46    24    43    1
    47    25    44    1
    48    26    45    1
    49    27    46    1
    50    28    47    1
@<TRIPOS>MOLECULE
mol1_1_5
 47 50 0 0 0
SMALL
USER_CHARGES
****
VDW energy = -117.25
@<TRIPOS>ATOM
   1 O1        9.2535    -1.1831    -1.4851  O.2     1  <O>11      -0.2748
   2 C1        8.8535    -1.4341    -2.6122  C.2     1  <O>11       0.2251
   3 N1        7.6050    -1.0300    -3.0010  N.am    1  <O>11      -0.3089
   4 C2        6.7510    -0.2990    -2.0700  C.3     1  <O>11       0.0562
   5 C3        5.3884    -0.8673    -2.1014  C.ar    1  <O>11       0.0863
   6 N2        5.2778    -2.1010    -2.6515  N.ar    1  <O>11      -0.1737
   7 N3        4.0497    -2.6452    -2.8134  N.ar    1  <O>11      -0.2424
   8 C4        2.9614    -1.9483    -2.4105  C.ar    1  <O>11       0.2725
   9 O2        1.7104    -2.5269    -2.6951  O.2     1  <O>11      -0.2658
  10 C5        3.0272    -0.7147    -1.7465  C.ar    1  <O>11       0.0496
  11 C6        1.8968    -0.0094    -1.2724  C.ar    1  <O>11      -0.0487
  12 C7        2.0302     1.2282    -0.6458  C.ar    1  <O>11      -0.0610
  13 C8        3.2920     1.7916    -0.4875  C.ar    1  <O>11      -0.0611
  14 C9        4.4192     1.1135    -0.9559  C.ar    1  <O>11      -0.0520
  15 C10       4.3028    -0.1461    -1.5839  C.ar    1  <O>11       0.0118
  16 C11       9.7260    -2.1810    -3.5640  C.3     1  <O>11       0.0855
  17 C12      10.5820    -3.1324    -2.8090  C.ar    1  <O>11      -0.0312
  18 C13      10.0620    -4.3657    -2.3772  C.ar    1  <O>11      -0.0575
  19 C14      10.8655    -5.2557    -1.6565  C.ar    1  <O>11      -0.0615
  20 C15      12.1923    -4.9267    -1.3645  C.ar    1  <O>11      -0.0617
  21 C16      12.7106    -3.7031    -1.7998  C.ar    1  <O>11      -0.0615
  22 C17      11.9185    -2.8089    -2.5204  C.ar    1  <O>11      -0.0575
  23 C18      10.5854    -1.2224    -4.3054  C.ar    1  <O>11      -0.0312
  24 C19      11.0069    -1.5123    -5.6146  C.ar    1  <O>11      -0.0575
  25 C20      11.8267    -0.6140    -6.3071  C.ar    1  <O>11      -0.0615
  26 C21      12.2280     0.5806    -5.7028  C.ar    1  <O>11      -0.0617
  27 C22      11.8031     0.8714    -4.4022  C.ar    1  <O>11      -0.0615
  28 C23      10.9849    -0.0171    -3.7039  C.ar    1  <O>11      -0.0575
  29 H1        7.2710    -1.2390    -3.9420  H       1  <O>11       0.1491
  30 H2        7.1565    -0.3829    -1.0618  H       1  <O>11       0.0528
  31 H3        6.7120     0.7514    -2.3593  H       1  <O>11       0.0528
  32 H4        3.9468    -3.5605    -3.2285  H       1  <O>11       0.1921
  33 H5        9.1048    -2.7334    -4.2700  H       1  <O>11       0.0492
  34 H6        0.9568    -0.4182    -1.3927  H       1  <O>11       0.0625
  35 H7        1.1946     1.7255    -0.2998  H       1  <O>11       0.0618
  36 H8        3.3948     2.7085    -0.0252  H       1  <O>11       0.0618
  37 H9        5.3521     1.5396    -0.8414  H       1  <O>11       0.0624
  38 H10       9.0840    -4.6150    -2.5928  H       1  <O>11       0.0621
  39 H11      10.4774    -6.1578    -1.3394  H       1  <O>11       0.0618
  40 H12      12.7850    -5.5822    -0.8316  H       1  <O>11       0.0618
  41 H13      13.6902    -3.4588    -1.5856  H       1  <O>11       0.0618
  42 H14      12.3136    -1.9110    -2.8409  H       1  <O>11       0.0621
  43 H15      10.7106    -2.3912    -6.0670  H       1  <O>11       0.0621
  44 H16      12.1358    -0.8343    -7.2667  H       1  <O>11       0.0618
  45 H17      12.8332     1.2433    -6.2123  H       1  <O>11       0.0618
  46 H18      12.0982     1.7531    -3.9541  H       1  <O>11       0.0618
  47 H19      10.6735     0.2107    -2.7467  H       1  <O>11       0.0621
@<TRIPOS>BOND
     1     1     2    2
     2     2     3   am
     3     3     4    1
     4     4     5    1
     5     5     6   ar
     6     6     7   ar
     7     7     8   ar
     8     8     9    2
     9     8    10   ar
    10    10    11   ar
    11    11    12   ar
    12    12    13   ar
    13    13    14   ar
    14    14    15   ar
    15     5    15   ar
    16    10    15   ar
    17     2    16    1
    18    16    17    1
    19    17    18   ar
    20    18    19   ar
    21    19    20   ar
    22    20    21   ar
    23    21    22   ar
    24    17    22   ar
    25    16    23    1
    26    23    24   ar
    27    24    25   ar
    28    25    26   ar
    29    26    27   ar
    30    27    28   ar
    31    23    28   ar
    32     3    29    1
    33     4    30    1
    34     4    31    1
    35     7    32    1
    36    16    33    1
    37    11    34    1
    38    12    35    1
    39    13    36    1
    40    14    37    1
    41    18    38    1
    42    19    39    1
    43    20    40    1
    44    21    41    1
    45    22    42    1
    46    24    43    1
    47    25    44    1
    48    26    45    1
    49    27    46    1
    50    28    47    1
@<TRIPOS>MOLECULE
mol1_1_6
 47 50 0 0 0
SMALL
USER_CHARGES
****
VDW energy = -117.14
@<TRIPOS>ATOM
   1 O1        9.2535    -1.1831    -1.4851  O.2     1  <O>11      -0.2748
   2 C1        8.8535    -1.4341    -2.6122  C.2     1  <O>11       0.2251
   3 N1        7.6050    -1.0300    -3.0010  N.am    1  <O>11      -0.3089
   4 C2        6.7510    -0.2990    -2.0700  C.3     1  <O>11       0.0562
   5 C3        6.5004    -1.1299    -0.8752  C.ar    1  <O>11       0.0863
   6 N2        7.3894    -0.9872     0.1378  N.ar    1  <O>11      -0.1737
   7 N3        7.2898    -1.7893     1.2229  N.ar    1  <O>11      -0.2424
   8 C4        6.2965    -2.7074     1.2751  C.ar    1  <O>11       0.2725
   9 O2        6.3066    -3.5741     2.3841  O.2     1  <O>11      -0.2658
  10 C5        5.2940    -2.8279     0.3019  C.ar    1  <O>11       0.0496
  11 C6        4.2214    -3.7464     0.3794  C.ar    1  <O>11      -0.0487
  12 C7        3.2735    -3.8352    -0.6383  C.ar    1  <O>11      -0.0610
  13 C8        3.3811    -3.0168    -1.7578  C.ar    1  <O>11      -0.0611
  14 C9        4.4376    -2.1090    -1.8556  C.ar    1  <O>11      -0.0520
  15 C10       5.4008    -1.9988    -0.8287  C.ar    1  <O>11       0.0118
  16 C11       9.7260    -2.1810    -3.5640  C.3     1  <O>11       0.0855
  17 C12      10.5820    -3.1324    -2.8090  C.ar    1  <O>11      -0.0312
  18 C13      11.4777    -2.6599    -1.8330  C.ar    1  <O>11      -0.0575
  19 C14      12.2914    -3.5555    -1.1309  C.ar    1  <O>11      -0.0615
  20 C15      12.2164    -4.9266    -1.3917  C.ar    1  <O>11      -0.0617
  21 C16      11.3209    -5.3963    -2.3576  C.ar    1  <O>11      -0.0615
  22 C17      10.5039    -4.5120    -3.0626  C.ar    1  <O>11      -0.0575
  23 C18      10.5854    -1.2224    -4.3054  C.ar    1  <O>11      -0.0312
  24 C19      10.9854    -0.0161    -3.7051  C.ar    1  <O>11      -0.0575
  25 C20      11.7847     0.8915    -4.4093  C.ar    1  <O>11      -0.0615
  26 C21      12.1948     0.6020    -5.7137  C.ar    1  <O>11      -0.0617
  27 C22      11.8015    -0.6014    -6.3084  C.ar    1  <O>11      -0.0615
  28 C23      11.0057    -1.5133    -5.6142  C.ar    1  <O>11      -0.0575
  29 H1        7.2710    -1.2390    -3.9420  H       1  <O>11       0.1491
  30 H2        7.2452     0.6257    -1.7724  H       1  <O>11       0.0528
  31 H3        5.8024    -0.0643    -2.5533  H       1  <O>11       0.0528
  32 H4        7.9479    -1.7029     1.9845  H       1  <O>11       0.1921
  33 H5        9.1048    -2.7334    -4.2700  H       1  <O>11       0.0492
  34 H6        4.1392    -4.3617     1.2039  H       1  <O>11       0.0625
  35 H7        2.4935    -4.5066    -0.5615  H       1  <O>11       0.0618
  36 H8        2.6820    -3.0805    -2.5143  H       1  <O>11       0.0618
  37 H9        4.5157    -1.5090    -2.6917  H       1  <O>11       0.0624
  38 H10      11.5349    -1.6489    -1.6341  H       1  <O>11       0.0621
  39 H11      12.9491    -3.2026    -0.4182  H       1  <O>11       0.0618
  40 H12      12.8174    -5.5876    -0.8752  H       1  <O>11       0.0618
  41 H13      11.2638    -6.4084    -2.5512  H       1  <O>11       0.0618
  42 H14       9.8431    -4.8709    -3.7695  H       1  <O>11       0.0621
  43 H15      10.6886     0.2012    -2.7409  H       1  <O>11       0.0621
  44 H16      12.0720     1.7772    -3.9643  H       1  <O>11       0.0618
  45 H17      12.7834     1.2711    -6.2342  H       1  <O>11       0.0618
  46 H18      12.1033    -0.8173    -7.2714  H       1  <O>11       0.0618
  47 H19      10.7261    -2.4003    -6.0615  H       1  <O>11       0.0621
@<TRIPOS>BOND
     1     1     2    2
     2     2     3   am
     3     3     4    1
     4     4     5    1
     5     5     6   ar
     6     6     7   ar
     7     7     8   ar
     8     8     9    2
     9     8    10   ar
    10    10    11   ar
    11    11    12   ar
    12    12    13   ar
    13    13    14   ar
    14    14    15   ar
    15     5    15   ar
    16    10    15   ar
    17     2    16    1
    18    16    17    1
    19    17    18   ar
    20    18    19   ar
    21    19    20   ar
    22    20    21   ar
    23    21    22   ar
    24    17    22   ar
    25    16    23    1
    26    23    24   ar
    27    24    25   ar
    28    25    26   ar
    29    26    27   ar
    30    27    28   ar
    31    23    28   ar
    32     3    29    1
    33     4    30    1
    34     4    31    1
    35     7    32    1
    36    16    33    1
    37    11    34    1
    38    12    35    1
    39    13    36    1
    40    14    37    1
    41    18    38    1
    42    19    39    1
    43    20    40    1
    44    21    41    1
    45    22    42    1
    46    24    43    1
    47    25    44    1
    48    26    45    1
    49    27    46    1
    50    28    47    1
@<TRIPOS>MOLECULE
mol1_1_7
 47 50 0 0 0
SMALL
USER_CHARGES
****
VDW energy = -116.96
@<TRIPOS>ATOM
   1 O1        9.2535    -1.1831    -1.4851  O.2     1  <O>11      -0.2748
   2 C1        8.8535    -1.4341    -2.6122  C.2     1  <O>11       0.2251
   3 N1        7.6050    -1.0300    -3.0010  N.am    1  <O>11      -0.3089
   4 C2        6.7510    -0.2990    -2.0700  C.3     1  <O>11       0.0562
   5 C3        5.3884    -0.8673    -2.1014  C.ar    1  <O>11       0.0863
   6 N2        5.2778    -2.1010    -2.6515  N.ar    1  <O>11      -0.1737
   7 N3        4.0497    -2.6452    -2.8134  N.ar    1  <O>11      -0.2424
   8 C4        2.9614    -1.9483    -2.4105  C.ar    1  <O>11       0.2725
   9 O2        1.7104    -2.5269    -2.6951  O.2     1  <O>11      -0.2658
  10 C5        3.0272    -0.7147    -1.7465  C.ar    1  <O>11       0.0496
  11 C6        1.8968    -0.0094    -1.2724  C.ar    1  <O>11      -0.0487
  12 C7        2.0302     1.2282    -0.6458  C.ar    1  <O>11      -0.0610
  13 C8        3.2920     1.7916    -0.4875  C.ar    1  <O>11      -0.0611
  14 C9        4.4192     1.1135    -0.9559  C.ar    1  <O>11      -0.0520
  15 C10       4.3028    -0.1461    -1.5839  C.ar    1  <O>11       0.0118
  16 C11       9.7260    -2.1810    -3.5640  C.3     1  <O>11       0.0855
  17 C12      10.5820    -3.1324    -2.8090  C.ar    1  <O>11      -0.0312
  18 C13      11.4777    -2.6599    -1.8330  C.ar    1  <O>11      -0.0575
  19 C14      12.2914    -3.5555    -1.1309  C.ar    1  <O>11      -0.0615
  20 C15      12.2164    -4.9266    -1.3917  C.ar    1  <O>11      -0.0617
  21 C16      11.3209    -5.3963    -2.3576  C.ar    1  <O>11      -0.0615
  22 C17      10.5039    -4.5120    -3.0626  C.ar    1  <O>11      -0.0575
  23 C18      10.5854    -1.2224    -4.3054  C.ar    1  <O>11      -0.0312
  24 C19      11.0069    -1.5123    -5.6146  C.ar    1  <O>11      -0.0575
  25 C20      11.8267    -0.6140    -6.3071  C.ar    1  <O>11      -0.0615
  26 C21      12.2280     0.5806    -5.7028  C.ar    1  <O>11      -0.0617
  27 C22      11.8031     0.8714    -4.4022  C.ar    1  <O>11      -0.0615
  28 C23      10.9849    -0.0171    -3.7039  C.ar    1  <O>11      -0.0575
  29 H1        7.2710    -1.2390    -3.9420  H       1  <O>11       0.1491
  30 H2        7.1565    -0.3829    -1.0618  H       1  <O>11       0.0528
  31 H3        6.7120     0.7514    -2.3593  H       1  <O>11       0.0528
  32 H4        3.9468    -3.5605    -3.2285  H       1  <O>11       0.1921
  33 H5        9.1048    -2.7334    -4.2700  H       1  <O>11       0.0492
  34 H6        0.9568    -0.4182    -1.3927  H       1  <O>11       0.0625
  35 H7        1.1946     1.7255    -0.2998  H       1  <O>11       0.0618
  36 H8        3.3948     2.7085    -0.0252  H       1  <O>11       0.0618
  37 H9        5.3521     1.5396    -0.8414  H       1  <O>11       0.0624
  38 H10      11.5349    -1.6489    -1.6341  H       1  <O>11       0.0621
  39 H11      12.9491    -3.2026    -0.4182  H       1  <O>11       0.0618
  40 H12      12.8174    -5.5876    -0.8752  H       1  <O>11       0.0618
  41 H13      11.2638    -6.4084    -2.5512  H       1  <O>11       0.0618
  42 H14       9.8431    -4.8709    -3.7695  H       1  <O>11       0.0621
  43 H15      10.7106    -2.3912    -6.0670  H       1  <O>11       0.0621
  44 H16      12.1358    -0.8343    -7.2667  H       1  <O>11       0.0618
  45 H17      12.8332     1.2433    -6.2123  H       1  <O>11       0.0618
  46 H18      12.0982     1.7531    -3.9541  H       1  <O>11       0.0618
  47 H19      10.6735     0.2107    -2.7467  H       1  <O>11       0.0621
@<TRIPOS>BOND
     1     1     2    2
     2     2     3   am
     3     3     4    1
     4     4     5    1
     5     5     6   ar
     6     6     7   ar
     7     7     8   ar
     8     8     9    2
     9     8    10   ar
    10    10    11   ar
    11    11    12   ar
    12    12    13   ar
    13    13    14   ar
    14    14    15   ar
    15     5    15   ar
    16    10    15   ar
    17     2    16    1
    18    16    17    1
    19    17    18   ar
    20    18    19   ar
    21    19    20   ar
    22    20    21   ar
    23    21    22   ar
    24    17    22   ar
    25    16    23    1
    26    23    24   ar
    27    24    25   ar
    28    25    26   ar
    29    26    27   ar
    30    27    28   ar
    31    23    28   ar
    32     3    29    1
    33     4    30    1
    34     4    31    1
    35     7    32    1
    36    16    33    1
    37    11    34    1
    38    12    35    1
    39    13    36    1
    40    14    37    1
    41    18    38    1
    42    19    39    1
    43    20    40    1
    44    21    41    1
    45    22    42    1
    46    24    43    1
    47    25    44    1
    48    26    45    1
    49    27    46    1
    50    28    47    1
@<TRIPOS>MOLECULE
mol1_1_8
 47 50 0 0 0
SMALL
USER_CHARGES
****
VDW energy = -116.22
@<TRIPOS>ATOM
   1 O1        9.2535    -1.1831    -1.4851  O.2     1  <O>11      -0.2748
   2 C1        8.8535    -1.4341    -2.6122  C.2     1  <O>11       0.2251
   3 N1        7.6050    -1.0300    -3.0010  N.am    1  <O>11      -0.3089
   4 C2        6.7510    -0.2990    -2.0700  C.3     1  <O>11       0.0562
   5 C3        5.3884    -0.8673    -2.1014  C.ar    1  <O>11       0.0863
   6 N2        4.9286    -1.3593    -0.9253  N.ar    1  <O>11      -0.1737
   7 N3        3.7328    -1.9915    -0.8952  N.ar    1  <O>11      -0.2424
   8 C4        3.0189    -2.1066    -2.0394  C.ar    1  <O>11       0.2725
   9 O2        1.8316    -2.8583    -1.9604  O.2     1  <O>11      -0.2658
  10 C5        3.4019    -1.5296    -3.2589  C.ar    1  <O>11       0.0496
  11 C6        2.6324    -1.5977    -4.4436  C.ar    1  <O>11      -0.0487
  12 C7        3.0857    -1.0268    -5.6313  C.ar    1  <O>11      -0.0610
  13 C8        4.3191    -0.3848    -5.6642  C.ar    1  <O>11      -0.0611
  14 C9        5.0964    -0.3140    -4.5064  C.ar    1  <O>11      -0.0520
  15 C10       4.6475    -0.8780    -3.2920  C.ar    1  <O>11       0.0118
  16 C11       9.7260    -2.1810    -3.5640  C.3     1  <O>11       0.0855
  17 C12      10.5820    -3.1324    -2.8090  C.ar    1  <O>11      -0.0312
  18 C13      10.0620    -4.3657    -2.3772  C.ar    1  <O>11      -0.0575
  19 C14      10.8655    -5.2557    -1.6565  C.ar    1  <O>11      -0.0615
  20 C15      12.1923    -4.9267    -1.3645  C.ar    1  <O>11      -0.0617
  21 C16      12.7106    -3.7031    -1.7998  C.ar    1  <O>11      -0.0615
  22 C17      11.9185    -2.8089    -2.5204  C.ar    1  <O>11      -0.0575
  23 C18      10.5854    -1.2224    -4.3054  C.ar    1  <O>11      -0.0312
  24 C19      11.0069    -1.5123    -5.6146  C.ar    1  <O>11      -0.0575
  25 C20      11.8267    -0.6140    -6.3071  C.ar    1  <O>11      -0.0615
  26 C21      12.2280     0.5806    -5.7028  C.ar    1  <O>11      -0.0617
  27 C22      11.8031     0.8714    -4.4022  C.ar    1  <O>11      -0.0615
  28 C23      10.9849    -0.0171    -3.7039  C.ar    1  <O>11      -0.0575
  29 H1        7.2710    -1.2390    -3.9420  H       1  <O>11       0.1491
  30 H2        7.1565    -0.3829    -1.0618  H       1  <O>11       0.0528
  31 H3        6.7120     0.7514    -2.3593  H       1  <O>11       0.0528
  32 H4        3.3771    -2.3715    -0.0293  H       1  <O>11       0.1921
  33 H5        9.1048    -2.7334    -4.2700  H       1  <O>11       0.0492
  34 H6        1.7194    -2.0786    -4.4282  H       1  <O>11       0.0625
  35 H7        2.5075    -1.0802    -6.4845  H       1  <O>11       0.0618
  36 H8        4.6589     0.0381    -6.5422  H       1  <O>11       0.0618
  37 H9        6.0136     0.1580    -4.5387  H       1  <O>11       0.0624
  38 H10       9.0840    -4.6150    -2.5928  H       1  <O>11       0.0621
  39 H11      10.4774    -6.1578    -1.3394  H       1  <O>11       0.0618
  40 H12      12.7850    -5.5822    -0.8316  H       1  <O>11       0.0618
  41 H13      13.6902    -3.4588    -1.5856  H       1  <O>11       0.0618
  42 H14      12.3136    -1.9110    -2.8409  H       1  <O>11       0.0621
  43 H15      10.7106    -2.3912    -6.0670  H       1  <O>11       0.0621
  44 H16      12.1358    -0.8343    -7.2667  H       1  <O>11       0.0618
  45 H17      12.8332     1.2433    -6.2123  H       1  <O>11       0.0618
  46 H18      12.0982     1.7531    -3.9541  H       1  <O>11       0.0618
  47 H19      10.6735     0.2107    -2.7467  H       1  <O>11       0.0621
@<TRIPOS>BOND
     1     1     2    2
     2     2     3   am
     3     3     4    1
     4     4     5    1
     5     5     6   ar
     6     6     7   ar
     7     7     8   ar
     8     8     9    2
     9     8    10   ar
    10    10    11   ar
    11    11    12   ar
    12    12    13   ar
    13    13    14   ar
    14    14    15   ar
    15     5    15   ar
    16    10    15   ar
    17     2    16    1
    18    16    17    1
    19    17    18   ar
    20    18    19   ar
    21    19    20   ar
    22    20    21   ar
    23    21    22   ar
    24    17    22   ar
    25    16    23    1
    26    23    24   ar
    27    24    25   ar
    28    25    26   ar
    29    26    27   ar
    30    27    28   ar
    31    23    28   ar
    32     3    29    1
    33     4    30    1
    34     4    31    1
    35     7    32    1
    36    16    33    1
    37    11    34    1
    38    12    35    1
    39    13    36    1
    40    14    37    1
    41    18    38    1
    42    19    39    1
    43    20    40    1
    44    21    41    1
    45    22    42    1
    46    24    43    1
    47    25    44    1
    48    26    45    1
    49    27    46    1
    50    28    47    1
@<TRIPOS>MOLECULE
mol1_1_9
 47 50 0 0 0
SMALL
USER_CHARGES
****
VDW energy = -115.95
@<TRIPOS>ATOM
   1 O1        9.2535    -1.1831    -1.4851  O.2     1  <O>11      -0.2748
   2 C1        8.8535    -1.4341    -2.6122  C.2     1  <O>11       0.2251
   3 N1        7.6050    -1.0300    -3.0010  N.am    1  <O>11      -0.3089
   4 C2        6.7510    -0.2990    -2.0700  C.3     1  <O>11       0.0562
   5 C3        5.3884    -0.8673    -2.1014  C.ar    1  <O>11       0.0863
   6 N2        4.9286    -1.3593    -0.9253  N.ar    1  <O>11      -0.1737
   7 N3        3.7328    -1.9915    -0.8952  N.ar    1  <O>11      -0.2424
   8 C4        3.0189    -2.1066    -2.0394  C.ar    1  <O>11       0.2725
   9 O2        1.8316    -2.8583    -1.9604  O.2     1  <O>11      -0.2658
  10 C5        3.4019    -1.5296    -3.2589  C.ar    1  <O>11       0.0496
  11 C6        2.6324    -1.5977    -4.4436  C.ar    1  <O>11      -0.0487
  12 C7        3.0857    -1.0268    -5.6313  C.ar    1  <O>11      -0.0610
  13 C8        4.3191    -0.3848    -5.6642  C.ar    1  <O>11      -0.0611
  14 C9        5.0964    -0.3140    -4.5064  C.ar    1  <O>11      -0.0520
  15 C10       4.6475    -0.8780    -3.2920  C.ar    1  <O>11       0.0118
  16 C11       9.7260    -2.1810    -3.5640  C.3     1  <O>11       0.0855
  17 C12      10.5820    -3.1324    -2.8090  C.ar    1  <O>11      -0.0312
  18 C13      11.4777    -2.6599    -1.8330  C.ar    1  <O>11      -0.0575
  19 C14      12.2914    -3.5555    -1.1309  C.ar    1  <O>11      -0.0615
  20 C15      12.2164    -4.9266    -1.3917  C.ar    1  <O>11      -0.0617
  21 C16      11.3209    -5.3963    -2.3576  C.ar    1  <O>11      -0.0615
  22 C17      10.5039    -4.5120    -3.0626  C.ar    1  <O>11      -0.0575
  23 C18      10.5854    -1.2224    -4.3054  C.ar    1  <O>11      -0.0312
  24 C19      11.0069    -1.5123    -5.6146  C.ar    1  <O>11      -0.0575
  25 C20      11.8267    -0.6140    -6.3071  C.ar    1  <O>11      -0.0615
  26 C21      12.2280     0.5806    -5.7028  C.ar    1  <O>11      -0.0617
  27 C22      11.8031     0.8714    -4.4022  C.ar    1  <O>11      -0.0615
  28 C23      10.9849    -0.0171    -3.7039  C.ar    1  <O>11      -0.0575
  29 H1        7.2710    -1.2390    -3.9420  H       1  <O>11       0.1491
  30 H2        7.1565    -0.3829    -1.0618  H       1  <O>11       0.0528
  31 H3        6.7120     0.7514    -2.3593  H       1  <O>11       0.0528
  32 H4        3.3771    -2.3715    -0.0293  H       1  <O>11       0.1921
  33 H5        9.1048    -2.7334    -4.2700  H       1  <O>11       0.0492
  34 H6        1.7194    -2.0786    -4.4282  H       1  <O>11       0.0625
  35 H7        2.5075    -1.0802    -6.4845  H       1  <O>11       0.0618
  36 H8        4.6589     0.0381    -6.5422  H       1  <O>11       0.0618
  37 H9        6.0136     0.1580    -4.5387  H       1  <O>11       0.0624
  38 H10      11.5349    -1.6489    -1.6341  H       1  <O>11       0.0621
  39 H11      12.9491    -3.2026    -0.4182  H       1  <O>11       0.0618
  40 H12      12.8174    -5.5876    -0.8752  H       1  <O>11       0.0618
  41 H13      11.2638    -6.4084    -2.5512  H       1  <O>11       0.0618
  42 H14       9.8431    -4.8709    -3.7695  H       1  <O>11       0.0621
  43 H15      10.7106    -2.3912    -6.0670  H       1  <O>11       0.0621
  44 H16      12.1358    -0.8343    -7.2667  H       1  <O>11       0.0618
  45 H17      12.8332     1.2433    -6.2123  H       1  <O>11       0.0618
  46 H18      12.0982     1.7531    -3.9541  H       1  <O>11       0.0618
  47 H19      10.6735     0.2107    -2.7467  H       1  <O>11       0.0621
@<TRIPOS>BOND
     1     1     2    2
     2     2     3   am
     3     3     4    1
     4     4     5    1
     5     5     6   ar
     6     6     7   ar
     7     7     8   ar
     8     8     9    2
     9     8    10   ar
    10    10    11   ar
    11    11    12   ar
    12    12    13   ar
    13    13    14   ar
    14    14    15   ar
    15     5    15   ar
    16    10    15   ar
    17     2    16    1
    18    16    17    1
    19    17    18   ar
    20    18    19   ar
    21    19    20   ar
    22    20    21   ar
    23    21    22   ar
    24    17    22   ar
    25    16    23    1
    26    23    24   ar
    27    24    25   ar
    28    25    26   ar
    29    26    27   ar
    30    27    28   ar
    31    23    28   ar
    32     3    29    1
    33     4    30    1
    34     4    31    1
    35     7    32    1
    36    16    33    1
    37    11    34    1
    38    12    35    1
    39    13    36    1
    40    14    37    1
    41    18    38    1
    42    19    39    1
    43    20    40    1
    44    21    41    1
    45    22    42    1
    46    24    43    1
    47    25    44    1
    48    26    45    1
    49    27    46    1
    50    28    47    1
@<TRIPOS>MOLECULE
mol1_1_10
 47 50 0 0 0
SMALL
USER_CHARGES
****
VDW energy = -114.16
@<TRIPOS>ATOM
   1 O1        9.2535    -1.1831    -1.4851  O.2     1  <O>11      -0.2748
   2 C1        8.8535    -1.4341    -2.6122  C.2     1  <O>11       0.2251
   3 N1        7.6050    -1.0300    -3.0010  N.am    1  <O>11      -0.3089
   4 C2        6.7510    -0.2990    -2.0700  C.3     1  <O>11       0.0562
   5 C3        6.5004    -1.1299    -0.8752  C.ar    1  <O>11       0.0863
   6 N2        7.0860    -2.3521    -0.8750  N.ar    1  <O>11      -0.1737
   7 N3        6.8191    -3.2131     0.1341  N.ar    1  <O>11      -0.2424
   8 C4        5.9823    -2.8275     1.1257  C.ar    1  <O>11       0.2725
   9 O2        5.6703    -3.8021     2.0920  O.2     1  <O>11      -0.2658
  10 C5        5.4304    -1.5420     1.2247  C.ar    1  <O>11       0.0496
  11 C6        4.6016    -1.1158     2.2885  C.ar    1  <O>11      -0.0487
  12 C7        4.0611     0.1685     2.3110  C.ar    1  <O>11      -0.0610
  13 C8        4.3283     1.0504     1.2691  C.ar    1  <O>11      -0.0611
  14 C9        5.1383     0.6450     0.2064  C.ar    1  <O>11      -0.0520
  15 C10       5.7026    -0.6493     0.1730  C.ar    1  <O>11       0.0118
  16 C11       9.7260    -2.1810    -3.5640  C.3     1  <O>11       0.0855
  17 C12      10.5820    -3.1324    -2.8090  C.ar    1  <O>11      -0.0312
  18 C13      10.0620    -4.3657    -2.3772  C.ar    1  <O>11      -0.0575
  19 C14      10.8655    -5.2557    -1.6565  C.ar    1  <O>11      -0.0615
  20 C15      12.1923    -4.9267    -1.3645  C.ar    1  <O>11      -0.0617
  21 C16      12.7106    -3.7031    -1.7998  C.ar    1  <O>11      -0.0615
  22 C17      11.9185    -2.8089    -2.5204  C.ar    1  <O>11      -0.0575
  23 C18      10.5854    -1.2224    -4.3054  C.ar    1  <O>11      -0.0312
  24 C19      10.9854    -0.0161    -3.7051  C.ar    1  <O>11      -0.0575
  25 C20      11.7847     0.8915    -4.4093  C.ar    1  <O>11      -0.0615
  26 C21      12.1948     0.6020    -5.7137  C.ar    1  <O>11      -0.0617
  27 C22      11.8015    -0.6014    -6.3084  C.ar    1  <O>11      -0.0615
  28 C23      11.0057    -1.5133    -5.6142  C.ar    1  <O>11      -0.0575
  29 H1        7.2710    -1.2390    -3.9420  H       1  <O>11       0.1491
  30 H2        7.2452     0.6257    -1.7724  H       1  <O>11       0.0528
  31 H3        5.8024    -0.0643    -2.5533  H       1  <O>11       0.0528
  32 H4        7.2402    -4.1313     0.1474  H       1  <O>11       0.1921
  33 H5        9.1048    -2.7334    -4.2700  H       1  <O>11       0.0492
  34 H6        4.3935    -1.7672     3.0615  H       1  <O>11       0.0625
  35 H7        3.4640     0.4646     3.0990  H       1  <O>11       0.0618
  36 H8        3.9289     2.0019     1.2815  H       1  <O>11       0.0618
  37 H9        5.3277     1.3016    -0.5669  H       1  <O>11       0.0624
  38 H10       9.0840    -4.6150    -2.5928  H       1  <O>11       0.0621
  39 H11      10.4774    -6.1578    -1.3394  H       1  <O>11       0.0618
  40 H12      12.7850    -5.5822    -0.8316  H       1  <O>11       0.0618
  41 H13      13.6902    -3.4588    -1.5856  H       1  <O>11       0.0618
  42 H14      12.3136    -1.9110    -2.8409  H       1  <O>11       0.0621
  43 H15      10.6886     0.2012    -2.7409  H       1  <O>11       0.0621
  44 H16      12.0720     1.7772    -3.9643  H       1  <O>11       0.0618
  45 H17      12.7834     1.2711    -6.2342  H       1  <O>11       0.0618
  46 H18      12.1033    -0.8173    -7.2714  H       1  <O>11       0.0618
  47 H19      10.7261    -2.4003    -6.0615  H       1  <O>11       0.0621
@<TRIPOS>BOND
     1     1     2    2
     2     2     3   am
     3     3     4    1
     4     4     5    1
     5     5     6   ar
     6     6     7   ar
     7     7     8   ar
     8     8     9    2
     9     8    10   ar
    10    10    11   ar
    11    11    12   ar
    12    12    13   ar
    13    13    14   ar
    14    14    15   ar
    15     5    15   ar
    16    10    15   ar
    17     2    16    1
    18    16    17    1
    19    17    18   ar
    20    18    19   ar
    21    19    20   ar
    22    20    21   ar
    23    21    22   ar
    24    17    22   ar
    25    16    23    1
    26    23    24   ar
    27    24    25   ar
    28    25    26   ar
    29    26    27   ar
    30    27    28   ar
    31    23    28   ar
    32     3    29    1
    33     4    30    1
    34     4    31    1
    35     7    32    1
    36    16    33    1
    37    11    34    1
    38    12    35    1
    39    13    36    1
    40    14    37    1
    41    18    38    1
    42    19    39    1
    43    20    40    1
    44    21    41    1
    45    22    42    1
    46    24    43    1
    47    25    44    1
    48    26    45    1
    49    27    46    1
    50    28    47    1
@<TRIPOS>MOLECULE
mol1_1_11
 47 50 0 0 0
SMALL
USER_CHARGES
****
VDW energy = -112.15
@<TRIPOS>ATOM
   1 O1        9.2535    -1.1831    -1.4851  O.2     1  <O>11      -0.2748
   2 C1        8.8535    -1.4341    -2.6122  C.2     1  <O>11       0.2251
   3 N1        7.6050    -1.0300    -3.0010  N.am    1  <O>11      -0.3089
   4 C2        6.7510    -0.2990    -2.0700  C.3     1  <O>11       0.0562
   5 C3        5.3884    -0.8673    -2.1014  C.ar    1  <O>11       0.0863
   6 N2        5.2778    -2.1010    -2.6515  N.ar    1  <O>11      -0.1737
   7 N3        4.0497    -2.6452    -2.8134  N.ar    1  <O>11      -0.2424
   8 C4        2.9614    -1.9483    -2.4105  C.ar    1  <O>11       0.2725
   9 O2        1.7104    -2.5269    -2.6951  O.2     1  <O>11      -0.2658
  10 C5        3.0272    -0.7147    -1.7465  C.ar    1  <O>11       0.0496
  11 C6        1.8968    -0.0094    -1.2724  C.ar    1  <O>11      -0.0487
  12 C7        2.0302     1.2282    -0.6458  C.ar    1  <O>11      -0.0610
  13 C8        3.2920     1.7916    -0.4875  C.ar    1  <O>11      -0.0611
  14 C9        4.4192     1.1135    -0.9559  C.ar    1  <O>11      -0.0520
  15 C10       4.3028    -0.1461    -1.5839  C.ar    1  <O>11       0.0118
  16 C11       9.7260    -2.1810    -3.5640  C.3     1  <O>11       0.0855
  17 C12       9.5861    -1.6000    -4.9244  C.ar    1  <O>11      -0.0312
  18 C13      10.2796    -0.4261    -5.2693  C.ar    1  <O>11      -0.0575
  19 C14      10.1381     0.1264    -6.5467  C.ar    1  <O>11      -0.0615
  20 C15       9.3097    -0.4874    -7.4905  C.ar    1  <O>11      -0.0617
  21 C16       8.6256    -1.6582    -7.1491  C.ar    1  <O>11      -0.0615
  22 C17       8.7606    -2.2183    -5.8785  C.ar    1  <O>11      -0.0575
  23 C18       9.3204    -3.6100    -3.5915  C.ar    1  <O>11      -0.0312
  24 C19       7.9842    -3.9736    -3.3507  C.ar    1  <O>11      -0.0575
  25 C20       7.6062    -5.3210    -3.3646  C.ar    1  <O>11      -0.0615
  26 C21       8.5546    -6.3144    -3.6230  C.ar    1  <O>11      -0.0617
  27 C22       9.8830    -5.9515    -3.8687  C.ar    1  <O>11      -0.0615
  28 C23      10.2696    -4.6110    -3.8581  C.ar    1  <O>11      -0.0575
  29 H1        7.2710    -1.2390    -3.9420  H       1  <O>11       0.1491
  30 H2        7.1565    -0.3829    -1.0618  H       1  <O>11       0.0528
  31 H3        6.7120     0.7514    -2.3593  H       1  <O>11       0.0528
  32 H4        3.9468    -3.5605    -3.2285  H       1  <O>11       0.1921
  33 H5       10.7651    -2.1044    -3.2417  H       1  <O>11       0.0492
  34 H6        0.9568    -0.4182    -1.3927  H       1  <O>11       0.0625
  35 H7        1.1946     1.7255    -0.2998  H       1  <O>11       0.0618
  36 H8        3.3948     2.7085    -0.0252  H       1  <O>11       0.0618
  37 H9        5.3521     1.5396    -0.8414  H       1  <O>11       0.0624
  38 H10      10.8951     0.0295    -4.5774  H       1  <O>11       0.0621
  39 H11      10.6469     0.9898    -6.7929  H       1  <O>11       0.0618
  40 H12       9.2038    -0.0796    -8.4325  H       1  <O>11       0.0618
  41 H13       8.0140    -2.1132    -7.8448  H       1  <O>11       0.0618
  42 H14       8.2548    -3.0857    -5.6397  H       1  <O>11       0.0621
  43 H15       7.2790    -3.2440    -3.1629  H       1  <O>11       0.0621
  44 H16       6.6242    -5.5818    -3.1834  H       1  <O>11       0.0618
  45 H17       8.2770    -7.3084    -3.6326  H       1  <O>11       0.0618
  46 H18      10.5850    -6.6835    -4.0599  H       1  <O>11       0.0618
  47 H19      11.2515    -4.3550    -4.0459  H       1  <O>11       0.0621
@<TRIPOS>BOND
     1     1     2    2
     2     2     3   am
     3     3     4    1
     4     4     5    1
     5     5     6   ar
     6     6     7   ar
     7     7     8   ar
     8     8     9    2
     9     8    10   ar
    10    10    11   ar
    11    11    12   ar
    12    12    13   ar
    13    13    14   ar
    14    14    15   ar
    15     5    15   ar
    16    10    15   ar
    17     2    16    1
    18    16    17    1
    19    17    18   ar
    20    18    19   ar
    21    19    20   ar
    22    20    21   ar
    23    21    22   ar
    24    17    22   ar
    25    16    23    1
    26    23    24   ar
    27    24    25   ar
    28    25    26   ar
    29    26    27   ar
    30    27    28   ar
    31    23    28   ar
    32     3    29    1
    33     4    30    1
    34     4    31    1
    35     7    32    1
    36    16    33    1
    37    11    34    1
    38    12    35    1
    39    13    36    1
    40    14    37    1
    41    18    38    1
    42    19    39    1
    43    20    40    1
    44    21    41    1
    45    22    42    1
    46    24    43    1
    47    25    44    1
    48    26    45    1
    49    27    46    1
    50    28    47    1
@<TRIPOS>MOLECULE
mol1_1_12
 47 50 0 0 0
SMALL
USER_CHARGES
****
VDW energy = -111.92
@<TRIPOS>ATOM
   1 O1        9.2535    -1.1831    -1.4851  O.2     1  <O>11      -0.2748
   2 C1        8.8535    -1.4341    -2.6122  C.2     1  <O>11       0.2251
   3 N1        7.6050    -1.0300    -3.0010  N.am    1  <O>11      -0.3089
   4 C2        6.7510    -0.2990    -2.0700  C.3     1  <O>11       0.0562
   5 C3        5.3884    -0.8673    -2.1014  C.ar    1  <O>11       0.0863
   6 N2        4.9286    -1.3593    -0.9253  N.ar    1  <O>11      -0.1737
   7 N3        3.7328    -1.9915    -0.8952  N.ar    1  <O>11      -0.2424
   8 C4        3.0189    -2.1066    -2.0394  C.ar    1  <O>11       0.2725
   9 O2        1.8316    -2.8583    -1.9604  O.2     1  <O>11      -0.2658
  10 C5        3.4019    -1.5296    -3.2589  C.ar    1  <O>11       0.0496
  11 C6        2.6324    -1.5977    -4.4436  C.ar    1  <O>11      -0.0487
  12 C7        3.0857    -1.0268    -5.6313  C.ar    1  <O>11      -0.0610
  13 C8        4.3191    -0.3848    -5.6642  C.ar    1  <O>11      -0.0611
  14 C9        5.0964    -0.3140    -4.5064  C.ar    1  <O>11      -0.0520
  15 C10       4.6475    -0.8780    -3.2920  C.ar    1  <O>11       0.0118
  16 C11       9.7260    -2.1810    -3.5640  C.3     1  <O>11       0.0855
  17 C12       8.9027    -3.1464    -4.3373  C.ar    1  <O>11      -0.0312
  18 C13       8.1863    -4.1587    -3.6740  C.ar    1  <O>11      -0.0575
  19 C14       7.4207    -5.0742    -4.4040  C.ar    1  <O>11      -0.0615
  20 C15       7.3592    -4.9860    -5.7977  C.ar    1  <O>11      -0.0617
  21 C16       8.0665    -3.9753    -6.4560  C.ar    1  <O>11      -0.0615
  22 C17       8.8320    -3.0564    -5.7376  C.ar    1  <O>11      -0.0575
  23 C18      10.7707    -2.9166    -2.8060  C.ar    1  <O>11      -0.0312
  24 C19      12.0282    -3.1611    -3.3845  C.ar    1  <O>11      -0.0575
  25 C20      13.0070    -3.8651    -2.6739  C.ar    1  <O>11      -0.0615
  26 C21      12.7421    -4.3258    -1.3813  C.ar    1  <O>11      -0.0617
  27 C22      11.4926    -4.0769    -0.8037  C.ar    1  <O>11      -0.0615
  28 C23      10.5107    -3.3751    -1.5035  C.ar    1  <O>11      -0.0575
  29 H1        7.2710    -1.2390    -3.9420  H       1  <O>11       0.1491
  30 H2        7.1565    -0.3829    -1.0618  H       1  <O>11       0.0528
  31 H3        6.7120     0.7514    -2.3593  H       1  <O>11       0.0528
  32 H4        3.3771    -2.3715    -0.0293  H       1  <O>11       0.1921
  33 H5       10.2013    -1.4785    -4.2496  H       1  <O>11       0.0492
  34 H6        1.7194    -2.0786    -4.4282  H       1  <O>11       0.0625
  35 H7        2.5075    -1.0802    -6.4845  H       1  <O>11       0.0618
  36 H8        4.6589     0.0381    -6.5422  H       1  <O>11       0.0618
  37 H9        6.0136     0.1580    -4.5387  H       1  <O>11       0.0624
  38 H10       8.2255    -4.2265    -2.6450  H       1  <O>11       0.0621
  39 H11       6.8998    -5.8169    -3.9120  H       1  <O>11       0.0618
  40 H12       6.7958    -5.6619    -6.3368  H       1  <O>11       0.0618
  41 H13       8.0219    -3.9083    -7.4849  H       1  <O>11       0.0618
  42 H14       9.3455    -2.3115    -6.2341  H       1  <O>11       0.0621
  43 H15      12.2305    -2.8200    -4.3373  H       1  <O>11       0.0621
  44 H16      13.9270    -4.0446    -3.1057  H       1  <O>11       0.0618
  45 H17      13.4629    -4.8458    -0.8568  H       1  <O>11       0.0618
  46 H18      11.2950    -4.4161     0.1507  H       1  <O>11       0.0618
  47 H19       9.5944    -3.1929    -1.0651  H       1  <O>11       0.0621
@<TRIPOS>BOND
     1     1     2    2
     2     2     3   am
     3     3     4    1
     4     4     5    1
     5     5     6   ar
     6     6     7   ar
     7     7     8   ar
     8     8     9    2
     9     8    10   ar
    10    10    11   ar
    11    11    12   ar
    12    12    13   ar
    13    13    14   ar
    14    14    15   ar
    15     5    15   ar
    16    10    15   ar
    17     2    16    1
    18    16    17    1
    19    17    18   ar
    20    18    19   ar
    21    19    20   ar
    22    20    21   ar
    23    21    22   ar
    24    17    22   ar
    25    16    23    1
    26    23    24   ar
    27    24    25   ar
    28    25    26   ar
    29    26    27   ar
    30    27    28   ar
    31    23    28   ar
    32     3    29    1
    33     4    30    1
    34     4    31    1
    35     7    32    1
    36    16    33    1
    37    11    34    1
    38    12    35    1
    39    13    36    1
    40    14    37    1
    41    18    38    1
    42    19    39    1
    43    20    40    1
    44    21    41    1
    45    22    42    1
    46    24    43    1
    47    25    44    1
    48    26    45    1
    49    27    46    1
    50    28    47    1
@<TRIPOS>MOLECULE
mol1_1_13
 47 50 0 0 0
SMALL
USER_CHARGES
****
VDW energy = -111.58
@<TRIPOS>ATOM
   1 O1        9.2535    -1.1831    -1.4851  O.2     1  <O>11      -0.2748
   2 C1        8.8535    -1.4341    -2.6122  C.2     1  <O>11       0.2251
   3 N1        7.6050    -1.0300    -3.0010  N.am    1  <O>11      -0.3089
   4 C2        7.1265    -1.3296    -4.3470  C.3     1  <O>11       0.0562
   5 C3        6.5112    -0.1210    -4.9314  C.ar    1  <O>11       0.0863
   6 N2        7.3483     0.6896    -5.6235  N.ar    1  <O>11      -0.1737
   7 N3        6.8843     1.8683    -6.0990  N.ar    1  <O>11      -0.2424
   8 C4        5.5911     2.2037    -5.8817  C.ar    1  <O>11       0.2725
   9 O2        5.1976     3.4832    -6.3165  O.2     1  <O>11      -0.2658
  10 C5        4.6601     1.3588    -5.2602  C.ar    1  <O>11       0.0496
  11 C6        3.2946     1.6803    -5.0816  C.ar    1  <O>11      -0.0487
  12 C7        2.4278     0.8063    -4.4282  C.ar    1  <O>11      -0.0610
  13 C8        2.9068    -0.4013    -3.9316  C.ar    1  <O>11      -0.0611
  14 C9        4.2538    -0.7328    -4.0917  C.ar    1  <O>11      -0.0520
  15 C10       5.1435     0.1366    -4.7605  C.ar    1  <O>11       0.0118
  16 C11       9.7260    -2.1810    -3.5640  C.3     1  <O>11       0.0855
  17 C12      10.5820    -3.1324    -2.8090  C.ar    1  <O>11      -0.0312
  18 C13      10.0620    -4.3657    -2.3772  C.ar    1  <O>11      -0.0575
  19 C14      10.8655    -5.2557    -1.6565  C.ar    1  <O>11      -0.0615
  20 C15      12.1923    -4.9267    -1.3645  C.ar    1  <O>11      -0.0617
  21 C16      12.7106    -3.7031    -1.7998  C.ar    1  <O>11      -0.0615
  22 C17      11.9185    -2.8089    -2.5204  C.ar    1  <O>11      -0.0575
  23 C18      10.5854    -1.2224    -4.3054  C.ar    1  <O>11      -0.0312
  24 C19      10.9854    -0.0161    -3.7051  C.ar    1  <O>11      -0.0575
  25 C20      11.7847     0.8915    -4.4093  C.ar    1  <O>11      -0.0615
  26 C21      12.1948     0.6020    -5.7137  C.ar    1  <O>11      -0.0617
  27 C22      11.8015    -0.6014    -6.3084  C.ar    1  <O>11      -0.0615
  28 C23      11.0057    -1.5133    -5.6142  C.ar    1  <O>11      -0.0575
  29 H1        7.0080    -0.5198    -2.3499  H       1  <O>11       0.1491
  30 H2        7.9636    -1.6478    -4.9683  H       1  <O>11       0.0528
  31 H3        6.3849    -2.1273    -4.3009  H       1  <O>11       0.0528
  32 H4        7.4954     2.4891    -6.6106  H       1  <O>11       0.1921
  33 H5        9.1048    -2.7334    -4.2700  H       1  <O>11       0.0492
  34 H6        2.9337     2.5778    -5.4414  H       1  <O>11       0.0625
  35 H7        1.4327     1.0546    -4.3131  H       1  <O>11       0.0618
  36 H8        2.2684    -1.0507    -3.4460  H       1  <O>11       0.0618
  37 H9        4.6048    -1.6274    -3.7154  H       1  <O>11       0.0624
  38 H10       9.0840    -4.6150    -2.5928  H       1  <O>11       0.0621
  39 H11      10.4774    -6.1578    -1.3394  H       1  <O>11       0.0618
  40 H12      12.7850    -5.5822    -0.8316  H       1  <O>11       0.0618
  41 H13      13.6902    -3.4588    -1.5856  H       1  <O>11       0.0618
  42 H14      12.3136    -1.9110    -2.8409  H       1  <O>11       0.0621
  43 H15      10.6886     0.2012    -2.7409  H       1  <O>11       0.0621
  44 H16      12.0720     1.7772    -3.9643  H       1  <O>11       0.0618
  45 H17      12.7834     1.2711    -6.2342  H       1  <O>11       0.0618
  46 H18      12.1033    -0.8173    -7.2714  H       1  <O>11       0.0618
  47 H19      10.7261    -2.4003    -6.0615  H       1  <O>11       0.0621
@<TRIPOS>BOND
     1     1     2    2
     2     2     3   am
     3     3     4    1
     4     4     5    1
     5     5     6   ar
     6     6     7   ar
     7     7     8   ar
     8     8     9    2
     9     8    10   ar
    10    10    11   ar
    11    11    12   ar
    12    12    13   ar
    13    13    14   ar
    14    14    15   ar
    15     5    15   ar
    16    10    15   ar
    17     2    16    1
    18    16    17    1
    19    17    18   ar
    20    18    19   ar
    21    19    20   ar
    22    20    21   ar
    23    21    22   ar
    24    17    22   ar
    25    16    23    1
    26    23    24   ar
    27    24    25   ar
    28    25    26   ar
    29    26    27   ar
    30    27    28   ar
    31    23    28   ar
    32     3    29    1
    33     4    30    1
    34     4    31    1
    35     7    32    1
    36    16    33    1
    37    11    34    1
    38    12    35    1
    39    13    36    1
    40    14    37    1
    41    18    38    1
    42    19    39    1
    43    20    40    1
    44    21    41    1
    45    22    42    1
    46    24    43    1
    47    25    44    1
    48    26    45    1
    49    27    46    1
    50    28    47    1
@<TRIPOS>MOLECULE
mol1_1_14
 47 50 0 0 0
SMALL
USER_CHARGES
****
VDW energy = -111.27
@<TRIPOS>ATOM
   1 O1        9.2535    -1.1831    -1.4851  O.2     1  <O>11      -0.2748
   2 C1        8.8535    -1.4341    -2.6122  C.2     1  <O>11       0.2251
   3 N1        7.6050    -1.0300    -3.0010  N.am    1  <O>11      -0.3089
   4 C2        7.1265    -1.3296    -4.3470  C.3     1  <O>11       0.0562
   5 C3        6.5112    -0.1210    -4.9314  C.ar    1  <O>11       0.0863
   6 N2        6.8171     1.0493    -4.3203  N.ar    1  <O>11      -0.1737
   7 N3        6.2106     2.1874    -4.7297  N.ar    1  <O>11      -0.2424
   8 C4        5.3212     2.1307    -5.7485  C.ar    1  <O>11       0.2725
   9 O2        4.6543     3.3301    -6.0611  O.2     1  <O>11      -0.2658
  10 C5        5.0446     0.9655    -6.4783  C.ar    1  <O>11       0.0496
  11 C6        4.1595     0.9126    -7.5801  C.ar    1  <O>11      -0.0487
  12 C7        3.9063    -0.2862    -8.2442  C.ar    1  <O>11      -0.0610
  13 C8        4.5230    -1.4576    -7.8176  C.ar    1  <O>11      -0.0611
  14 C9        5.3942    -1.4264    -6.7268  C.ar    1  <O>11      -0.0520
  15 C10       5.6700    -0.2185    -6.0491  C.ar    1  <O>11       0.0118
  16 C11       9.7260    -2.1810    -3.5640  C.3     1  <O>11       0.0855
  17 C12      10.5820    -3.1324    -2.8090  C.ar    1  <O>11      -0.0312
  18 C13      10.0620    -4.3657    -2.3772  C.ar    1  <O>11      -0.0575
  19 C14      10.8655    -5.2557    -1.6565  C.ar    1  <O>11      -0.0615
  20 C15      12.1923    -4.9267    -1.3645  C.ar    1  <O>11      -0.0617
  21 C16      12.7106    -3.7031    -1.7998  C.ar    1  <O>11      -0.0615
  22 C17      11.9185    -2.8089    -2.5204  C.ar    1  <O>11      -0.0575
  23 C18      10.5854    -1.2224    -4.3054  C.ar    1  <O>11      -0.0312
  24 C19      10.9854    -0.0161    -3.7051  C.ar    1  <O>11      -0.0575
  25 C20      11.7847     0.8915    -4.4093  C.ar    1  <O>11      -0.0615
  26 C21      12.1948     0.6020    -5.7137  C.ar    1  <O>11      -0.0617
  27 C22      11.8015    -0.6014    -6.3084  C.ar    1  <O>11      -0.0615
  28 C23      11.0057    -1.5133    -5.6142  C.ar    1  <O>11      -0.0575
  29 H1        7.0080    -0.5198    -2.3499  H       1  <O>11       0.1491
  30 H2        7.9636    -1.6478    -4.9683  H       1  <O>11       0.0528
  31 H3        6.3849    -2.1273    -4.3009  H       1  <O>11       0.0528
  32 H4        6.4201     3.0681    -4.2813  H       1  <O>11       0.1921
  33 H5        9.1048    -2.7334    -4.2700  H       1  <O>11       0.0492
  34 H6        3.6930     1.7766    -7.8978  H       1  <O>11       0.0625
  35 H7        3.2627    -0.3046    -9.0508  H       1  <O>11       0.0618
  36 H8        4.3370    -2.3475    -8.3060  H       1  <O>11       0.0618
  37 H9        5.8437    -2.3000    -6.4109  H       1  <O>11       0.0624
  38 H10       9.0840    -4.6150    -2.5928  H       1  <O>11       0.0621
  39 H11      10.4774    -6.1578    -1.3394  H       1  <O>11       0.0618
  40 H12      12.7850    -5.5822    -0.8316  H       1  <O>11       0.0618
  41 H13      13.6902    -3.4588    -1.5856  H       1  <O>11       0.0618
  42 H14      12.3136    -1.9110    -2.8409  H       1  <O>11       0.0621
  43 H15      10.6886     0.2012    -2.7409  H       1  <O>11       0.0621
  44 H16      12.0720     1.7772    -3.9643  H       1  <O>11       0.0618
  45 H17      12.7834     1.2711    -6.2342  H       1  <O>11       0.0618
  46 H18      12.1033    -0.8173    -7.2714  H       1  <O>11       0.0618
  47 H19      10.7261    -2.4003    -6.0615  H       1  <O>11       0.0621
@<TRIPOS>BOND
     1     1     2    2
     2     2     3   am
     3     3     4    1
     4     4     5    1
     5     5     6   ar
     6     6     7   ar
     7     7     8   ar
     8     8     9    2
     9     8    10   ar
    10    10    11   ar
    11    11    12   ar
    12    12    13   ar
    13    13    14   ar
    14    14    15   ar
    15     5    15   ar
    16    10    15   ar
    17     2    16    1
    18    16    17    1
    19    17    18   ar
    20    18    19   ar
    21    19    20   ar
    22    20    21   ar
    23    21    22   ar
    24    17    22   ar
    25    16    23    1
    26    23    24   ar
    27    24    25   ar
    28    25    26   ar
    29    26    27   ar
    30    27    28   ar
    31    23    28   ar
    32     3    29    1
    33     4    30    1
    34     4    31    1
    35     7    32    1
    36    16    33    1
    37    11    34    1
    38    12    35    1
    39    13    36    1
    40    14    37    1
    41    18    38    1
    42    19    39    1
    43    20    40    1
    44    21    41    1
    45    22    42    1
    46    24    43    1
    47    25    44    1
    48    26    45    1
    49    27    46    1
    50    28    47    1
@<TRIPOS>MOLECULE
mol1_1_15
 47 50 0 0 0
SMALL
USER_CHARGES
****
VDW energy = -105.21
@<TRIPOS>ATOM
   1 O1        9.2535    -1.1831    -1.4851  O.2     1  <O>11      -0.2748
   2 C1        8.8535    -1.4341    -2.6122  C.2     1  <O>11       0.2251
   3 N1        7.6050    -1.0300    -3.0010  N.am    1  <O>11      -0.3089
   4 C2        6.7510    -0.2990    -2.0700  C.3     1  <O>11       0.0562
   5 C3        7.4212     0.9535    -1.6664  C.ar    1  <O>11       0.0863
   6 N2        8.2125     0.8705    -0.5693  N.ar    1  <O>11      -0.1737
   7 N3        8.7768     1.9961    -0.0742  N.ar    1  <O>11      -0.2424
   8 C4        8.5463     3.1769    -0.6946  C.ar    1  <O>11       0.2725
   9 O2        9.0817     4.3215    -0.0747  O.2     1  <O>11      -0.2658
  10 C5        7.8189     3.3024    -1.8870  C.ar    1  <O>11       0.0496
  11 C6        7.6232     4.5251    -2.5702  C.ar    1  <O>11      -0.0487
  12 C7        6.8635     4.5852    -3.7370  C.ar    1  <O>11      -0.0610
  13 C8        6.2761     3.4295    -4.2409  C.ar    1  <O>11      -0.0611
  14 C9        6.4519     2.2143    -3.5759  C.ar    1  <O>11      -0.0520
  15 C10       7.2272     2.1338    -2.3982  C.ar    1  <O>11       0.0118
  16 C11       9.7260    -2.1810    -3.5640  C.3     1  <O>11       0.0855
  17 C12       8.9027    -3.1464    -4.3373  C.ar    1  <O>11      -0.0312
  18 C13       7.7507    -3.7147    -3.7647  C.ar    1  <O>11      -0.0575
  19 C14       6.9828    -4.6323    -4.4895  C.ar    1  <O>11      -0.0615
  20 C15       7.3531    -4.9871    -5.7898  C.ar    1  <O>11      -0.0617
  21 C16       8.4949    -4.4168    -6.3610  C.ar    1  <O>11      -0.0615
  22 C17       9.2671    -3.4997    -5.6475  C.ar    1  <O>11      -0.0575
  23 C18      10.7707    -2.9166    -2.8060  C.ar    1  <O>11      -0.0312
  24 C19      11.5719    -2.2450    -1.8665  C.ar    1  <O>11      -0.0575
  25 C20      12.5640    -2.9367    -1.1624  C.ar    1  <O>11      -0.0615
  26 C21      12.7616    -4.3022    -1.3853  C.ar    1  <O>11      -0.0617
  27 C22      11.9598    -4.9714    -2.3159  C.ar    1  <O>11      -0.0615
  28 C23      10.9675    -4.2910    -3.0221  C.ar    1  <O>11      -0.0575
  29 H1        7.2710    -1.2390    -3.9420  H       1  <O>11       0.1491
  30 H2        5.8029    -0.0643    -2.5536  H       1  <O>11       0.0528
  31 H3        6.5663    -0.9115    -1.1873  H       1  <O>11       0.0528
  32 H4        9.3635     1.9551     0.7472  H       1  <O>11       0.1921
  33 H5       10.2013    -1.4785    -4.2496  H       1  <O>11       0.0492
  34 H6        8.0503     5.3879    -2.1983  H       1  <O>11       0.0625
  35 H7        6.7371     5.4851    -4.2262  H       1  <O>11       0.0618
  36 H8        5.7117     3.4701    -5.1040  H       1  <O>11       0.0618
  37 H9        6.0082     1.3614    -3.9511  H       1  <O>11       0.0624
  38 H10       7.4709    -3.4538    -2.8062  H       1  <O>11       0.0621
  39 H11       6.1403    -5.0484    -4.0628  H       1  <O>11       0.0618
  40 H12       6.7878    -5.6650    -6.3245  H       1  <O>11       0.0618
  41 H13       8.7696    -4.6771    -7.3211  H       1  <O>11       0.0618
  42 H14      10.1049    -3.0814    -6.0814  H       1  <O>11       0.0621
  43 H15      11.4279    -1.2375    -1.6953  H       1  <O>11       0.0621
  44 H16      13.1514    -2.4370    -0.4766  H       1  <O>11       0.0618
  45 H17      13.4935    -4.8130    -0.8671  H       1  <O>11       0.0618
  46 H18      12.1040    -5.9797    -2.4819  H       1  <O>11       0.0618
  47 H19      10.3786    -4.7965    -3.7023  H       1  <O>11       0.0621
@<TRIPOS>BOND
     1     1     2    2
     2     2     3   am
     3     3     4    1
     4     4     5    1
     5     5     6   ar
     6     6     7   ar
     7     7     8   ar
     8     8     9    2
     9     8    10   ar
    10    10    11   ar
    11    11    12   ar
    12    12    13   ar
    13    13    14   ar
    14    14    15   ar
    15     5    15   ar
    16    10    15   ar
    17     2    16    1
    18    16    17    1
    19    17    18   ar
    20    18    19   ar
    21    19    20   ar
    22    20    21   ar
    23    21    22   ar
    24    17    22   ar
    25    16    23    1
    26    23    24   ar
    27    24    25   ar
    28    25    26   ar
    29    26    27   ar
    30    27    28   ar
    31    23    28   ar
    32     3    29    1
    33     4    30    1
    34     4    31    1
    35     7    32    1
    36    16    33    1
    37    11    34    1
    38    12    35    1
    39    13    36    1
    40    14    37    1
    41    18    38    1
    42    19    39    1
    43    20    40    1
    44    21    41    1
    45    22    42    1
    46    24    43    1
    47    25    44    1
    48    26    45    1
    49    27    46    1
    50    28    47    1
@<TRIPOS>MOLECULE
mol1_1_16
 47 50 0 0 0
SMALL
USER_CHARGES
****
VDW energy = -103.58
@<TRIPOS>ATOM
   1 O1        9.2535    -1.1831    -1.4851  O.2     1  <O>11      -0.2748
   2 C1        8.8535    -1.4341    -2.6122  C.2     1  <O>11       0.2251
   3 N1        7.6050    -1.0300    -3.0010  N.am    1  <O>11      -0.3089
   4 C2        6.7510    -0.2990    -2.0700  C.3     1  <O>11       0.0562
   5 C3        7.4212     0.9535    -1.6664  C.ar    1  <O>11       0.0863
   6 N2        8.4466     1.3535    -2.4571  N.ar    1  <O>11      -0.1737
   7 N3        9.1785     2.4325    -2.0956  N.ar    1  <O>11      -0.2424
   8 C4        8.8606     3.0936    -0.9580  C.ar    1  <O>11       0.2725
   9 O2        9.7190     4.1460    -0.5882  O.2     1  <O>11      -0.2658
  10 C5        7.7509     2.7820    -0.1591  C.ar    1  <O>11       0.0496
  11 C6        7.3809     3.5048     0.9989  C.ar    1  <O>11      -0.0487
  12 C7        6.2814     3.1236     1.7657  C.ar    1  <O>11      -0.0610
  13 C8        5.5345     2.0090     1.3989  C.ar    1  <O>11      -0.0611
  14 C9        5.8891     1.2785     0.2630  C.ar    1  <O>11      -0.0520
  15 C10       6.9939     1.6570    -0.5312  C.ar    1  <O>11       0.0118
  16 C11       9.7260    -2.1810    -3.5640  C.3     1  <O>11       0.0855
  17 C12       8.9027    -3.1464    -4.3373  C.ar    1  <O>11      -0.0312
  18 C13       7.7507    -3.7147    -3.7647  C.ar    1  <O>11      -0.0575
  19 C14       6.9828    -4.6323    -4.4895  C.ar    1  <O>11      -0.0615
  20 C15       7.3531    -4.9871    -5.7898  C.ar    1  <O>11      -0.0617
  21 C16       8.4949    -4.4168    -6.3610  C.ar    1  <O>11      -0.0615
  22 C17       9.2671    -3.4997    -5.6475  C.ar    1  <O>11      -0.0575
  23 C18      10.7707    -2.9166    -2.8060  C.ar    1  <O>11      -0.0312
  24 C19      11.5719    -2.2450    -1.8665  C.ar    1  <O>11      -0.0575
  25 C20      12.5640    -2.9367    -1.1624  C.ar    1  <O>11      -0.0615
  26 C21      12.7616    -4.3022    -1.3853  C.ar    1  <O>11      -0.0617
  27 C22      11.9598    -4.9714    -2.3159  C.ar    1  <O>11      -0.0615
  28 C23      10.9675    -4.2910    -3.0221  C.ar    1  <O>11      -0.0575
  29 H1        7.2710    -1.2390    -3.9420  H       1  <O>11       0.1491
  30 H2        5.8029    -0.0643    -2.5536  H       1  <O>11       0.0528
  31 H3        6.5663    -0.9115    -1.1873  H       1  <O>11       0.0528
  32 H4        9.9515     2.7410    -2.6683  H       1  <O>11       0.1921
  33 H5       10.2013    -1.4785    -4.2496  H       1  <O>11       0.0492
  34 H6        7.9347     4.3287     1.2809  H       1  <O>11       0.0625
  35 H7        6.0220     3.6670     2.6038  H       1  <O>11       0.0618
  36 H8        4.7205     1.7228     1.9649  H       1  <O>11       0.0618
  37 H9        5.3350     0.4487    -0.0005  H       1  <O>11       0.0624
  38 H10       7.4709    -3.4538    -2.8062  H       1  <O>11       0.0621
  39 H11       6.1403    -5.0484    -4.0628  H       1  <O>11       0.0618
  40 H12       6.7878    -5.6650    -6.3245  H       1  <O>11       0.0618
  41 H13       8.7696    -4.6771    -7.3211  H       1  <O>11       0.0618
  42 H14      10.1049    -3.0814    -6.0814  H       1  <O>11       0.0621
  43 H15      11.4279    -1.2375    -1.6953  H       1  <O>11       0.0621
  44 H16      13.1514    -2.4370    -0.4766  H       1  <O>11       0.0618
  45 H17      13.4935    -4.8130    -0.8671  H       1  <O>11       0.0618
  46 H18      12.1040    -5.9797    -2.4819  H       1  <O>11       0.0618
  47 H19      10.3786    -4.7965    -3.7023  H       1  <O>11       0.0621
@<TRIPOS>BOND
     1     1     2    2
     2     2     3   am
     3     3     4    1
     4     4     5    1
     5     5     6   ar
     6     6     7   ar
     7     7     8   ar
     8     8     9    2
     9     8    10   ar
    10    10    11   ar
    11    11    12   ar
    12    12    13   ar
    13    13    14   ar
    14    14    15   ar
    15     5    15   ar
    16    10    15   ar
    17     2    16    1
    18    16    17    1
    19    17    18   ar
    20    18    19   ar
    21    19    20   ar
    22    20    21   ar
    23    21    22   ar
    24    17    22   ar
    25    16    23    1
    26    23    24   ar
    27    24    25   ar
    28    25    26   ar
    29    26    27   ar
    30    27    28   ar
    31    23    28   ar
    32     3    29    1
    33     4    30    1
    34     4    31    1
    35     7    32    1
    36    16    33    1
    37    11    34    1
    38    12    35    1
    39    13    36    1
    40    14    37    1
    41    18    38    1
    42    19    39    1
    43    20    40    1
    44    21    41    1
    45    22    42    1
    46    24    43    1
    47    25    44    1
    48    26    45    1
    49    27    46    1
    50    28    47    1
@<TRIPOS>MOLECULE
mol1_1_17
 47 50 0 0 0
SMALL
USER_CHARGES
****
VDW energy = -97.67
@<TRIPOS>ATOM
   1 O1        9.2535    -1.1831    -1.4851  O.2     1  <O>11      -0.2748
   2 C1        8.8535    -1.4341    -2.6122  C.2     1  <O>11       0.2251
   3 N1        7.6050    -1.0300    -3.0010  N.am    1  <O>11      -0.3089
   4 C2        6.7510    -0.2990    -2.0700  C.3     1  <O>11       0.0562
   5 C3        5.3884    -0.8673    -2.1014  C.ar    1  <O>11       0.0863
   6 N2        5.1490    -1.8713    -1.2231  N.ar    1  <O>11      -0.1737
   7 N3        3.9595    -2.5148    -1.2624  N.ar    1  <O>11      -0.2424
   8 C4        3.0324    -2.1316    -2.1712  C.ar    1  <O>11       0.2725
   9 O2        1.8564    -2.9030    -2.2250  O.2     1  <O>11      -0.2658
  10 C5        3.1912    -1.0369    -3.0332  C.ar    1  <O>11       0.0496
  11 C6        2.2034    -0.5968    -3.9447  C.ar    1  <O>11      -0.0487
  12 C7        2.4371     0.4820    -4.7954  C.ar    1  <O>11      -0.0610
  13 C8        3.6633     1.1377    -4.7611  C.ar    1  <O>11      -0.0611
  14 C9        4.6536     0.7128    -3.8731  C.ar    1  <O>11      -0.0520
  15 C10       4.4296    -0.3720    -2.9969  C.ar    1  <O>11       0.0118
  16 C11       9.7260    -2.1810    -3.5640  C.3     1  <O>11       0.0855
  17 C12      10.5820    -3.1324    -2.8090  C.ar    1  <O>11      -0.0312
  18 C13      10.9800    -2.8376    -1.4927  C.ar    1  <O>11      -0.0575
  19 C14      11.7954    -3.7287    -0.7868  C.ar    1  <O>11      -0.0615
  20 C15      12.2165    -4.9204    -1.3839  C.ar    1  <O>11      -0.0617
  21 C16      11.8151    -5.2158    -2.6905  C.ar    1  <O>11      -0.0615
  22 C17      11.0009    -4.3348    -3.4028  C.ar    1  <O>11      -0.0575
  23 C18      10.5854    -1.2224    -4.3054  C.ar    1  <O>11      -0.0312
  24 C19      11.4816    -0.3898    -3.6132  C.ar    1  <O>11      -0.0575
  25 C20      12.2814     0.5215    -4.3120  C.ar    1  <O>11      -0.0615
  26 C21      12.1979     0.6063    -5.7045  C.ar    1  <O>11      -0.0617
  27 C22      11.3103    -0.2269    -6.3935  C.ar    1  <O>11      -0.0615
  28 C23      10.5095    -1.1394    -5.7060  C.ar    1  <O>11      -0.0575
  29 H1        7.2710    -1.2390    -3.9420  H       1  <O>11       0.1491
  30 H2        7.1565    -0.3829    -1.0618  H       1  <O>11       0.0528
  31 H3        6.7120     0.7514    -2.3593  H       1  <O>11       0.0528
  32 H4        3.7658    -3.2707    -0.6207  H       1  <O>11       0.1921
  33 H5        9.1048    -2.7334    -4.2700  H       1  <O>11       0.0492
  34 H6        1.2938    -1.0830    -3.9805  H       1  <O>11       0.0625
  35 H7        1.7021     0.7937    -5.4492  H       1  <O>11       0.0618
  36 H8        3.8407     1.9362    -5.3903  H       1  <O>11       0.0618
  37 H9        5.5637     1.1992    -3.8568  H       1  <O>11       0.0624
  38 H10      10.6693    -1.9608    -1.0458  H       1  <O>11       0.0621
  39 H11      12.0870    -3.5055     0.1776  H       1  <O>11       0.0618
  40 H12      12.8192    -5.5774    -0.8644  H       1  <O>11       0.0618
  41 H13      12.1245    -6.0954    -3.1328  H       1  <O>11       0.0618
  42 H14      10.7067    -4.5661    -4.3646  H       1  <O>11       0.0621
  43 H15      11.5500    -0.4508    -2.5853  H       1  <O>11       0.0621
  44 H16      12.9348     1.1326    -3.7975  H       1  <O>11       0.0618
  45 H17      12.7867     1.2786    -6.2207  H       1  <O>11       0.0618
  46 H18      11.2471    -0.1660    -7.4217  H       1  <O>11       0.0618
  47 H19       9.8621    -1.7526    -6.2255  H       1  <O>11       0.0621
@<TRIPOS>BOND
     1     1     2    2
     2     2     3   am
     3     3     4    1
     4     4     5    1
     5     5     6   ar
     6     6     7   ar
     7     7     8   ar
     8     8     9    2
     9     8    10   ar
    10    10    11   ar
    11    11    12   ar
    12    12    13   ar
    13    13    14   ar
    14    14    15   ar
    15     5    15   ar
    16    10    15   ar
    17     2    16    1
    18    16    17    1
    19    17    18   ar
    20    18    19   ar
    21    19    20   ar
    22    20    21   ar
    23    21    22   ar
    24    17    22   ar
    25    16    23    1
    26    23    24   ar
    27    24    25   ar
    28    25    26   ar
    29    26    27   ar
    30    27    28   ar
    31    23    28   ar
    32     3    29    1
    33     4    30    1
    34     4    31    1
    35     7    32    1
    36    16    33    1
    37    11    34    1
    38    12    35    1
    39    13    36    1
    40    14    37    1
    41    18    38    1
    42    19    39    1
    43    20    40    1
    44    21    41    1
    45    22    42    1
    46    24    43    1
    47    25    44    1
    48    26    45    1
    49    27    46    1
    50    28    47    1
@<TRIPOS>MOLECULE
mol1_1_18
 47 50 0 0 0
SMALL
USER_CHARGES
****
VDW energy = -96.04
@<TRIPOS>ATOM
   1 O1        9.2535    -1.1831    -1.4851  O.2     1  <O>11      -0.2748
   2 C1        8.8535    -1.4341    -2.6122  C.2     1  <O>11       0.2251
   3 N1        7.6050    -1.0300    -3.0010  N.am    1  <O>11      -0.3089
   4 C2        6.7510    -0.2990    -2.0700  C.3     1  <O>11       0.0562
   5 C3        5.3884    -0.8673    -2.1014  C.ar    1  <O>11       0.0863
   6 N2        5.1490    -1.8713    -1.2231  N.ar    1  <O>11      -0.1737
   7 N3        3.9595    -2.5148    -1.2624  N.ar    1  <O>11      -0.2424
   8 C4        3.0324    -2.1316    -2.1712  C.ar    1  <O>11       0.2725
   9 O2        1.8564    -2.9030    -2.2250  O.2     1  <O>11      -0.2658
  10 C5        3.1912    -1.0369    -3.0332  C.ar    1  <O>11       0.0496
  11 C6        2.2034    -0.5968    -3.9447  C.ar    1  <O>11      -0.0487
  12 C7        2.4371     0.4820    -4.7954  C.ar    1  <O>11      -0.0610
  13 C8        3.6633     1.1377    -4.7611  C.ar    1  <O>11      -0.0611
  14 C9        4.6536     0.7128    -3.8731  C.ar    1  <O>11      -0.0520
  15 C10       4.4296    -0.3720    -2.9969  C.ar    1  <O>11       0.0118
  16 C11       9.7260    -2.1810    -3.5640  C.3     1  <O>11       0.0855
  17 C12      10.5820    -3.1324    -2.8090  C.ar    1  <O>11      -0.0312
  18 C13      10.9800    -2.8376    -1.4927  C.ar    1  <O>11      -0.0575
  19 C14      11.7954    -3.7287    -0.7868  C.ar    1  <O>11      -0.0615
  20 C15      12.2165    -4.9204    -1.3839  C.ar    1  <O>11      -0.0617
  21 C16      11.8151    -5.2158    -2.6905  C.ar    1  <O>11      -0.0615
  22 C17      11.0009    -4.3348    -3.4028  C.ar    1  <O>11      -0.0575
  23 C18      10.5854    -1.2224    -4.3054  C.ar    1  <O>11      -0.0312
  24 C19      10.9854    -0.0161    -3.7051  C.ar    1  <O>11      -0.0575
  25 C20      11.7847     0.8915    -4.4093  C.ar    1  <O>11      -0.0615
  26 C21      12.1948     0.6020    -5.7137  C.ar    1  <O>11      -0.0617
  27 C22      11.8015    -0.6014    -6.3084  C.ar    1  <O>11      -0.0615
  28 C23      11.0057    -1.5133    -5.6142  C.ar    1  <O>11      -0.0575
  29 H1        7.2710    -1.2390    -3.9420  H       1  <O>11       0.1491
  30 H2        7.1565    -0.3829    -1.0618  H       1  <O>11       0.0528
  31 H3        6.7120     0.7514    -2.3593  H       1  <O>11       0.0528
  32 H4        3.7658    -3.2707    -0.6207  H       1  <O>11       0.1921
  33 H5        9.1048    -2.7334    -4.2700  H       1  <O>11       0.0492
  34 H6        1.2938    -1.0830    -3.9805  H       1  <O>11       0.0625
  35 H7        1.7021     0.7937    -5.4492  H       1  <O>11       0.0618
  36 H8        3.8407     1.9362    -5.3903  H       1  <O>11       0.0618
  37 H9        5.5637     1.1992    -3.8568  H       1  <O>11       0.0624
  38 H10      10.6693    -1.9608    -1.0458  H       1  <O>11       0.0621
  39 H11      12.0870    -3.5055     0.1776  H       1  <O>11       0.0618
  40 H12      12.8192    -5.5774    -0.8644  H       1  <O>11       0.0618
  41 H13      12.1245    -6.0954    -3.1328  H       1  <O>11       0.0618
  42 H14      10.7067    -4.5661    -4.3646  H       1  <O>11       0.0621
  43 H15      10.6886     0.2012    -2.7409  H       1  <O>11       0.0621
  44 H16      12.0720     1.7772    -3.9643  H       1  <O>11       0.0618
  45 H17      12.7834     1.2711    -6.2342  H       1  <O>11       0.0618
  46 H18      12.1033    -0.8173    -7.2714  H       1  <O>11       0.0618
  47 H19      10.7261    -2.4003    -6.0615  H       1  <O>11       0.0621
@<TRIPOS>BOND
     1     1     2    2
     2     2     3   am
     3     3     4    1
     4     4     5    1
     5     5     6   ar
     6     6     7   ar
     7     7     8   ar
     8     8     9    2
     9     8    10   ar
    10    10    11   ar
    11    11    12   ar
    12    12    13   ar
    13    13    14   ar
    14    14    15   ar
    15     5    15   ar
    16    10    15   ar
    17     2    16    1
    18    16    17    1
    19    17    18   ar
    20    18    19   ar
    21    19    20   ar
    22    20    21   ar
    23    21    22   ar
    24    17    22   ar
    25    16    23    1
    26    23    24   ar
    27    24    25   ar
    28    25    26   ar
    29    26    27   ar
    30    27    28   ar
    31    23    28   ar
    32     3    29    1
    33     4    30    1
    34     4    31    1
    35     7    32    1
    36    16    33    1
    37    11    34    1
    38    12    35    1
    39    13    36    1
    40    14    37    1
    41    18    38    1
    42    19    39    1
    43    20    40    1
    44    21    41    1
    45    22    42    1
    46    24    43    1
    47    25    44    1
    48    26    45    1
    49    27    46    1
    50    28    47    1
@<TRIPOS>MOLECULE
mol1_1_19
 47 50 0 0 0
SMALL
USER_CHARGES
****
VDW energy = -95.49
@<TRIPOS>ATOM
   1 O1        9.2535    -1.1831    -1.4851  O.2     1  <O>11      -0.2748
   2 C1        8.8535    -1.4341    -2.6122  C.2     1  <O>11       0.2251
   3 N1        7.6050    -1.0300    -3.0010  N.am    1  <O>11      -0.3089
   4 C2        6.7510    -0.2990    -2.0700  C.3     1  <O>11       0.0562
   5 C3        7.4212     0.9535    -1.6664  C.ar    1  <O>11       0.0863
   6 N2        7.1639     2.0349    -2.4418  N.ar    1  <O>11      -0.1737
   7 N3        7.8214     3.1926    -2.2012  N.ar    1  <O>11      -0.2424
   8 C4        8.7121     3.2457    -1.1833  C.ar    1  <O>11       0.2725
   9 O2        9.4321     4.4473    -1.0472  O.2     1  <O>11      -0.2658
  10 C5        8.9408     2.1880    -0.2912  C.ar    1  <O>11       0.0496
  11 C6        9.8277     2.2570     0.8082  C.ar    1  <O>11      -0.0487
  12 C7       10.0312     1.1577     1.6402  C.ar    1  <O>11      -0.0610
  13 C8        9.3620    -0.0352     1.3873  C.ar    1  <O>11      -0.0611
  14 C9        8.4881    -0.1247     0.3019  C.ar    1  <O>11      -0.0520
  15 C10       8.2624     0.9828    -0.5449  C.ar    1  <O>11       0.0118
  16 C11       9.7260    -2.1810    -3.5640  C.3     1  <O>11       0.0855
  17 C12      10.5820    -3.1324    -2.8090  C.ar    1  <O>11      -0.0312
  18 C13      10.0620    -4.3657    -2.3772  C.ar    1  <O>11      -0.0575
  19 C14      10.8655    -5.2557    -1.6565  C.ar    1  <O>11      -0.0615
  20 C15      12.1923    -4.9267    -1.3645  C.ar    1  <O>11      -0.0617
  21 C16      12.7106    -3.7031    -1.7998  C.ar    1  <O>11      -0.0615
  22 C17      11.9185    -2.8089    -2.5204  C.ar    1  <O>11      -0.0575
  23 C18      10.5854    -1.2224    -4.3054  C.ar    1  <O>11      -0.0312
  24 C19      10.9854    -0.0161    -3.7051  C.ar    1  <O>11      -0.0575
  25 C20      11.7847     0.8915    -4.4093  C.ar    1  <O>11      -0.0615
  26 C21      12.1948     0.6020    -5.7137  C.ar    1  <O>11      -0.0617
  27 C22      11.8015    -0.6014    -6.3084  C.ar    1  <O>11      -0.0615
  28 C23      11.0057    -1.5133    -5.6142  C.ar    1  <O>11      -0.0575
  29 H1        7.2710    -1.2390    -3.9420  H       1  <O>11       0.1491
  30 H2        5.8029    -0.0643    -2.5536  H       1  <O>11       0.0528
  31 H3        6.5663    -0.9115    -1.1873  H       1  <O>11       0.0528
  32 H4        7.6486     4.0071    -2.7734  H       1  <O>11       0.1921
  33 H5        9.1048    -2.7334    -4.2700  H       1  <O>11       0.0492
  34 H6       10.3329     3.1368     0.9977  H       1  <O>11       0.0625
  35 H7       10.6770     1.2284     2.4421  H       1  <O>11       0.0618
  36 H8        9.5111    -0.8519     2.0003  H       1  <O>11       0.0618
  37 H9        7.9994    -1.0144     0.1156  H       1  <O>11       0.0624
  38 H10       9.0840    -4.6150    -2.5928  H       1  <O>11       0.0621
  39 H11      10.4774    -6.1578    -1.3394  H       1  <O>11       0.0618
  40 H12      12.7850    -5.5822    -0.8316  H       1  <O>11       0.0618
  41 H13      13.6902    -3.4588    -1.5856  H       1  <O>11       0.0618
  42 H14      12.3136    -1.9110    -2.8409  H       1  <O>11       0.0621
  43 H15      10.6886     0.2012    -2.7409  H       1  <O>11       0.0621
  44 H16      12.0720     1.7772    -3.9643  H       1  <O>11       0.0618
  45 H17      12.7834     1.2711    -6.2342  H       1  <O>11       0.0618
  46 H18      12.1033    -0.8173    -7.2714  H       1  <O>11       0.0618
  47 H19      10.7261    -2.4003    -6.0615  H       1  <O>11       0.0621
@<TRIPOS>BOND
     1     1     2    2
     2     2     3   am
     3     3     4    1
     4     4     5    1
     5     5     6   ar
     6     6     7   ar
     7     7     8   ar
     8     8     9    2
     9     8    10   ar
    10    10    11   ar
    11    11    12   ar
    12    12    13   ar
    13    13    14   ar
    14    14    15   ar
    15     5    15   ar
    16    10    15   ar
    17     2    16    1
    18    16    17    1
    19    17    18   ar
    20    18    19   ar
    21    19    20   ar
    22    20    21   ar
    23    21    22   ar
    24    17    22   ar
    25    16    23    1
    26    23    24   ar
    27    24    25   ar
    28    25    26   ar
    29    26    27   ar
    30    27    28   ar
    31    23    28   ar
    32     3    29    1
    33     4    30    1
    34     4    31    1
    35     7    32    1
    36    16    33    1
    37    11    34    1
    38    12    35    1
    39    13    36    1
    40    14    37    1
    41    18    38    1
    42    19    39    1
    43    20    40    1
    44    21    41    1
    45    22    42    1
    46    24    43    1
    47    25    44    1
    48    26    45    1
    49    27    46    1
    50    28    47    1
@<TRIPOS>MOLECULE
mol1_1_20
 47 50 0 0 0
SMALL
USER_CHARGES
****
VDW energy = -94.24
@<TRIPOS>ATOM
   1 O1        9.2535    -1.1831    -1.4851  O.2     1  <O>11      -0.2748
   2 C1        8.8535    -1.4341    -2.6122  C.2     1  <O>11       0.2251
   3 N1        7.6050    -1.0300    -3.0010  N.am    1  <O>11      -0.3089
   4 C2        6.7510    -0.2990    -2.0700  C.3     1  <O>11       0.0562
   5 C3        5.3884    -0.8673    -2.1014  C.ar    1  <O>11       0.0863
   6 N2        5.2778    -2.1010    -2.6515  N.ar    1  <O>11      -0.1737
   7 N3        4.0497    -2.6452    -2.8134  N.ar    1  <O>11      -0.2424
   8 C4        2.9614    -1.9483    -2.4105  C.ar    1  <O>11       0.2725
   9 O2        1.7104    -2.5269    -2.6951  O.2     1  <O>11      -0.2658
  10 C5        3.0272    -0.7147    -1.7465  C.ar    1  <O>11       0.0496
  11 C6        1.8968    -0.0094    -1.2724  C.ar    1  <O>11      -0.0487
  12 C7        2.0302     1.2282    -0.6458  C.ar    1  <O>11      -0.0610
  13 C8        3.2920     1.7916    -0.4875  C.ar    1  <O>11      -0.0611
  14 C9        4.4192     1.1135    -0.9559  C.ar    1  <O>11      -0.0520
  15 C10       4.3028    -0.1461    -1.5839  C.ar    1  <O>11       0.0118
  16 C11       9.7260    -2.1810    -3.5640  C.3     1  <O>11       0.0855
  17 C12      10.5820    -3.1324    -2.8090  C.ar    1  <O>11      -0.0312
  18 C13      10.9800    -2.8376    -1.4927  C.ar    1  <O>11      -0.0575
  19 C14      11.7954    -3.7287    -0.7868  C.ar    1  <O>11      -0.0615
  20 C15      12.2165    -4.9204    -1.3839  C.ar    1  <O>11      -0.0617
  21 C16      11.8151    -5.2158    -2.6905  C.ar    1  <O>11      -0.0615
  22 C17      11.0009    -4.3348    -3.4028  C.ar    1  <O>11      -0.0575
  23 C18      10.5854    -1.2224    -4.3054  C.ar    1  <O>11      -0.0312
  24 C19      11.0069    -1.5123    -5.6146  C.ar    1  <O>11      -0.0575
  25 C20      11.8267    -0.6140    -6.3071  C.ar    1  <O>11      -0.0615
  26 C21      12.2280     0.5806    -5.7028  C.ar    1  <O>11      -0.0617
  27 C22      11.8031     0.8714    -4.4022  C.ar    1  <O>11      -0.0615
  28 C23      10.9849    -0.0171    -3.7039  C.ar    1  <O>11      -0.0575
  29 H1        7.2710    -1.2390    -3.9420  H       1  <O>11       0.1491
  30 H2        7.1565    -0.3829    -1.0618  H       1  <O>11       0.0528
  31 H3        6.7120     0.7514    -2.3593  H       1  <O>11       0.0528
  32 H4        3.9468    -3.5605    -3.2285  H       1  <O>11       0.1921
  33 H5        9.1048    -2.7334    -4.2700  H       1  <O>11       0.0492
  34 H6        0.9568    -0.4182    -1.3927  H       1  <O>11       0.0625
  35 H7        1.1946     1.7255    -0.2998  H       1  <O>11       0.0618
  36 H8        3.3948     2.7085    -0.0252  H       1  <O>11       0.0618
  37 H9        5.3521     1.5396    -0.8414  H       1  <O>11       0.0624
  38 H10      10.6693    -1.9608    -1.0458  H       1  <O>11       0.0621
  39 H11      12.0870    -3.5055     0.1776  H       1  <O>11       0.0618
  40 H12      12.8192    -5.5774    -0.8644  H       1  <O>11       0.0618
  41 H13      12.1245    -6.0954    -3.1328  H       1  <O>11       0.0618
  42 H14      10.7067    -4.5661    -4.3646  H       1  <O>11       0.0621
  43 H15      10.7106    -2.3912    -6.0670  H       1  <O>11       0.0621
  44 H16      12.1358    -0.8343    -7.2667  H       1  <O>11       0.0618
  45 H17      12.8332     1.2433    -6.2123  H       1  <O>11       0.0618
  46 H18      12.0982     1.7531    -3.9541  H       1  <O>11       0.0618
  47 H19      10.6735     0.2107    -2.7467  H       1  <O>11       0.0621
@<TRIPOS>BOND
     1     1     2    2
     2     2     3   am
     3     3     4    1
     4     4     5    1
     5     5     6   ar
     6     6     7   ar
     7     7     8   ar
     8     8     9    2
     9     8    10   ar
    10    10    11   ar
    11    11    12   ar
    12    12    13   ar
    13    13    14   ar
    14    14    15   ar
    15     5    15   ar
    16    10    15   ar
    17     2    16    1
    18    16    17    1
    19    17    18   ar
    20    18    19   ar
    21    19    20   ar
    22    20    21   ar
    23    21    22   ar
    24    17    22   ar
    25    16    23    1
    26    23    24   ar
    27    24    25   ar
    28    25    26   ar
    29    26    27   ar
    30    27    28   ar
    31    23    28   ar
    32     3    29    1
    33     4    30    1
    34     4    31    1
    35     7    32    1
    36    16    33    1
    37    11    34    1
    38    12    35    1
    39    13    36    1
    40    14    37    1
    41    18    38    1
    42    19    39    1
    43    20    40    1
    44    21    41    1
    45    22    42    1
    46    24    43    1
    47    25    44    1
    48    26    45    1
    49    27    46    1
    50    28    47    1
@<TRIPOS>MOLECULE
mol1_1_21
 47 50 0 0 0
SMALL
USER_CHARGES
****
VDW energy = -92.67
@<TRIPOS>ATOM
   1 O1        9.2535    -1.1831    -1.4851  O.2     1  <O>11      -0.2748
   2 C1        8.8535    -1.4341    -2.6122  C.2     1  <O>11       0.2251
   3 N1        7.6050    -1.0300    -3.0010  N.am    1  <O>11      -0.3089
   4 C2        6.7510    -0.2990    -2.0700  C.3     1  <O>11       0.0562
   5 C3        5.3884    -0.8673    -2.1014  C.ar    1  <O>11       0.0863
   6 N2        5.1490    -1.8713    -1.2231  N.ar    1  <O>11      -0.1737
   7 N3        3.9595    -2.5148    -1.2624  N.ar    1  <O>11      -0.2424
   8 C4        3.0324    -2.1316    -2.1712  C.ar    1  <O>11       0.2725
   9 O2        1.8564    -2.9030    -2.2250  O.2     1  <O>11      -0.2658
  10 C5        3.1912    -1.0369    -3.0332  C.ar    1  <O>11       0.0496
  11 C6        2.2034    -0.5968    -3.9447  C.ar    1  <O>11      -0.0487
  12 C7        2.4371     0.4820    -4.7954  C.ar    1  <O>11      -0.0610
  13 C8        3.6633     1.1377    -4.7611  C.ar    1  <O>11      -0.0611
  14 C9        4.6536     0.7128    -3.8731  C.ar    1  <O>11      -0.0520
  15 C10       4.4296    -0.3720    -2.9969  C.ar    1  <O>11       0.0118
  16 C11       9.7260    -2.1810    -3.5640  C.3     1  <O>11       0.0855
  17 C12      10.5820    -3.1324    -2.8090  C.ar    1  <O>11      -0.0312
  18 C13      10.9800    -2.8376    -1.4927  C.ar    1  <O>11      -0.0575
  19 C14      11.7954    -3.7287    -0.7868  C.ar    1  <O>11      -0.0615
  20 C15      12.2165    -4.9204    -1.3839  C.ar    1  <O>11      -0.0617
  21 C16      11.8151    -5.2158    -2.6905  C.ar    1  <O>11      -0.0615
  22 C17      11.0009    -4.3348    -3.4028  C.ar    1  <O>11      -0.0575
  23 C18      10.5854    -1.2224    -4.3054  C.ar    1  <O>11      -0.0312
  24 C19      11.5001    -1.6855    -5.2668  C.ar    1  <O>11      -0.0575
  25 C20      12.3178    -0.7823    -5.9555  C.ar    1  <O>11      -0.0615
  26 C21      12.2267     0.5878    -5.6951  C.ar    1  <O>11      -0.0617
  27 C22      11.3117     1.0487    -4.7426  C.ar    1  <O>11      -0.0615
  28 C23      10.4915     0.1564    -4.0516  C.ar    1  <O>11      -0.0575
  29 H1        7.2710    -1.2390    -3.9420  H       1  <O>11       0.1491
  30 H2        7.1565    -0.3829    -1.0618  H       1  <O>11       0.0528
  31 H3        6.7120     0.7514    -2.3593  H       1  <O>11       0.0528
  32 H4        3.7658    -3.2707    -0.6207  H       1  <O>11       0.1921
  33 H5        9.1048    -2.7334    -4.2700  H       1  <O>11       0.0492
  34 H6        1.2938    -1.0830    -3.9805  H       1  <O>11       0.0625
  35 H7        1.7021     0.7937    -5.4492  H       1  <O>11       0.0618
  36 H8        3.8407     1.9362    -5.3903  H       1  <O>11       0.0618
  37 H9        5.5637     1.1992    -3.8568  H       1  <O>11       0.0624
  38 H10      10.6693    -1.9608    -1.0458  H       1  <O>11       0.0621
  39 H11      12.0870    -3.5055     0.1776  H       1  <O>11       0.0618
  40 H12      12.8192    -5.5774    -0.8644  H       1  <O>11       0.0618
  41 H13      12.1245    -6.0954    -3.1328  H       1  <O>11       0.0618
  42 H14      10.7067    -4.5661    -4.3646  H       1  <O>11       0.0621
  43 H15      11.5691    -2.6958    -5.4658  H       1  <O>11       0.0621
  44 H16      12.9901    -1.1290    -6.6576  H       1  <O>11       0.0618
  45 H17      12.8298     1.2545    -6.2017  H       1  <O>11       0.0618
  46 H18      11.2427     2.0600    -4.5488  H       1  <O>11       0.0618
  47 H19       9.8165     0.5086    -3.3549  H       1  <O>11       0.0621
@<TRIPOS>BOND
     1     1     2    2
     2     2     3   am
     3     3     4    1
     4     4     5    1
     5     5     6   ar
     6     6     7   ar
     7     7     8   ar
     8     8     9    2
     9     8    10   ar
    10    10    11   ar
    11    11    12   ar
    12    12    13   ar
    13    13    14   ar
    14    14    15   ar
    15     5    15   ar
    16    10    15   ar
    17     2    16    1
    18    16    17    1
    19    17    18   ar
    20    18    19   ar
    21    19    20   ar
    22    20    21   ar
    23    21    22   ar
    24    17    22   ar
    25    16    23    1
    26    23    24   ar
    27    24    25   ar
    28    25    26   ar
    29    26    27   ar
    30    27    28   ar
    31    23    28   ar
    32     3    29    1
    33     4    30    1
    34     4    31    1
    35     7    32    1
    36    16    33    1
    37    11    34    1
    38    12    35    1
    39    13    36    1
    40    14    37    1
    41    18    38    1
    42    19    39    1
    43    20    40    1
    44    21    41    1
    45    22    42    1
    46    24    43    1
    47    25    44    1
    48    26    45    1
    49    27    46    1
    50    28    47    1
@<TRIPOS>MOLECULE
mol1_1_22
 47 50 0 0 0
SMALL
USER_CHARGES
****
VDW energy = -92.62
@<TRIPOS>ATOM
   1 O1        9.2535    -1.1831    -1.4851  O.2     1  <O>11      -0.2748
   2 C1        8.8535    -1.4341    -2.6122  C.2     1  <O>11       0.2251
   3 N1        7.6050    -1.0300    -3.0010  N.am    1  <O>11      -0.3089
   4 C2        6.7510    -0.2990    -2.0700  C.3     1  <O>11       0.0562
   5 C3        6.5004    -1.1299    -0.8752  C.ar    1  <O>11       0.0863
   6 N2        7.0860    -2.3521    -0.8750  N.ar    1  <O>11      -0.1737
   7 N3        6.8191    -3.2131     0.1341  N.ar    1  <O>11      -0.2424
   8 C4        5.9823    -2.8275     1.1257  C.ar    1  <O>11       0.2725
   9 O2        5.6703    -3.8021     2.0920  O.2     1  <O>11      -0.2658
  10 C5        5.4304    -1.5420     1.2247  C.ar    1  <O>11       0.0496
  11 C6        4.6016    -1.1158     2.2885  C.ar    1  <O>11      -0.0487
  12 C7        4.0611     0.1685     2.3110  C.ar    1  <O>11      -0.0610
  13 C8        4.3283     1.0504     1.2691  C.ar    1  <O>11      -0.0611
  14 C9        5.1383     0.6450     0.2064  C.ar    1  <O>11      -0.0520
  15 C10       5.7026    -0.6493     0.1730  C.ar    1  <O>11       0.0118
  16 C11       9.7260    -2.1810    -3.5640  C.3     1  <O>11       0.0855
  17 C12      10.5820    -3.1324    -2.8090  C.ar    1  <O>11      -0.0312
  18 C13      10.0620    -4.3657    -2.3772  C.ar    1  <O>11      -0.0575
  19 C14      10.8655    -5.2557    -1.6565  C.ar    1  <O>11      -0.0615
  20 C15      12.1923    -4.9267    -1.3645  C.ar    1  <O>11      -0.0617
  21 C16      12.7106    -3.7031    -1.7998  C.ar    1  <O>11      -0.0615
  22 C17      11.9185    -2.8089    -2.5204  C.ar    1  <O>11      -0.0575
  23 C18      10.5854    -1.2224    -4.3054  C.ar    1  <O>11      -0.0312
  24 C19      11.4816    -0.3898    -3.6132  C.ar    1  <O>11      -0.0575
  25 C20      12.2814     0.5215    -4.3120  C.ar    1  <O>11      -0.0615
  26 C21      12.1979     0.6063    -5.7045  C.ar    1  <O>11      -0.0617
  27 C22      11.3103    -0.2269    -6.3935  C.ar    1  <O>11      -0.0615
  28 C23      10.5095    -1.1394    -5.7060  C.ar    1  <O>11      -0.0575
  29 H1        7.2710    -1.2390    -3.9420  H       1  <O>11       0.1491
  30 H2        7.2452     0.6257    -1.7724  H       1  <O>11       0.0528
  31 H3        5.8024    -0.0643    -2.5533  H       1  <O>11       0.0528
  32 H4        7.2402    -4.1313     0.1474  H       1  <O>11       0.1921
  33 H5        9.1048    -2.7334    -4.2700  H       1  <O>11       0.0492
  34 H6        4.3935    -1.7672     3.0615  H       1  <O>11       0.0625
  35 H7        3.4640     0.4646     3.0990  H       1  <O>11       0.0618
  36 H8        3.9289     2.0019     1.2815  H       1  <O>11       0.0618
  37 H9        5.3277     1.3016    -0.5669  H       1  <O>11       0.0624
  38 H10       9.0840    -4.6150    -2.5928  H       1  <O>11       0.0621
  39 H11      10.4774    -6.1578    -1.3394  H       1  <O>11       0.0618
  40 H12      12.7850    -5.5822    -0.8316  H       1  <O>11       0.0618
  41 H13      13.6902    -3.4588    -1.5856  H       1  <O>11       0.0618
  42 H14      12.3136    -1.9110    -2.8409  H       1  <O>11       0.0621
  43 H15      11.5500    -0.4508    -2.5853  H       1  <O>11       0.0621
  44 H16      12.9348     1.1326    -3.7975  H       1  <O>11       0.0618
  45 H17      12.7867     1.2786    -6.2207  H       1  <O>11       0.0618
  46 H18      11.2471    -0.1660    -7.4217  H       1  <O>11       0.0618
  47 H19       9.8621    -1.7526    -6.2255  H       1  <O>11       0.0621
@<TRIPOS>BOND
     1     1     2    2
     2     2     3   am
     3     3     4    1
     4     4     5    1
     5     5     6   ar
     6     6     7   ar
     7     7     8   ar
     8     8     9    2
     9     8    10   ar
    10    10    11   ar
    11    11    12   ar
    12    12    13   ar
    13    13    14   ar
    14    14    15   ar
    15     5    15   ar
    16    10    15   ar
    17     2    16    1
    18    16    17    1
    19    17    18   ar
    20    18    19   ar
    21    19    20   ar
    22    20    21   ar
    23    21    22   ar
    24    17    22   ar
    25    16    23    1
    26    23    24   ar
    27    24    25   ar
    28    25    26   ar
    29    26    27   ar
    30    27    28   ar
    31    23    28   ar
    32     3    29    1
    33     4    30    1
    34     4    31    1
    35     7    32    1
    36    16    33    1
    37    11    34    1
    38    12    35    1
    39    13    36    1
    40    14    37    1
    41    18    38    1
    42    19    39    1
    43    20    40    1
    44    21    41    1
    45    22    42    1
    46    24    43    1
    47    25    44    1
    48    26    45    1
    49    27    46    1
    50    28    47    1
@<TRIPOS>MOLECULE
mol1_1_23
 47 50 0 0 0
SMALL
USER_CHARGES
****
VDW energy = -92.57
@<TRIPOS>ATOM
   1 O1        9.2535    -1.1831    -1.4851  O.2     1  <O>11      -0.2748
   2 C1        8.8535    -1.4341    -2.6122  C.2     1  <O>11       0.2251
   3 N1        7.6050    -1.0300    -3.0010  N.am    1  <O>11      -0.3089
   4 C2        6.7510    -0.2990    -2.0700  C.3     1  <O>11       0.0562
   5 C3        7.4212     0.9535    -1.6664  C.ar    1  <O>11       0.0863
   6 N2        8.4466     1.3535    -2.4571  N.ar    1  <O>11      -0.1737
   7 N3        9.1785     2.4325    -2.0956  N.ar    1  <O>11      -0.2424
   8 C4        8.8606     3.0936    -0.9580  C.ar    1  <O>11       0.2725
   9 O2        9.7190     4.1460    -0.5882  O.2     1  <O>11      -0.2658
  10 C5        7.7509     2.7820    -0.1591  C.ar    1  <O>11       0.0496
  11 C6        7.3809     3.5048     0.9989  C.ar    1  <O>11      -0.0487
  12 C7        6.2814     3.1236     1.7657  C.ar    1  <O>11      -0.0610
  13 C8        5.5345     2.0090     1.3989  C.ar    1  <O>11      -0.0611
  14 C9        5.8891     1.2785     0.2630  C.ar    1  <O>11      -0.0520
  15 C10       6.9939     1.6570    -0.5312  C.ar    1  <O>11       0.0118
  16 C11       9.7260    -2.1810    -3.5640  C.3     1  <O>11       0.0855
  17 C12      10.5820    -3.1324    -2.8090  C.ar    1  <O>11      -0.0312
  18 C13      10.9800    -2.8376    -1.4927  C.ar    1  <O>11      -0.0575
  19 C14      11.7954    -3.7287    -0.7868  C.ar    1  <O>11      -0.0615
  20 C15      12.2165    -4.9204    -1.3839  C.ar    1  <O>11      -0.0617
  21 C16      11.8151    -5.2158    -2.6905  C.ar    1  <O>11      -0.0615
  22 C17      11.0009    -4.3348    -3.4028  C.ar    1  <O>11      -0.0575
  23 C18      10.5854    -1.2224    -4.3054  C.ar    1  <O>11      -0.0312
  24 C19      11.0069    -1.5123    -5.6146  C.ar    1  <O>11      -0.0575
  25 C20      11.8267    -0.6140    -6.3071  C.ar    1  <O>11      -0.0615
  26 C21      12.2280     0.5806    -5.7028  C.ar    1  <O>11      -0.0617
  27 C22      11.8031     0.8714    -4.4022  C.ar    1  <O>11      -0.0615
  28 C23      10.9849    -0.0171    -3.7039  C.ar    1  <O>11      -0.0575
  29 H1        7.2710    -1.2390    -3.9420  H       1  <O>11       0.1491
  30 H2        5.8029    -0.0643    -2.5536  H       1  <O>11       0.0528
  31 H3        6.5663    -0.9115    -1.1873  H       1  <O>11       0.0528
  32 H4        9.9515     2.7410    -2.6683  H       1  <O>11       0.1921
  33 H5        9.1048    -2.7334    -4.2700  H       1  <O>11       0.0492
  34 H6        7.9347     4.3287     1.2809  H       1  <O>11       0.0625
  35 H7        6.0220     3.6670     2.6038  H       1  <O>11       0.0618
  36 H8        4.7205     1.7228     1.9649  H       1  <O>11       0.0618
  37 H9        5.3350     0.4487    -0.0005  H       1  <O>11       0.0624
  38 H10      10.6693    -1.9608    -1.0458  H       1  <O>11       0.0621
  39 H11      12.0870    -3.5055     0.1776  H       1  <O>11       0.0618
  40 H12      12.8192    -5.5774    -0.8644  H       1  <O>11       0.0618
  41 H13      12.1245    -6.0954    -3.1328  H       1  <O>11       0.0618
  42 H14      10.7067    -4.5661    -4.3646  H       1  <O>11       0.0621
  43 H15      10.7106    -2.3912    -6.0670  H       1  <O>11       0.0621
  44 H16      12.1358    -0.8343    -7.2667  H       1  <O>11       0.0618
  45 H17      12.8332     1.2433    -6.2123  H       1  <O>11       0.0618
  46 H18      12.0982     1.7531    -3.9541  H       1  <O>11       0.0618
  47 H19      10.6735     0.2107    -2.7467  H       1  <O>11       0.0621
@<TRIPOS>BOND
     1     1     2    2
     2     2     3   am
     3     3     4    1
     4     4     5    1
     5     5     6   ar
     6     6     7   ar
     7     7     8   ar
     8     8     9    2
     9     8    10   ar
    10    10    11   ar
    11    11    12   ar
    12    12    13   ar
    13    13    14   ar
    14    14    15   ar
    15     5    15   ar
    16    10    15   ar
    17     2    16    1
    18    16    17    1
    19    17    18   ar
    20    18    19   ar
    21    19    20   ar
    22    20    21   ar
    23    21    22   ar
    24    17    22   ar
    25    16    23    1
    26    23    24   ar
    27    24    25   ar
    28    25    26   ar
    29    26    27   ar
    30    27    28   ar
    31    23    28   ar
    32     3    29    1
    33     4    30    1
    34     4    31    1
    35     7    32    1
    36    16    33    1
    37    11    34    1
    38    12    35    1
    39    13    36    1
    40    14    37    1
    41    18    38    1
    42    19    39    1
    43    20    40    1
    44    21    41    1
    45    22    42    1
    46    24    43    1
    47    25    44    1
    48    26    45    1
    49    27    46    1
    50    28    47    1
@<TRIPOS>MOLECULE
mol1_1_24
 47 50 0 0 0
SMALL
USER_CHARGES
****
VDW energy = -91.34
@<TRIPOS>ATOM
   1 O1        9.2535    -1.1831    -1.4851  O.2     1  <O>11      -0.2748
   2 C1        8.8535    -1.4341    -2.6122  C.2     1  <O>11       0.2251
   3 N1        7.6050    -1.0300    -3.0010  N.am    1  <O>11      -0.3089
   4 C2        6.7510    -0.2990    -2.0700  C.3     1  <O>11       0.0562
   5 C3        5.3884    -0.8673    -2.1014  C.ar    1  <O>11       0.0863
   6 N2        4.5416    -0.3163    -3.0049  N.ar    1  <O>11      -0.1737
   7 N3        3.2469    -0.7089    -3.0229  N.ar    1  <O>11      -0.2424
   8 C4        2.8317    -1.6519    -2.1451  C.ar    1  <O>11       0.2725
   9 O2        1.4551    -1.9450    -2.1502  O.2     1  <O>11      -0.2658
  10 C5        3.6870    -2.3237    -1.2596  C.ar    1  <O>11       0.0496
  11 C6        3.2694    -3.3499    -0.3806  C.ar    1  <O>11      -0.0487
  12 C7        4.1664    -3.9571     0.4962  C.ar    1  <O>11      -0.0610
  13 C8        5.4953    -3.5472     0.5208  C.ar    1  <O>11      -0.0611
  14 C9        5.9245    -2.5303    -0.3344  C.ar    1  <O>11      -0.0520
  15 C10       5.0311    -1.9115    -1.2364  C.ar    1  <O>11       0.0118
  16 C11       9.7260    -2.1810    -3.5640  C.3     1  <O>11       0.0855
  17 C12      10.5820    -3.1324    -2.8090  C.ar    1  <O>11      -0.0312
  18 C13      10.9800    -2.8376    -1.4927  C.ar    1  <O>11      -0.0575
  19 C14      11.7954    -3.7287    -0.7868  C.ar    1  <O>11      -0.0615
  20 C15      12.2165    -4.9204    -1.3839  C.ar    1  <O>11      -0.0617
  21 C16      11.8151    -5.2158    -2.6905  C.ar    1  <O>11      -0.0615
  22 C17      11.0009    -4.3348    -3.4028  C.ar    1  <O>11      -0.0575
  23 C18      10.5854    -1.2224    -4.3054  C.ar    1  <O>11      -0.0312
  24 C19      10.0149    -0.1186    -4.9624  C.ar    1  <O>11      -0.0575
  25 C20      10.8244     0.7766    -5.6709  C.ar    1  <O>11      -0.0615
  26 C21      12.2073     0.5815    -5.7257  C.ar    1  <O>11      -0.0617
  27 C22      12.7751    -0.5138    -5.0665  C.ar    1  <O>11      -0.0615
  28 C23      11.9768    -1.4112    -4.3567  C.ar    1  <O>11      -0.0575
  29 H1        7.2710    -1.2390    -3.9420  H       1  <O>11       0.1491
  30 H2        7.1565    -0.3829    -1.0618  H       1  <O>11       0.0528
  31 H3        6.7120     0.7514    -2.3593  H       1  <O>11       0.0528
  32 H4        2.5992    -0.3039    -3.6840  H       1  <O>11       0.1921
  33 H5        9.1048    -2.7334    -4.2700  H       1  <O>11       0.0492
  34 H6        2.2833    -3.6543    -0.3886  H       1  <O>11       0.0625
  35 H7        3.8454    -4.7093     1.1257  H       1  <O>11       0.0618
  36 H8        6.1624    -3.9935     1.1696  H       1  <O>11       0.0618
  37 H9        6.9103    -2.2260    -0.3069  H       1  <O>11       0.0624
  38 H10      10.6693    -1.9608    -1.0458  H       1  <O>11       0.0621
  39 H11      12.0870    -3.5055     0.1776  H       1  <O>11       0.0618
  40 H12      12.8192    -5.5774    -0.8644  H       1  <O>11       0.0618
  41 H13      12.1245    -6.0954    -3.1328  H       1  <O>11       0.0618
  42 H14      10.7067    -4.5661    -4.3646  H       1  <O>11       0.0621
  43 H15       8.9948     0.0324    -4.9222  H       1  <O>11       0.0621
  44 H16      10.3991     1.5831    -6.1543  H       1  <O>11       0.0618
  45 H17      12.8050     1.2405    -6.2486  H       1  <O>11       0.0618
  46 H18      13.7960    -0.6597    -5.1056  H       1  <O>11       0.0618
  47 H19      12.4076    -2.2127    -3.8699  H       1  <O>11       0.0621
@<TRIPOS>BOND
     1     1     2    2
     2     2     3   am
     3     3     4    1
     4     4     5    1
     5     5     6   ar
     6     6     7   ar
     7     7     8   ar
     8     8     9    2
     9     8    10   ar
    10    10    11   ar
    11    11    12   ar
    12    12    13   ar
    13    13    14   ar
    14    14    15   ar
    15     5    15   ar
    16    10    15   ar
    17     2    16    1
    18    16    17    1
    19    17    18   ar
    20    18    19   ar
    21    19    20   ar
    22    20    21   ar
    23    21    22   ar
    24    17    22   ar
    25    16    23    1
    26    23    24   ar
    27    24    25   ar
    28    25    26   ar
    29    26    27   ar
    30    27    28   ar
    31    23    28   ar
    32     3    29    1
    33     4    30    1
    34     4    31    1
    35     7    32    1
    36    16    33    1
    37    11    34    1
    38    12    35    1
    39    13    36    1
    40    14    37    1
    41    18    38    1
    42    19    39    1
    43    20    40    1
    44    21    41    1
    45    22    42    1
    46    24    43    1
    47    25    44    1
    48    26    45    1
    49    27    46    1
    50    28    47    1
@<TRIPOS>MOLECULE
mol1_1_25
 47 50 0 0 0
SMALL
USER_CHARGES
****
VDW energy = -91.20
@<TRIPOS>ATOM
   1 O1        9.2535    -1.1831    -1.4851  O.2     1  <O>11      -0.2748
   2 C1        8.8535    -1.4341    -2.6122  C.2     1  <O>11       0.2251
   3 N1        7.6050    -1.0300    -3.0010  N.am    1  <O>11      -0.3089
   4 C2        6.7510    -0.2990    -2.0700  C.3     1  <O>11       0.0562
   5 C3        5.3884    -0.8673    -2.1014  C.ar    1  <O>11       0.0863
   6 N2        5.2778    -2.1010    -2.6515  N.ar    1  <O>11      -0.1737
   7 N3        4.0497    -2.6452    -2.8134  N.ar    1  <O>11      -0.2424
   8 C4        2.9614    -1.9483    -2.4105  C.ar    1  <O>11       0.2725
   9 O2        1.7104    -2.5269    -2.6951  O.2     1  <O>11      -0.2658
  10 C5        3.0272    -0.7147    -1.7465  C.ar    1  <O>11       0.0496
  11 C6        1.8968    -0.0094    -1.2724  C.ar    1  <O>11      -0.0487
  12 C7        2.0302     1.2282    -0.6458  C.ar    1  <O>11      -0.0610
  13 C8        3.2920     1.7916    -0.4875  C.ar    1  <O>11      -0.0611
  14 C9        4.4192     1.1135    -0.9559  C.ar    1  <O>11      -0.0520
  15 C10       4.3028    -0.1461    -1.5839  C.ar    1  <O>11       0.0118
  16 C11       9.7260    -2.1810    -3.5640  C.3     1  <O>11       0.0855
  17 C12      10.5820    -3.1324    -2.8090  C.ar    1  <O>11      -0.0312
  18 C13      11.0015    -4.3355    -3.4044  C.ar    1  <O>11      -0.0575
  19 C14      11.7979    -5.2357    -2.6886  C.ar    1  <O>11      -0.0615
  20 C15      12.1858    -4.9431    -1.3780  C.ar    1  <O>11      -0.0617
  21 C16      11.7739    -3.7437    -0.7889  C.ar    1  <O>11      -0.0615
  22 C17      10.9806    -2.8384    -1.4942  C.ar    1  <O>11      -0.0575
  23 C18      10.5854    -1.2224    -4.3054  C.ar    1  <O>11      -0.0312
  24 C19      10.0149    -0.1186    -4.9624  C.ar    1  <O>11      -0.0575
  25 C20      10.8244     0.7766    -5.6709  C.ar    1  <O>11      -0.0615
  26 C21      12.2073     0.5815    -5.7257  C.ar    1  <O>11      -0.0617
  27 C22      12.7751    -0.5138    -5.0665  C.ar    1  <O>11      -0.0615
  28 C23      11.9768    -1.4112    -4.3567  C.ar    1  <O>11      -0.0575
  29 H1        7.2710    -1.2390    -3.9420  H       1  <O>11       0.1491
  30 H2        7.1565    -0.3829    -1.0618  H       1  <O>11       0.0528
  31 H3        6.7120     0.7514    -2.3593  H       1  <O>11       0.0528
  32 H4        3.9468    -3.5605    -3.2285  H       1  <O>11       0.1921
  33 H5        9.1048    -2.7334    -4.2700  H       1  <O>11       0.0492
  34 H6        0.9568    -0.4182    -1.3927  H       1  <O>11       0.0625
  35 H7        1.1946     1.7255    -0.2998  H       1  <O>11       0.0618
  36 H8        3.3948     2.7085    -0.0252  H       1  <O>11       0.0618
  37 H9        5.3521     1.5396    -0.8414  H       1  <O>11       0.0624
  38 H10      10.7207    -4.5550    -4.3729  H       1  <O>11       0.0621
  39 H11      12.0999    -6.1185    -3.1295  H       1  <O>11       0.0618
  40 H12      12.7721    -5.6075    -0.8489  H       1  <O>11       0.0618
  41 H13      12.0597    -3.5258     0.1785  H       1  <O>11       0.0618
  42 H14      10.6871    -1.9539    -1.0508  H       1  <O>11       0.0621
  43 H15       8.9948     0.0324    -4.9222  H       1  <O>11       0.0621
  44 H16      10.3991     1.5831    -6.1543  H       1  <O>11       0.0618
  45 H17      12.8050     1.2405    -6.2486  H       1  <O>11       0.0618
  46 H18      13.7960    -0.6597    -5.1056  H       1  <O>11       0.0618
  47 H19      12.4076    -2.2127    -3.8699  H       1  <O>11       0.0621
@<TRIPOS>BOND
     1     1     2    2
     2     2     3   am
     3     3     4    1
     4     4     5    1
     5     5     6   ar
     6     6     7   ar
     7     7     8   ar
     8     8     9    2
     9     8    10   ar
    10    10    11   ar
    11    11    12   ar
    12    12    13   ar
    13    13    14   ar
    14    14    15   ar
    15     5    15   ar
    16    10    15   ar
    17     2    16    1
    18    16    17    1
    19    17    18   ar
    20    18    19   ar
    21    19    20   ar
    22    20    21   ar
    23    21    22   ar
    24    17    22   ar
    25    16    23    1
    26    23    24   ar
    27    24    25   ar
    28    25    26   ar
    29    26    27   ar
    30    27    28   ar
    31    23    28   ar
    32     3    29    1
    33     4    30    1
    34     4    31    1
    35     7    32    1
    36    16    33    1
    37    11    34    1
    38    12    35    1
    39    13    36    1
    40    14    37    1
    41    18    38    1
    42    19    39    1
    43    20    40    1
    44    21    41    1
    45    22    42    1
    46    24    43    1
    47    25    44    1
    48    26    45    1
    49    27    46    1
    50    28    47    1
@<TRIPOS>MOLECULE
mol1_1_26
 47 50 0 0 0
SMALL
USER_CHARGES
****
VDW energy = -90.39
@<TRIPOS>ATOM
   1 O1        9.2535    -1.1831    -1.4851  O.2     1  <O>11      -0.2748
   2 C1        8.8535    -1.4341    -2.6122  C.2     1  <O>11       0.2251
   3 N1        7.6050    -1.0300    -3.0010  N.am    1  <O>11      -0.3089
   4 C2        6.7510    -0.2990    -2.0700  C.3     1  <O>11       0.0562
   5 C3        5.3884    -0.8673    -2.1014  C.ar    1  <O>11       0.0863
   6 N2        5.2778    -2.1010    -2.6515  N.ar    1  <O>11      -0.1737
   7 N3        4.0497    -2.6452    -2.8134  N.ar    1  <O>11      -0.2424
   8 C4        2.9614    -1.9483    -2.4105  C.ar    1  <O>11       0.2725
   9 O2        1.7104    -2.5269    -2.6951  O.2     1  <O>11      -0.2658
  10 C5        3.0272    -0.7147    -1.7465  C.ar    1  <O>11       0.0496
  11 C6        1.8968    -0.0094    -1.2724  C.ar    1  <O>11      -0.0487
  12 C7        2.0302     1.2282    -0.6458  C.ar    1  <O>11      -0.0610
  13 C8        3.2920     1.7916    -0.4875  C.ar    1  <O>11      -0.0611
  14 C9        4.4192     1.1135    -0.9559  C.ar    1  <O>11      -0.0520
  15 C10       4.3028    -0.1461    -1.5839  C.ar    1  <O>11       0.0118
  16 C11       9.7260    -2.1810    -3.5640  C.3     1  <O>11       0.0855
  17 C12      10.5820    -3.1324    -2.8090  C.ar    1  <O>11      -0.0312
  18 C13      10.9800    -2.8376    -1.4927  C.ar    1  <O>11      -0.0575
  19 C14      11.7954    -3.7287    -0.7868  C.ar    1  <O>11      -0.0615
  20 C15      12.2165    -4.9204    -1.3839  C.ar    1  <O>11      -0.0617
  21 C16      11.8151    -5.2158    -2.6905  C.ar    1  <O>11      -0.0615
  22 C17      11.0009    -4.3348    -3.4028  C.ar    1  <O>11      -0.0575
  23 C18      10.5854    -1.2224    -4.3054  C.ar    1  <O>11      -0.0312
  24 C19      10.0149    -0.1186    -4.9624  C.ar    1  <O>11      -0.0575
  25 C20      10.8244     0.7766    -5.6709  C.ar    1  <O>11      -0.0615
  26 C21      12.2073     0.5815    -5.7257  C.ar    1  <O>11      -0.0617
  27 C22      12.7751    -0.5138    -5.0665  C.ar    1  <O>11      -0.0615
  28 C23      11.9768    -1.4112    -4.3567  C.ar    1  <O>11      -0.0575
  29 H1        7.2710    -1.2390    -3.9420  H       1  <O>11       0.1491
  30 H2        7.1565    -0.3829    -1.0618  H       1  <O>11       0.0528
  31 H3        6.7120     0.7514    -2.3593  H       1  <O>11       0.0528
  32 H4        3.9468    -3.5605    -3.2285  H       1  <O>11       0.1921
  33 H5        9.1048    -2.7334    -4.2700  H       1  <O>11       0.0492
  34 H6        0.9568    -0.4182    -1.3927  H       1  <O>11       0.0625
  35 H7        1.1946     1.7255    -0.2998  H       1  <O>11       0.0618
  36 H8        3.3948     2.7085    -0.0252  H       1  <O>11       0.0618
  37 H9        5.3521     1.5396    -0.8414  H       1  <O>11       0.0624
  38 H10      10.6693    -1.9608    -1.0458  H       1  <O>11       0.0621
  39 H11      12.0870    -3.5055     0.1776  H       1  <O>11       0.0618
  40 H12      12.8192    -5.5774    -0.8644  H       1  <O>11       0.0618
  41 H13      12.1245    -6.0954    -3.1328  H       1  <O>11       0.0618
  42 H14      10.7067    -4.5661    -4.3646  H       1  <O>11       0.0621
  43 H15       8.9948     0.0324    -4.9222  H       1  <O>11       0.0621
  44 H16      10.3991     1.5831    -6.1543  H       1  <O>11       0.0618
  45 H17      12.8050     1.2405    -6.2486  H       1  <O>11       0.0618
  46 H18      13.7960    -0.6597    -5.1056  H       1  <O>11       0.0618
  47 H19      12.4076    -2.2127    -3.8699  H       1  <O>11       0.0621
@<TRIPOS>BOND
     1     1     2    2
     2     2     3   am
     3     3     4    1
     4     4     5    1
     5     5     6   ar
     6     6     7   ar
     7     7     8   ar
     8     8     9    2
     9     8    10   ar
    10    10    11   ar
    11    11    12   ar
    12    12    13   ar
    13    13    14   ar
    14    14    15   ar
    15     5    15   ar
    16    10    15   ar
    17     2    16    1
    18    16    17    1
    19    17    18   ar
    20    18    19   ar
    21    19    20   ar
    22    20    21   ar
    23    21    22   ar
    24    17    22   ar
    25    16    23    1
    26    23    24   ar
    27    24    25   ar
    28    25    26   ar
    29    26    27   ar
    30    27    28   ar
    31    23    28   ar
    32     3    29    1
    33     4    30    1
    34     4    31    1
    35     7    32    1
    36    16    33    1
    37    11    34    1
    38    12    35    1
    39    13    36    1
    40    14    37    1
    41    18    38    1
    42    19    39    1
    43    20    40    1
    44    21    41    1
    45    22    42    1
    46    24    43    1
    47    25    44    1
    48    26    45    1
    49    27    46    1
    50    28    47    1
@<TRIPOS>MOLECULE
mol1_1_27
 47 50 0 0 0
SMALL
USER_CHARGES
****
VDW energy = -90.20
@<TRIPOS>ATOM
   1 O1        9.2535    -1.1831    -1.4851  O.2     1  <O>11      -0.2748
   2 C1        8.8535    -1.4341    -2.6122  C.2     1  <O>11       0.2251
   3 N1        7.6050    -1.0300    -3.0010  N.am    1  <O>11      -0.3089
   4 C2        6.7510    -0.2990    -2.0700  C.3     1  <O>11       0.0562
   5 C3        7.4212     0.9535    -1.6664  C.ar    1  <O>11       0.0863
   6 N2        8.4466     1.3535    -2.4571  N.ar    1  <O>11      -0.1737
   7 N3        9.1785     2.4325    -2.0956  N.ar    1  <O>11      -0.2424
   8 C4        8.8606     3.0936    -0.9580  C.ar    1  <O>11       0.2725
   9 O2        9.7190     4.1460    -0.5882  O.2     1  <O>11      -0.2658
  10 C5        7.7509     2.7820    -0.1591  C.ar    1  <O>11       0.0496
  11 C6        7.3809     3.5048     0.9989  C.ar    1  <O>11      -0.0487
  12 C7        6.2814     3.1236     1.7657  C.ar    1  <O>11      -0.0610
  13 C8        5.5345     2.0090     1.3989  C.ar    1  <O>11      -0.0611
  14 C9        5.8891     1.2785     0.2630  C.ar    1  <O>11      -0.0520
  15 C10       6.9939     1.6570    -0.5312  C.ar    1  <O>11       0.0118
  16 C11       9.7260    -2.1810    -3.5640  C.3     1  <O>11       0.0855
  17 C12      10.5820    -3.1324    -2.8090  C.ar    1  <O>11      -0.0312
  18 C13      10.9800    -2.8376    -1.4927  C.ar    1  <O>11      -0.0575
  19 C14      11.7954    -3.7287    -0.7868  C.ar    1  <O>11      -0.0615
  20 C15      12.2165    -4.9204    -1.3839  C.ar    1  <O>11      -0.0617
  21 C16      11.8151    -5.2158    -2.6905  C.ar    1  <O>11      -0.0615
  22 C17      11.0009    -4.3348    -3.4028  C.ar    1  <O>11      -0.0575
  23 C18      10.5854    -1.2224    -4.3054  C.ar    1  <O>11      -0.0312
  24 C19      10.0149    -0.1186    -4.9624  C.ar    1  <O>11      -0.0575
  25 C20      10.8244     0.7766    -5.6709  C.ar    1  <O>11      -0.0615
  26 C21      12.2073     0.5815    -5.7257  C.ar    1  <O>11      -0.0617
  27 C22      12.7751    -0.5138    -5.0665  C.ar    1  <O>11      -0.0615
  28 C23      11.9768    -1.4112    -4.3567  C.ar    1  <O>11      -0.0575
  29 H1        7.2710    -1.2390    -3.9420  H       1  <O>11       0.1491
  30 H2        5.8029    -0.0643    -2.5536  H       1  <O>11       0.0528
  31 H3        6.5663    -0.9115    -1.1873  H       1  <O>11       0.0528
  32 H4        9.9515     2.7410    -2.6683  H       1  <O>11       0.1921
  33 H5        9.1048    -2.7334    -4.2700  H       1  <O>11       0.0492
  34 H6        7.9347     4.3287     1.2809  H       1  <O>11       0.0625
  35 H7        6.0220     3.6670     2.6038  H       1  <O>11       0.0618
  36 H8        4.7205     1.7228     1.9649  H       1  <O>11       0.0618
  37 H9        5.3350     0.4487    -0.0005  H       1  <O>11       0.0624
  38 H10      10.6693    -1.9608    -1.0458  H       1  <O>11       0.0621
  39 H11      12.0870    -3.5055     0.1776  H       1  <O>11       0.0618
  40 H12      12.8192    -5.5774    -0.8644  H       1  <O>11       0.0618
  41 H13      12.1245    -6.0954    -3.1328  H       1  <O>11       0.0618
  42 H14      10.7067    -4.5661    -4.3646  H       1  <O>11       0.0621
  43 H15       8.9948     0.0324    -4.9222  H       1  <O>11       0.0621
  44 H16      10.3991     1.5831    -6.1543  H       1  <O>11       0.0618
  45 H17      12.8050     1.2405    -6.2486  H       1  <O>11       0.0618
  46 H18      13.7960    -0.6597    -5.1056  H       1  <O>11       0.0618
  47 H19      12.4076    -2.2127    -3.8699  H       1  <O>11       0.0621
@<TRIPOS>BOND
     1     1     2    2
     2     2     3   am
     3     3     4    1
     4     4     5    1
     5     5     6   ar
     6     6     7   ar
     7     7     8   ar
     8     8     9    2
     9     8    10   ar
    10    10    11   ar
    11    11    12   ar
    12    12    13   ar
    13    13    14   ar
    14    14    15   ar
    15     5    15   ar
    16    10    15   ar
    17     2    16    1
    18    16    17    1
    19    17    18   ar
    20    18    19   ar
    21    19    20   ar
    22    20    21   ar
    23    21    22   ar
    24    17    22   ar
    25    16    23    1
    26    23    24   ar
    27    24    25   ar
    28    25    26   ar
    29    26    27   ar
    30    27    28   ar
    31    23    28   ar
    32     3    29    1
    33     4    30    1
    34     4    31    1
    35     7    32    1
    36    16    33    1
    37    11    34    1
    38    12    35    1
    39    13    36    1
    40    14    37    1
    41    18    38    1
    42    19    39    1
    43    20    40    1
    44    21    41    1
    45    22    42    1
    46    24    43    1
    47    25    44    1
    48    26    45    1
    49    27    46    1
    50    28    47    1
@<TRIPOS>MOLECULE
mol1_1_28
 47 50 0 0 0
SMALL
USER_CHARGES
****
VDW energy = -89.51
@<TRIPOS>ATOM
   1 O1        9.2535    -1.1831    -1.4851  O.2     1  <O>11      -0.2748
   2 C1        8.8535    -1.4341    -2.6122  C.2     1  <O>11       0.2251
   3 N1        7.6050    -1.0300    -3.0010  N.am    1  <O>11      -0.3089
   4 C2        6.7510    -0.2990    -2.0700  C.3     1  <O>11       0.0562
   5 C3        5.3884    -0.8673    -2.1014  C.ar    1  <O>11       0.0863
   6 N2        4.9286    -1.3593    -0.9253  N.ar    1  <O>11      -0.1737
   7 N3        3.7328    -1.9915    -0.8952  N.ar    1  <O>11      -0.2424
   8 C4        3.0189    -2.1066    -2.0394  C.ar    1  <O>11       0.2725
   9 O2        1.8316    -2.8583    -1.9604  O.2     1  <O>11      -0.2658
  10 C5        3.4019    -1.5296    -3.2589  C.ar    1  <O>11       0.0496
  11 C6        2.6324    -1.5977    -4.4436  C.ar    1  <O>11      -0.0487
  12 C7        3.0857    -1.0268    -5.6313  C.ar    1  <O>11      -0.0610
  13 C8        4.3191    -0.3848    -5.6642  C.ar    1  <O>11      -0.0611
  14 C9        5.0964    -0.3140    -4.5064  C.ar    1  <O>11      -0.0520
  15 C10       4.6475    -0.8780    -3.2920  C.ar    1  <O>11       0.0118
  16 C11       9.7260    -2.1810    -3.5640  C.3     1  <O>11       0.0855
  17 C12      10.5820    -3.1324    -2.8090  C.ar    1  <O>11      -0.0312
  18 C13      10.9800    -2.8376    -1.4927  C.ar    1  <O>11      -0.0575
  19 C14      11.7954    -3.7287    -0.7868  C.ar    1  <O>11      -0.0615
  20 C15      12.2165    -4.9204    -1.3839  C.ar    1  <O>11      -0.0617
  21 C16      11.8151    -5.2158    -2.6905  C.ar    1  <O>11      -0.0615
  22 C17      11.0009    -4.3348    -3.4028  C.ar    1  <O>11      -0.0575
  23 C18      10.5854    -1.2224    -4.3054  C.ar    1  <O>11      -0.0312
  24 C19      10.0149    -0.1186    -4.9624  C.ar    1  <O>11      -0.0575
  25 C20      10.8244     0.7766    -5.6709  C.ar    1  <O>11      -0.0615
  26 C21      12.2073     0.5815    -5.7257  C.ar    1  <O>11      -0.0617
  27 C22      12.7751    -0.5138    -5.0665  C.ar    1  <O>11      -0.0615
  28 C23      11.9768    -1.4112    -4.3567  C.ar    1  <O>11      -0.0575
  29 H1        7.2710    -1.2390    -3.9420  H       1  <O>11       0.1491
  30 H2        7.1565    -0.3829    -1.0618  H       1  <O>11       0.0528
  31 H3        6.7120     0.7514    -2.3593  H       1  <O>11       0.0528
  32 H4        3.3771    -2.3715    -0.0293  H       1  <O>11       0.1921
  33 H5        9.1048    -2.7334    -4.2700  H       1  <O>11       0.0492
  34 H6        1.7194    -2.0786    -4.4282  H       1  <O>11       0.0625
  35 H7        2.5075    -1.0802    -6.4845  H       1  <O>11       0.0618
  36 H8        4.6589     0.0381    -6.5422  H       1  <O>11       0.0618
  37 H9        6.0136     0.1580    -4.5387  H       1  <O>11       0.0624
  38 H10      10.6693    -1.9608    -1.0458  H       1  <O>11       0.0621
  39 H11      12.0870    -3.5055     0.1776  H       1  <O>11       0.0618
  40 H12      12.8192    -5.5774    -0.8644  H       1  <O>11       0.0618
  41 H13      12.1245    -6.0954    -3.1328  H       1  <O>11       0.0618
  42 H14      10.7067    -4.5661    -4.3646  H       1  <O>11       0.0621
  43 H15       8.9948     0.0324    -4.9222  H       1  <O>11       0.0621
  44 H16      10.3991     1.5831    -6.1543  H       1  <O>11       0.0618
  45 H17      12.8050     1.2405    -6.2486  H       1  <O>11       0.0618
  46 H18      13.7960    -0.6597    -5.1056  H       1  <O>11       0.0618
  47 H19      12.4076    -2.2127    -3.8699  H       1  <O>11       0.0621
@<TRIPOS>BOND
     1     1     2    2
     2     2     3   am
     3     3     4    1
     4     4     5    1
     5     5     6   ar
     6     6     7   ar
     7     7     8   ar
     8     8     9    2
     9     8    10   ar
    10    10    11   ar
    11    11    12   ar
    12    12    13   ar
    13    13    14   ar
    14    14    15   ar
    15     5    15   ar
    16    10    15   ar
    17     2    16    1
    18    16    17    1
    19    17    18   ar
    20    18    19   ar
    21    19    20   ar
    22    20    21   ar
    23    21    22   ar
    24    17    22   ar
    25    16    23    1
    26    23    24   ar
    27    24    25   ar
    28    25    26   ar
    29    26    27   ar
    30    27    28   ar
    31    23    28   ar
    32     3    29    1
    33     4    30    1
    34     4    31    1
    35     7    32    1
    36    16    33    1
    37    11    34    1
    38    12    35    1
    39    13    36    1
    40    14    37    1
    41    18    38    1
    42    19    39    1
    43    20    40    1
    44    21    41    1
    45    22    42    1
    46    24    43    1
    47    25    44    1
    48    26    45    1
    49    27    46    1
    50    28    47    1
@<TRIPOS>MOLECULE
mol1_1_29
 47 50 0 0 0
SMALL
USER_CHARGES
****
VDW energy = -72.77
@<TRIPOS>ATOM
   1 O1        9.2535    -1.1831    -1.4851  O.2     1  <O>11      -0.2748
   2 C1        8.8535    -1.4341    -2.6122  C.2     1  <O>11       0.2251
   3 N1        7.6050    -1.0300    -3.0010  N.am    1  <O>11      -0.3089
   4 C2        6.7510    -0.2990    -2.0700  C.3     1  <O>11       0.0562
   5 C3        7.4212     0.9535    -1.6664  C.ar    1  <O>11       0.0863
   6 N2        7.1639     2.0349    -2.4418  N.ar    1  <O>11      -0.1737
   7 N3        7.8214     3.1926    -2.2012  N.ar    1  <O>11      -0.2424
   8 C4        8.7121     3.2457    -1.1833  C.ar    1  <O>11       0.2725
   9 O2        9.4321     4.4473    -1.0472  O.2     1  <O>11      -0.2658
  10 C5        8.9408     2.1880    -0.2912  C.ar    1  <O>11       0.0496
  11 C6        9.8277     2.2570     0.8082  C.ar    1  <O>11      -0.0487
  12 C7       10.0312     1.1577     1.6402  C.ar    1  <O>11      -0.0610
  13 C8        9.3620    -0.0352     1.3873  C.ar    1  <O>11      -0.0611
  14 C9        8.4881    -0.1247     0.3019  C.ar    1  <O>11      -0.0520
  15 C10       8.2624     0.9828    -0.5449  C.ar    1  <O>11       0.0118
  16 C11       9.7260    -2.1810    -3.5640  C.3     1  <O>11       0.0855
  17 C12      10.5820    -3.1324    -2.8090  C.ar    1  <O>11      -0.0312
  18 C13      10.9800    -2.8376    -1.4927  C.ar    1  <O>11      -0.0575
  19 C14      11.7954    -3.7287    -0.7868  C.ar    1  <O>11      -0.0615
  20 C15      12.2165    -4.9204    -1.3839  C.ar    1  <O>11      -0.0617
  21 C16      11.8151    -5.2158    -2.6905  C.ar    1  <O>11      -0.0615
  22 C17      11.0009    -4.3348    -3.4028  C.ar    1  <O>11      -0.0575
  23 C18      10.5854    -1.2224    -4.3054  C.ar    1  <O>11      -0.0312
  24 C19      10.9854    -0.0161    -3.7051  C.ar    1  <O>11      -0.0575
  25 C20      11.7847     0.8915    -4.4093  C.ar    1  <O>11      -0.0615
  26 C21      12.1948     0.6020    -5.7137  C.ar    1  <O>11      -0.0617
  27 C22      11.8015    -0.6014    -6.3084  C.ar    1  <O>11      -0.0615
  28 C23      11.0057    -1.5133    -5.6142  C.ar    1  <O>11      -0.0575
  29 H1        7.2710    -1.2390    -3.9420  H       1  <O>11       0.1491
  30 H2        5.8029    -0.0643    -2.5536  H       1  <O>11       0.0528
  31 H3        6.5663    -0.9115    -1.1873  H       1  <O>11       0.0528
  32 H4        7.6486     4.0071    -2.7734  H       1  <O>11       0.1921
  33 H5        9.1048    -2.7334    -4.2700  H       1  <O>11       0.0492
  34 H6       10.3329     3.1368     0.9977  H       1  <O>11       0.0625
  35 H7       10.6770     1.2284     2.4421  H       1  <O>11       0.0618
  36 H8        9.5111    -0.8519     2.0003  H       1  <O>11       0.0618
  37 H9        7.9994    -1.0144     0.1156  H       1  <O>11       0.0624
  38 H10      10.6693    -1.9608    -1.0458  H       1  <O>11       0.0621
  39 H11      12.0870    -3.5055     0.1776  H       1  <O>11       0.0618
  40 H12      12.8192    -5.5774    -0.8644  H       1  <O>11       0.0618
  41 H13      12.1245    -6.0954    -3.1328  H       1  <O>11       0.0618
  42 H14      10.7067    -4.5661    -4.3646  H       1  <O>11       0.0621
  43 H15      10.6886     0.2012    -2.7409  H       1  <O>11       0.0621
  44 H16      12.0720     1.7772    -3.9643  H       1  <O>11       0.0618
  45 H17      12.7834     1.2711    -6.2342  H       1  <O>11       0.0618
  46 H18      12.1033    -0.8173    -7.2714  H       1  <O>11       0.0618
  47 H19      10.7261    -2.4003    -6.0615  H       1  <O>11       0.0621
@<TRIPOS>BOND
     1     1     2    2
     2     2     3   am
     3     3     4    1
     4     4     5    1
     5     5     6   ar
     6     6     7   ar
     7     7     8   ar
     8     8     9    2
     9     8    10   ar
    10    10    11   ar
    11    11    12   ar
    12    12    13   ar
    13    13    14   ar
    14    14    15   ar
    15     5    15   ar
    16    10    15   ar
    17     2    16    1
    18    16    17    1
    19    17    18   ar
    20    18    19   ar
    21    19    20   ar
    22    20    21   ar
    23    21    22   ar
    24    17    22   ar
    25    16    23    1
    26    23    24   ar
    27    24    25   ar
    28    25    26   ar
    29    26    27   ar
    30    27    28   ar
    31    23    28   ar
    32     3    29    1
    33     4    30    1
    34     4    31    1
    35     7    32    1
    36    16    33    1
    37    11    34    1
    38    12    35    1
    39    13    36    1
    40    14    37    1
    41    18    38    1
    42    19    39    1
    43    20    40    1
    44    21    41    1
    45    22    42    1
    46    24    43    1
    47    25    44    1
    48    26    45    1
    49    27    46    1
    50    28    47    1
@<TRIPOS>MOLECULE
mol1_1_30
 47 50 0 0 0
SMALL
USER_CHARGES
****
VDW energy = -70.53
@<TRIPOS>ATOM
   1 O1        9.2535    -1.1831    -1.4851  O.2     1  <O>11      -0.2748
   2 C1        8.8535    -1.4341    -2.6122  C.2     1  <O>11       0.2251
   3 N1        7.6050    -1.0300    -3.0010  N.am    1  <O>11      -0.3089
   4 C2        6.7510    -0.2990    -2.0700  C.3     1  <O>11       0.0562
   5 C3        5.3884    -0.8673    -2.1014  C.ar    1  <O>11       0.0863
   6 N2        5.2778    -2.1010    -2.6515  N.ar    1  <O>11      -0.1737
   7 N3        4.0497    -2.6452    -2.8134  N.ar    1  <O>11      -0.2424
   8 C4        2.9614    -1.9483    -2.4105  C.ar    1  <O>11       0.2725
   9 O2        1.7104    -2.5269    -2.6951  O.2     1  <O>11      -0.2658
  10 C5        3.0272    -0.7147    -1.7465  C.ar    1  <O>11       0.0496
  11 C6        1.8968    -0.0094    -1.2724  C.ar    1  <O>11      -0.0487
  12 C7        2.0302     1.2282    -0.6458  C.ar    1  <O>11      -0.0610
  13 C8        3.2920     1.7916    -0.4875  C.ar    1  <O>11      -0.0611
  14 C9        4.4192     1.1135    -0.9559  C.ar    1  <O>11      -0.0520
  15 C10       4.3028    -0.1461    -1.5839  C.ar    1  <O>11       0.0118
  16 C11       9.7260    -2.1810    -3.5640  C.3     1  <O>11       0.0855
  17 C12      10.5820    -3.1324    -2.8090  C.ar    1  <O>11      -0.0312
  18 C13      11.4963    -3.9571    -3.4886  C.ar    1  <O>11      -0.0575
  19 C14      12.2936    -4.8606    -2.7778  C.ar    1  <O>11      -0.0615
  20 C15      12.1898    -4.9464    -1.3865  C.ar    1  <O>11      -0.0617
  21 C16      11.2852    -4.1215    -0.7108  C.ar    1  <O>11      -0.0615
  22 C17      10.4864    -3.2161    -1.4098  C.ar    1  <O>11      -0.0575
  23 C18      10.5854    -1.2224    -4.3054  C.ar    1  <O>11      -0.0312
  24 C19      10.0149    -0.1186    -4.9624  C.ar    1  <O>11      -0.0575
  25 C20      10.8244     0.7766    -5.6709  C.ar    1  <O>11      -0.0615
  26 C21      12.2073     0.5815    -5.7257  C.ar    1  <O>11      -0.0617
  27 C22      12.7751    -0.5138    -5.0665  C.ar    1  <O>11      -0.0615
  28 C23      11.9768    -1.4112    -4.3567  C.ar    1  <O>11      -0.0575
  29 H1        7.2710    -1.2390    -3.9420  H       1  <O>11       0.1491
  30 H2        7.1565    -0.3829    -1.0618  H       1  <O>11       0.0528
  31 H3        6.7120     0.7514    -2.3593  H       1  <O>11       0.0528
  32 H4        3.9468    -3.5605    -3.2285  H       1  <O>11       0.1921
  33 H5        9.1048    -2.7334    -4.2700  H       1  <O>11       0.0492
  34 H6        0.9568    -0.4182    -1.3927  H       1  <O>11       0.0625
  35 H7        1.1946     1.7255    -0.2998  H       1  <O>11       0.0618
  36 H8        3.3948     2.7085    -0.0252  H       1  <O>11       0.0618
  37 H9        5.3521     1.5396    -0.8414  H       1  <O>11       0.0624
  38 H10      11.5794    -3.8955    -4.5154  H       1  <O>11       0.0621
  39 H11      12.9603    -5.4655    -3.2823  H       1  <O>11       0.0618
  40 H12      12.7766    -5.6137    -0.8618  H       1  <O>11       0.0618
  41 H13      11.2076    -4.1830     0.3164  H       1  <O>11       0.0618
  42 H14       9.8261    -2.6086    -0.8997  H       1  <O>11       0.0621
  43 H15       8.9948     0.0324    -4.9222  H       1  <O>11       0.0621
  44 H16      10.3991     1.5831    -6.1543  H       1  <O>11       0.0618
  45 H17      12.8050     1.2405    -6.2486  H       1  <O>11       0.0618
  46 H18      13.7960    -0.6597    -5.1056  H       1  <O>11       0.0618
  47 H19      12.4076    -2.2127    -3.8699  H       1  <O>11       0.0621
@<TRIPOS>BOND
     1     1     2    2
     2     2     3   am
     3     3     4    1
     4     4     5    1
     5     5     6   ar
     6     6     7   ar
     7     7     8   ar
     8     8     9    2
     9     8    10   ar
    10    10    11   ar
    11    11    12   ar
    12    12    13   ar
    13    13    14   ar
    14    14    15   ar
    15     5    15   ar
    16    10    15   ar
    17     2    16    1
    18    16    17    1
    19    17    18   ar
    20    18    19   ar
    21    19    20   ar
    22    20    21   ar
    23    21    22   ar
    24    17    22   ar
    25    16    23    1
    26    23    24   ar
    27    24    25   ar
    28    25    26   ar
    29    26    27   ar
    30    27    28   ar
    31    23    28   ar
    32     3    29    1
    33     4    30    1
    34     4    31    1
    35     7    32    1
    36    16    33    1
    37    11    34    1
    38    12    35    1
    39    13    36    1
    40    14    37    1
    41    18    38    1
    42    19    39    1
    43    20    40    1
    44    21    41    1
    45    22    42    1
    46    24    43    1
    47    25    44    1
    48    26    45    1
    49    27    46    1
    50    28    47    1
