@<TRIPOS>MOLECULE
mol14_1_1
 30 32 0 0 0
SMALL
USER_CHARGES
****
VDW energy = -45.34
@<TRIPOS>ATOM
   1 O1        6.7938    -0.2446    -2.0599  O.2     1  <O>11      -0.2658
   2 C1        7.4213     0.9528    -1.6663  C.ar    1  <O>11       0.2725
   3 N1        6.7347     1.7343    -0.7968  N.ar    1  <O>11      -0.2425
   4 N2        7.2340     2.9457    -0.4598  N.ar    1  <O>11      -0.1750
   5 C2        8.4134     3.3437    -0.9933  C.ar    1  <O>11       0.0736
   6 C3        8.8350     4.7170    -0.6550  C.3     1  <O>11       0.0185
   7 C4        8.3028     5.6629    -1.6702  C.ar    1  <O>11      -0.0232
   8 C5        9.0548     5.9686    -2.8167  C.ar    1  <O>11      -0.0568
   9 C6        8.5581     6.8700    -3.7667  C.ar    1  <O>11      -0.0614
  10 C7        7.3088     7.4673    -3.5834  C.ar    1  <O>11      -0.0604
  11 C8        6.5561     7.1568    -2.4440  C.ar    1  <O>11      -0.0431
  12 C9        7.0433     6.2596    -1.4919  C.ar    1  <O>11       0.0445
  13 Cl1       6.0957     5.8647    -0.0654  Cl      1  <O>11      -0.0832
  14 C10       9.2100     2.5349    -1.8162  C.ar    1  <O>11       0.0106
  15 C11      10.4688     2.9255    -2.3277  C.ar    1  <O>11      -0.0521
  16 C12      11.1965     2.0826    -3.1684  C.ar    1  <O>11      -0.0611
  17 C13      10.6797     0.8410    -3.5204  C.ar    1  <O>11      -0.0610
  18 C14       9.4353     0.4418    -3.0314  C.ar    1  <O>11      -0.0487
  19 C15       8.6875     1.2787    -2.1714  C.ar    1  <O>11       0.0496
  20 H1        5.8603     1.4136    -0.4062  H       1  <O>11       0.1921
  21 H2        9.9243     4.7707    -0.6448  H       1  <O>11       0.0378
  22 H3        8.4489     4.9842     0.3287  H       1  <O>11       0.0378
  23 H4        9.9768     5.5275    -2.9595  H       1  <O>11       0.0621
  24 H5        9.1170     7.0935    -4.6050  H       1  <O>11       0.0618
  25 H6        6.9431     8.1326    -4.2824  H       1  <O>11       0.0618
  26 H7        5.6321     7.5955    -2.3069  H       1  <O>11       0.0632
  27 H8       10.8555     3.8484    -2.0753  H       1  <O>11       0.0624
  28 H9       12.1168     2.3803    -3.5283  H       1  <O>11       0.0618
  29 H10      11.2155     0.2156    -4.1423  H       1  <O>11       0.0618
  30 H11       9.0548    -0.4786    -3.3016  H       1  <O>11       0.0625
@<TRIPOS>BOND
     1     1     2    2
     2     2     3   ar
     3     3     4   ar
     4     4     5   ar
     5     5     6    1
     6     6     7    1
     7     7     8   ar
     8     8     9   ar
     9     9    10   ar
    10    10    11   ar
    11    11    12   ar
    12     7    12   ar
    13    12    13    1
    14     5    14   ar
    15    14    15   ar
    16    15    16   ar
    17    16    17   ar
    18    17    18   ar
    19    18    19   ar
    20     2    19   ar
    21    14    19   ar
    22     3    20    1
    23     6    21    1
    24     6    22    1
    25     8    23    1
    26     9    24    1
    27    10    25    1
    28    11    26    1
    29    15    27    1
    30    16    28    1
    31    17    29    1
    32    18    30    1
@<TRIPOS>MOLECULE
mol14_1_2
 30 32 0 0 0
SMALL
USER_CHARGES
****
VDW energy = -44.99
@<TRIPOS>ATOM
   1 O1        6.7938    -0.2446    -2.0599  O.2     1  <O>11      -0.2658
   2 C1        7.4213     0.9528    -1.6663  C.ar    1  <O>11       0.2725
   3 N1        6.7347     1.7343    -0.7968  N.ar    1  <O>11      -0.2425
   4 N2        7.2340     2.9457    -0.4598  N.ar    1  <O>11      -0.1750
   5 C2        8.4134     3.3437    -0.9933  C.ar    1  <O>11       0.0736
   6 C3        8.8350     4.7170    -0.6550  C.3     1  <O>11       0.0185
   7 C4        7.8150     5.3460     0.2240  C.ar    1  <O>11      -0.0232
   8 C5        6.7457     6.0660    -0.3343  C.ar    1  <O>11      -0.0568
   9 C6        5.7919     6.6693     0.4953  C.ar    1  <O>11      -0.0614
  10 C7        5.8945     6.5548     1.8836  C.ar    1  <O>11      -0.0604
  11 C8        6.9565     5.8308     2.4397  C.ar    1  <O>11      -0.0431
  12 C9        7.9117     5.2262     1.6206  C.ar    1  <O>11       0.0445
  13 Cl1       9.2407     4.3120     2.3182  Cl      1  <O>11      -0.0832
  14 C10       9.2100     2.5349    -1.8162  C.ar    1  <O>11       0.0106
  15 C11      10.4688     2.9255    -2.3277  C.ar    1  <O>11      -0.0521
  16 C12      11.1965     2.0826    -3.1684  C.ar    1  <O>11      -0.0611
  17 C13      10.6797     0.8410    -3.5204  C.ar    1  <O>11      -0.0610
  18 C14       9.4353     0.4418    -3.0314  C.ar    1  <O>11      -0.0487
  19 C15       8.6875     1.2787    -2.1714  C.ar    1  <O>11       0.0496
  20 H1        5.8603     1.4136    -0.4062  H       1  <O>11       0.1921
  21 H2        8.9360     5.3020    -1.5700  H       1  <O>11       0.0378
  22 H3        9.7930     4.6860    -0.1360  H       1  <O>11       0.0378
  23 H4        6.6625     6.1507    -1.3594  H       1  <O>11       0.0621
  24 H5        5.0108     7.2002     0.0793  H       1  <O>11       0.0618
  25 H6        5.1927     7.0004     2.4952  H       1  <O>11       0.0618
  26 H7        7.0337     5.7434     3.4651  H       1  <O>11       0.0632
  27 H8       10.8555     3.8484    -2.0753  H       1  <O>11       0.0624
  28 H9       12.1168     2.3803    -3.5283  H       1  <O>11       0.0618
  29 H10      11.2155     0.2156    -4.1423  H       1  <O>11       0.0618
  30 H11       9.0548    -0.4786    -3.3016  H       1  <O>11       0.0625
@<TRIPOS>BOND
     1     1     2    2
     2     2     3   ar
     3     3     4   ar
     4     4     5   ar
     5     5     6    1
     6     6     7    1
     7     7     8   ar
     8     8     9   ar
     9     9    10   ar
    10    10    11   ar
    11    11    12   ar
    12     7    12   ar
    13    12    13    1
    14     5    14   ar
    15    14    15   ar
    16    15    16   ar
    17    16    17   ar
    18    17    18   ar
    19    18    19   ar
    20     2    19   ar
    21    14    19   ar
    22     3    20    1
    23     6    21    1
    24     6    22    1
    25     8    23    1
    26     9    24    1
    27    10    25    1
    28    11    26    1
    29    15    27    1
    30    16    28    1
    31    17    29    1
    32    18    30    1
@<TRIPOS>MOLECULE
mol14_1_3
 30 32 0 0 0
SMALL
USER_CHARGES
****
VDW energy = -44.86
@<TRIPOS>ATOM
   1 O1        6.7938    -0.2446    -2.0599  O.2     1  <O>11      -0.2658
   2 C1        7.4213     0.9528    -1.6663  C.ar    1  <O>11       0.2725
   3 N1        6.7347     1.7343    -0.7968  N.ar    1  <O>11      -0.2425
   4 N2        7.2340     2.9457    -0.4598  N.ar    1  <O>11      -0.1750
   5 C2        8.4134     3.3437    -0.9933  C.ar    1  <O>11       0.0736
   6 C3        8.8350     4.7170    -0.6550  C.3     1  <O>11       0.0185
   7 C4        7.8150     5.3460     0.2240  C.ar    1  <O>11      -0.0232
   8 C5        7.9119     5.2257     1.6203  C.ar    1  <O>11      -0.0568
   9 C6        6.9431     5.8080     2.4475  C.ar    1  <O>11      -0.0614
  10 C7        5.8765     6.5169     1.8899  C.ar    1  <O>11      -0.0604
  11 C8        5.7842     6.6429     0.4982  C.ar    1  <O>11      -0.0431
  12 C9        6.7451     6.0659    -0.3339  C.ar    1  <O>11       0.0445
  13 Cl1       6.6329     6.2298    -2.0802  Cl      1  <O>11      -0.0832
  14 C10       9.2100     2.5349    -1.8162  C.ar    1  <O>11       0.0106
  15 C11      10.4688     2.9255    -2.3277  C.ar    1  <O>11      -0.0521
  16 C12      11.1965     2.0826    -3.1684  C.ar    1  <O>11      -0.0611
  17 C13      10.6797     0.8410    -3.5204  C.ar    1  <O>11      -0.0610
  18 C14       9.4353     0.4418    -3.0314  C.ar    1  <O>11      -0.0487
  19 C15       8.6875     1.2787    -2.1714  C.ar    1  <O>11       0.0496
  20 H1        5.8603     1.4136    -0.4062  H       1  <O>11       0.1921
  21 H2        8.9360     5.3020    -1.5700  H       1  <O>11       0.0378
  22 H3        9.7930     4.6860    -0.1360  H       1  <O>11       0.0378
  23 H4        8.6997     4.7064     2.0381  H       1  <O>11       0.0621
  24 H5        7.0176     5.7128     3.4724  H       1  <O>11       0.0618
  25 H6        5.1618     6.9448     2.4991  H       1  <O>11       0.0618
  26 H7        4.9981     7.1676     0.0838  H       1  <O>11       0.0632
  27 H8       10.8555     3.8484    -2.0753  H       1  <O>11       0.0624
  28 H9       12.1168     2.3803    -3.5283  H       1  <O>11       0.0618
  29 H10      11.2155     0.2156    -4.1423  H       1  <O>11       0.0618
  30 H11       9.0548    -0.4786    -3.3016  H       1  <O>11       0.0625
@<TRIPOS>BOND
     1     1     2    2
     2     2     3   ar
     3     3     4   ar
     4     4     5   ar
     5     5     6    1
     6     6     7    1
     7     7     8   ar
     8     8     9   ar
     9     9    10   ar
    10    10    11   ar
    11    11    12   ar
    12     7    12   ar
    13    12    13    1
    14     5    14   ar
    15    14    15   ar
    16    15    16   ar
    17    16    17   ar
    18    17    18   ar
    19    18    19   ar
    20     2    19   ar
    21    14    19   ar
    22     3    20    1
    23     6    21    1
    24     6    22    1
    25     8    23    1
    26     9    24    1
    27    10    25    1
    28    11    26    1
    29    15    27    1
    30    16    28    1
    31    17    29    1
    32    18    30    1
@<TRIPOS>MOLECULE
mol14_1_4
 30 32 0 0 0
SMALL
USER_CHARGES
****
VDW energy = -43.82
@<TRIPOS>ATOM
   1 O1        6.7938    -0.2446    -2.0599  O.2     1  <O>11      -0.2658
   2 C1        7.4213     0.9528    -1.6663  C.ar    1  <O>11       0.2725
   3 N1        6.7347     1.7343    -0.7968  N.ar    1  <O>11      -0.2425
   4 N2        7.2340     2.9457    -0.4598  N.ar    1  <O>11      -0.1750
   5 C2        8.4134     3.3437    -0.9933  C.ar    1  <O>11       0.0736
   6 C3        8.8350     4.7170    -0.6550  C.3     1  <O>11       0.0185
   7 C4        9.6503     4.6931     0.5874  C.ar    1  <O>11      -0.0232
   8 C5       11.0444     4.5358     0.5169  C.ar    1  <O>11      -0.0568
   9 C6       11.8106     4.5005     1.6889  C.ar    1  <O>11      -0.0614
  10 C7       11.1941     4.6268     2.9360  C.ar    1  <O>11      -0.0604
  11 C8        9.8051     4.7908     3.0056  C.ar    1  <O>11      -0.0431
  12 C9        9.0336     4.8271     1.8427  C.ar    1  <O>11       0.0445
  13 Cl1       7.2912     5.0399     1.9298  Cl      1  <O>11      -0.0832
  14 C10       9.2100     2.5349    -1.8162  C.ar    1  <O>11       0.0106
  15 C11      10.4688     2.9255    -2.3277  C.ar    1  <O>11      -0.0521
  16 C12      11.1965     2.0826    -3.1684  C.ar    1  <O>11      -0.0611
  17 C13      10.6797     0.8410    -3.5204  C.ar    1  <O>11      -0.0610
  18 C14       9.4353     0.4418    -3.0314  C.ar    1  <O>11      -0.0487
  19 C15       8.6875     1.2787    -2.1714  C.ar    1  <O>11       0.0496
  20 H1        5.8603     1.4136    -0.4062  H       1  <O>11       0.1921
  21 H2        7.9533     5.3397    -0.4986  H       1  <O>11       0.0378
  22 H3        9.4290     5.1268    -1.4719  H       1  <O>11       0.0378
  23 H4       11.5059     4.4459    -0.4018  H       1  <O>11       0.0621
  24 H5       12.8340     4.3808     1.6308  H       1  <O>11       0.0618
  25 H6       11.7582     4.5993     3.7997  H       1  <O>11       0.0618
  26 H7        9.3474     4.8859     3.9256  H       1  <O>11       0.0632
  27 H8       10.8555     3.8484    -2.0753  H       1  <O>11       0.0624
  28 H9       12.1168     2.3803    -3.5283  H       1  <O>11       0.0618
  29 H10      11.2155     0.2156    -4.1423  H       1  <O>11       0.0618
  30 H11       9.0548    -0.4786    -3.3016  H       1  <O>11       0.0625
@<TRIPOS>BOND
     1     1     2    2
     2     2     3   ar
     3     3     4   ar
     4     4     5   ar
     5     5     6    1
     6     6     7    1
     7     7     8   ar
     8     8     9   ar
     9     9    10   ar
    10    10    11   ar
    11    11    12   ar
    12     7    12   ar
    13    12    13    1
    14     5    14   ar
    15    14    15   ar
    16    15    16   ar
    17    16    17   ar
    18    17    18   ar
    19    18    19   ar
    20     2    19   ar
    21    14    19   ar
    22     3    20    1
    23     6    21    1
    24     6    22    1
    25     8    23    1
    26     9    24    1
    27    10    25    1
    28    11    26    1
    29    15    27    1
    30    16    28    1
    31    17    29    1
    32    18    30    1
@<TRIPOS>MOLECULE
mol14_1_5
 30 32 0 0 0
SMALL
USER_CHARGES
****
VDW energy = -43.14
@<TRIPOS>ATOM
   1 O1        6.7938    -0.2446    -2.0599  O.2     1  <O>11      -0.2658
   2 C1        7.4213     0.9528    -1.6663  C.ar    1  <O>11       0.2725
   3 N1        6.7347     1.7343    -0.7968  N.ar    1  <O>11      -0.2425
   4 N2        7.2340     2.9457    -0.4598  N.ar    1  <O>11      -0.1750
   5 C2        8.4134     3.3437    -0.9933  C.ar    1  <O>11       0.0736
   6 C3        8.8350     4.7170    -0.6550  C.3     1  <O>11       0.0185
   7 C4        9.6503     4.6931     0.5874  C.ar    1  <O>11      -0.0232
   8 C5        9.6675     3.5483     1.4015  C.ar    1  <O>11      -0.0568
   9 C6       10.4260     3.5312     2.5788  C.ar    1  <O>11      -0.0614
  10 C7       11.1750     4.6507     2.9490  C.ar    1  <O>11      -0.0604
  11 C8       11.1633     5.7891     2.1335  C.ar    1  <O>11      -0.0431
  12 C9       10.4102     5.8151     0.9583  C.ar    1  <O>11       0.0445
  13 Cl1      10.4011     7.2413    -0.0686  Cl      1  <O>11      -0.0832
  14 C10       9.2100     2.5349    -1.8162  C.ar    1  <O>11       0.0106
  15 C11      10.4688     2.9255    -2.3277  C.ar    1  <O>11      -0.0521
  16 C12      11.1965     2.0826    -3.1684  C.ar    1  <O>11      -0.0611
  17 C13      10.6797     0.8410    -3.5204  C.ar    1  <O>11      -0.0610
  18 C14       9.4353     0.4418    -3.0314  C.ar    1  <O>11      -0.0487
  19 C15       8.6875     1.2787    -2.1714  C.ar    1  <O>11       0.0496
  20 H1        5.8603     1.4136    -0.4062  H       1  <O>11       0.1921
  21 H2        7.9533     5.3397    -0.4986  H       1  <O>11       0.0378
  22 H3        9.4290     5.1268    -1.4719  H       1  <O>11       0.0378
  23 H4        9.1193     2.7169     1.1311  H       1  <O>11       0.0621
  24 H5       10.4316     2.6887     3.1747  H       1  <O>11       0.0618
  25 H6       11.7328     4.6389     3.8172  H       1  <O>11       0.0618
  26 H7       11.7170     6.6169     2.4039  H       1  <O>11       0.0632
  27 H8       10.8555     3.8484    -2.0753  H       1  <O>11       0.0624
  28 H9       12.1168     2.3803    -3.5283  H       1  <O>11       0.0618
  29 H10      11.2155     0.2156    -4.1423  H       1  <O>11       0.0618
  30 H11       9.0548    -0.4786    -3.3016  H       1  <O>11       0.0625
@<TRIPOS>BOND
     1     1     2    2
     2     2     3   ar
     3     3     4   ar
     4     4     5   ar
     5     5     6    1
     6     6     7    1
     7     7     8   ar
     8     8     9   ar
     9     9    10   ar
    10    10    11   ar
    11    11    12   ar
    12     7    12   ar
    13    12    13    1
    14     5    14   ar
    15    14    15   ar
    16    15    16   ar
    17    16    17   ar
    18    17    18   ar
    19    18    19   ar
    20     2    19   ar
    21    14    19   ar
    22     3    20    1
    23     6    21    1
    24     6    22    1
    25     8    23    1
    26     9    24    1
    27    10    25    1
    28    11    26    1
    29    15    27    1
    30    16    28    1
    31    17    29    1
    32    18    30    1
@<TRIPOS>MOLECULE
mol14_1_6
 30 32 0 0 0
SMALL
USER_CHARGES
****
VDW energy = -41.93
@<TRIPOS>ATOM
   1 O1        6.7938    -0.2446    -2.0599  O.2     1  <O>11      -0.2658
   2 C1        7.4213     0.9528    -1.6663  C.ar    1  <O>11       0.2725
   3 N1        6.7347     1.7343    -0.7968  N.ar    1  <O>11      -0.2425
   4 N2        7.2340     2.9457    -0.4598  N.ar    1  <O>11      -0.1750
   5 C2        8.4134     3.3437    -0.9933  C.ar    1  <O>11       0.0736
   6 C3        8.8350     4.7170    -0.6550  C.3     1  <O>11       0.0185
   7 C4        8.3028     5.6629    -1.6702  C.ar    1  <O>11      -0.0232
   8 C5        7.7864     5.1817    -2.8849  C.ar    1  <O>11      -0.0568
   9 C6        7.2968     6.0747    -3.8465  C.ar    1  <O>11      -0.0614
  10 C7        7.3137     7.4499    -3.6021  C.ar    1  <O>11      -0.0604
  11 C8        7.8218     7.9288    -2.3882  C.ar    1  <O>11      -0.0431
  12 C9        8.3119     7.0461    -1.4241  C.ar    1  <O>11       0.0445
  13 Cl1       8.9433     7.6468     0.1022  Cl      1  <O>11      -0.0832
  14 C10       9.2100     2.5349    -1.8162  C.ar    1  <O>11       0.0106
  15 C11      10.4688     2.9255    -2.3277  C.ar    1  <O>11      -0.0521
  16 C12      11.1965     2.0826    -3.1684  C.ar    1  <O>11      -0.0611
  17 C13      10.6797     0.8410    -3.5204  C.ar    1  <O>11      -0.0610
  18 C14       9.4353     0.4418    -3.0314  C.ar    1  <O>11      -0.0487
  19 C15       8.6875     1.2787    -2.1714  C.ar    1  <O>11       0.0496
  20 H1        5.8603     1.4136    -0.4062  H       1  <O>11       0.1921
  21 H2        9.9243     4.7707    -0.6448  H       1  <O>11       0.0378
  22 H3        8.4489     4.9842     0.3287  H       1  <O>11       0.0378
  23 H4        7.7677     4.1666    -3.0694  H       1  <O>11       0.0621
  24 H5        6.9223     5.7154    -4.7384  H       1  <O>11       0.0618
  25 H6        6.9544     8.1082    -4.3110  H       1  <O>11       0.0618
  26 H7        7.8340     8.9443    -2.2046  H       1  <O>11       0.0632
  27 H8       10.8555     3.8484    -2.0753  H       1  <O>11       0.0624
  28 H9       12.1168     2.3803    -3.5283  H       1  <O>11       0.0618
  29 H10      11.2155     0.2156    -4.1423  H       1  <O>11       0.0618
  30 H11       9.0548    -0.4786    -3.3016  H       1  <O>11       0.0625
@<TRIPOS>BOND
     1     1     2    2
     2     2     3   ar
     3     3     4   ar
     4     4     5   ar
     5     5     6    1
     6     6     7    1
     7     7     8   ar
     8     8     9   ar
     9     9    10   ar
    10    10    11   ar
    11    11    12   ar
    12     7    12   ar
    13    12    13    1
    14     5    14   ar
    15    14    15   ar
    16    15    16   ar
    17    16    17   ar
    18    17    18   ar
    19    18    19   ar
    20     2    19   ar
    21    14    19   ar
    22     3    20    1
    23     6    21    1
    24     6    22    1
    25     8    23    1
    26     9    24    1
    27    10    25    1
    28    11    26    1
    29    15    27    1
    30    16    28    1
    31    17    29    1
    32    18    30    1
@<TRIPOS>MOLECULE
mol14_1_7
 30 32 0 0 0
SMALL
USER_CHARGES
****
VDW energy = -39.81
@<TRIPOS>ATOM
   1 O1        6.7938    -0.2446    -2.0599  O.2     1  <O>11      -0.2658
   2 C1        7.4213     0.9528    -1.6663  C.ar    1  <O>11       0.2725
   3 N1        6.7347     1.7343    -0.7968  N.ar    1  <O>11      -0.2425
   4 N2        7.2340     2.9457    -0.4598  N.ar    1  <O>11      -0.1750
   5 C2        8.4134     3.3437    -0.9933  C.ar    1  <O>11       0.0736
   6 C3        8.8350     4.7170    -0.6550  C.3     1  <O>11       0.0185
   7 C4        8.9738     5.5139    -1.9017  C.ar    1  <O>11      -0.0232
   8 C5       10.2104     6.0869    -2.2423  C.ar    1  <O>11      -0.0568
   9 C6       10.3372     6.8485    -3.4110  C.ar    1  <O>11      -0.0614
  10 C7        9.2359     7.0392    -4.2488  C.ar    1  <O>11      -0.0604
  11 C8        8.0051     6.4619    -3.9128  C.ar    1  <O>11      -0.0431
  12 C9        7.8695     5.7013    -2.7500  C.ar    1  <O>11       0.0445
  13 Cl1       6.3265     4.9711    -2.3318  Cl      1  <O>11      -0.0832
  14 C10       9.2100     2.5349    -1.8162  C.ar    1  <O>11       0.0106
  15 C11      10.4688     2.9255    -2.3277  C.ar    1  <O>11      -0.0521
  16 C12      11.1965     2.0826    -3.1684  C.ar    1  <O>11      -0.0611
  17 C13      10.6797     0.8410    -3.5204  C.ar    1  <O>11      -0.0610
  18 C14       9.4353     0.4418    -3.0314  C.ar    1  <O>11      -0.0487
  19 C15       8.6875     1.2787    -2.1714  C.ar    1  <O>11       0.0496
  20 H1        5.8603     1.4136    -0.4062  H       1  <O>11       0.1921
  21 H2        9.7937     4.6854    -0.1359  H       1  <O>11       0.0378
  22 H3        8.0875     5.1785    -0.0097  H       1  <O>11       0.0378
  23 H4       11.0285     5.9461    -1.6292  H       1  <O>11       0.0621
  24 H5       11.2473     7.2700    -3.6538  H       1  <O>11       0.0618
  25 H6        9.3286     7.6015    -5.1091  H       1  <O>11       0.0618
  26 H7        7.1903     6.6000    -4.5309  H       1  <O>11       0.0632
  27 H8       10.8555     3.8484    -2.0753  H       1  <O>11       0.0624
  28 H9       12.1168     2.3803    -3.5283  H       1  <O>11       0.0618
  29 H10      11.2155     0.2156    -4.1423  H       1  <O>11       0.0618
  30 H11       9.0548    -0.4786    -3.3016  H       1  <O>11       0.0625
@<TRIPOS>BOND
     1     1     2    2
     2     2     3   ar
     3     3     4   ar
     4     4     5   ar
     5     5     6    1
     6     6     7    1
     7     7     8   ar
     8     8     9   ar
     9     9    10   ar
    10    10    11   ar
    11    11    12   ar
    12     7    12   ar
    13    12    13    1
    14     5    14   ar
    15    14    15   ar
    16    15    16   ar
    17    16    17   ar
    18    17    18   ar
    19    18    19   ar
    20     2    19   ar
    21    14    19   ar
    22     3    20    1
    23     6    21    1
    24     6    22    1
    25     8    23    1
    26     9    24    1
    27    10    25    1
    28    11    26    1
    29    15    27    1
    30    16    28    1
    31    17    29    1
    32    18    30    1
@<TRIPOS>MOLECULE
mol14_1_8
 30 32 0 0 0
SMALL
USER_CHARGES
****
VDW energy = -37.57
@<TRIPOS>ATOM
   1 O1        6.7938    -0.2446    -2.0599  O.2     1  <O>11      -0.2658
   2 C1        7.4213     0.9528    -1.6663  C.ar    1  <O>11       0.2725
   3 N1        6.7347     1.7343    -0.7968  N.ar    1  <O>11      -0.2425
   4 N2        7.2340     2.9457    -0.4598  N.ar    1  <O>11      -0.1750
   5 C2        8.4134     3.3437    -0.9933  C.ar    1  <O>11       0.0736
   6 C3        8.8350     4.7170    -0.6550  C.3     1  <O>11       0.0185
   7 C4       10.1408     4.6740     0.0534  C.ar    1  <O>11      -0.0232
   8 C5       11.2603     5.3307    -0.4840  C.ar    1  <O>11      -0.0568
   9 C6       12.4936     5.2790     0.1777  C.ar    1  <O>11      -0.0614
  10 C7       12.6178     4.5783     1.3797  C.ar    1  <O>11      -0.0604
  11 C8       11.4999     3.9298     1.9190  C.ar    1  <O>11      -0.0431
  12 C9       10.2667     3.9760     1.2663  C.ar    1  <O>11       0.0445
  13 Cl1       8.8620     3.1679     1.9466  Cl      1  <O>11      -0.0832
  14 C10       9.2100     2.5349    -1.8162  C.ar    1  <O>11       0.0106
  15 C11      10.4688     2.9255    -2.3277  C.ar    1  <O>11      -0.0521
  16 C12      11.1965     2.0826    -3.1684  C.ar    1  <O>11      -0.0611
  17 C13      10.6797     0.8410    -3.5204  C.ar    1  <O>11      -0.0610
  18 C14       9.4353     0.4418    -3.0314  C.ar    1  <O>11      -0.0487
  19 C15       8.6875     1.2787    -2.1714  C.ar    1  <O>11       0.0496
  20 H1        5.8603     1.4136    -0.4062  H       1  <O>11       0.1921
  21 H2        8.0868     5.1782    -0.0092  H       1  <O>11       0.0378
  22 H3        8.9363     5.3020    -1.5691  H       1  <O>11       0.0378
  23 H4       11.1737     5.8532    -1.3697  H       1  <O>11       0.0621
  24 H5       13.3134     5.7602    -0.2241  H       1  <O>11       0.0618
  25 H6       13.5267     4.5388     1.8668  H       1  <O>11       0.0618
  26 H7       11.5885     3.4128     2.8077  H       1  <O>11       0.0632
  27 H8       10.8555     3.8484    -2.0753  H       1  <O>11       0.0624
  28 H9       12.1168     2.3803    -3.5283  H       1  <O>11       0.0618
  29 H10      11.2155     0.2156    -4.1423  H       1  <O>11       0.0618
  30 H11       9.0548    -0.4786    -3.3016  H       1  <O>11       0.0625
@<TRIPOS>BOND
     1     1     2    2
     2     2     3   ar
     3     3     4   ar
     4     4     5   ar
     5     5     6    1
     6     6     7    1
     7     7     8   ar
     8     8     9   ar
     9     9    10   ar
    10    10    11   ar
    11    11    12   ar
    12     7    12   ar
    13    12    13    1
    14     5    14   ar
    15    14    15   ar
    16    15    16   ar
    17    16    17   ar
    18    17    18   ar
    19    18    19   ar
    20     2    19   ar
    21    14    19   ar
    22     3    20    1
    23     6    21    1
    24     6    22    1
    25     8    23    1
    26     9    24    1
    27    10    25    1
    28    11    26    1
    29    15    27    1
    30    16    28    1
    31    17    29    1
    32    18    30    1
@<TRIPOS>MOLECULE
mol14_1_9
 30 32 0 0 0
SMALL
USER_CHARGES
****
VDW energy = -35.84
@<TRIPOS>ATOM
   1 O1        6.7938    -0.2446    -2.0599  O.2     1  <O>11      -0.2658
   2 C1        7.4213     0.9528    -1.6663  C.ar    1  <O>11       0.2725
   3 N1        6.7347     1.7343    -0.7968  N.ar    1  <O>11      -0.2425
   4 N2        7.2340     2.9457    -0.4598  N.ar    1  <O>11      -0.1750
   5 C2        8.4134     3.3437    -0.9933  C.ar    1  <O>11       0.0736
   6 C3        8.8350     4.7170    -0.6550  C.3     1  <O>11       0.0185
   7 C4       10.1408     4.6740     0.0534  C.ar    1  <O>11      -0.0232
   8 C5       10.6322     3.4594     0.5601  C.ar    1  <O>11      -0.0568
   9 C6       11.8569     3.4221     1.2388  C.ar    1  <O>11      -0.0614
  10 C7       12.6007     4.5916     1.4120  C.ar    1  <O>11      -0.0604
  11 C8       12.1140     5.8010     0.9005  C.ar    1  <O>11      -0.0431
  12 C9       10.8944     5.8476     0.2227  C.ar    1  <O>11       0.0445
  13 Cl1      10.2869     7.3642    -0.4252  Cl      1  <O>11      -0.0832
  14 C10       9.2100     2.5349    -1.8162  C.ar    1  <O>11       0.0106
  15 C11      10.4688     2.9255    -2.3277  C.ar    1  <O>11      -0.0521
  16 C12      11.1965     2.0826    -3.1684  C.ar    1  <O>11      -0.0611
  17 C13      10.6797     0.8410    -3.5204  C.ar    1  <O>11      -0.0610
  18 C14       9.4353     0.4418    -3.0314  C.ar    1  <O>11      -0.0487
  19 C15       8.6875     1.2787    -2.1714  C.ar    1  <O>11       0.0496
  20 H1        5.8603     1.4136    -0.4062  H       1  <O>11       0.1921
  21 H2        8.0868     5.1782    -0.0092  H       1  <O>11       0.0378
  22 H3        8.9363     5.3020    -1.5691  H       1  <O>11       0.0378
  23 H4       10.0889     2.5915     0.4318  H       1  <O>11       0.0621
  24 H5       12.2108     2.5274     1.6121  H       1  <O>11       0.0618
  25 H6       13.5023     4.5647     1.9133  H       1  <O>11       0.0618
  26 H7       12.6624     6.6662     1.0257  H       1  <O>11       0.0632
  27 H8       10.8555     3.8484    -2.0753  H       1  <O>11       0.0624
  28 H9       12.1168     2.3803    -3.5283  H       1  <O>11       0.0618
  29 H10      11.2155     0.2156    -4.1423  H       1  <O>11       0.0618
  30 H11       9.0548    -0.4786    -3.3016  H       1  <O>11       0.0625
@<TRIPOS>BOND
     1     1     2    2
     2     2     3   ar
     3     3     4   ar
     4     4     5   ar
     5     5     6    1
     6     6     7    1
     7     7     8   ar
     8     8     9   ar
     9     9    10   ar
    10    10    11   ar
    11    11    12   ar
    12     7    12   ar
    13    12    13    1
    14     5    14   ar
    15    14    15   ar
    16    15    16   ar
    17    16    17   ar
    18    17    18   ar
    19    18    19   ar
    20     2    19   ar
    21    14    19   ar
    22     3    20    1
    23     6    21    1
    24     6    22    1
    25     8    23    1
    26     9    24    1
    27    10    25    1
    28    11    26    1
    29    15    27    1
    30    16    28    1
    31    17    29    1
    32    18    30    1
@<TRIPOS>MOLECULE
mol14_1_10
 30 32 0 0 0
SMALL
USER_CHARGES
****
VDW energy = -33.71
@<TRIPOS>ATOM
   1 O1        6.7938    -0.2446    -2.0599  O.2     1  <O>11      -0.2658
   2 C1        7.4213     0.9528    -1.6663  C.ar    1  <O>11       0.2725
   3 N1        6.7347     1.7343    -0.7968  N.ar    1  <O>11      -0.2425
   4 N2        7.2340     2.9457    -0.4598  N.ar    1  <O>11      -0.1750
   5 C2        8.4134     3.3437    -0.9933  C.ar    1  <O>11       0.0736
   6 C3        8.8350     4.7170    -0.6550  C.3     1  <O>11       0.0185
   7 C4        7.8150     5.3460     0.2240  C.ar    1  <O>11      -0.0232
   8 C5        8.1648     5.7898     1.5101  C.ar    1  <O>11      -0.0568
   9 C6        7.1999     6.3708     2.3427  C.ar    1  <O>11      -0.0614
  10 C7        5.8840     6.5179     1.8979  C.ar    1  <O>11      -0.0604
  11 C8        5.5372     6.0821     0.6130  C.ar    1  <O>11      -0.0431
  12 C9        6.4923     5.5018    -0.2236  C.ar    1  <O>11       0.0445
  13 Cl1       6.0587     4.9610    -1.8387  Cl      1  <O>11      -0.0832
  14 C10       9.2100     2.5349    -1.8162  C.ar    1  <O>11       0.0106
  15 C11      10.4688     2.9255    -2.3277  C.ar    1  <O>11      -0.0521
  16 C12      11.1965     2.0826    -3.1684  C.ar    1  <O>11      -0.0611
  17 C13      10.6797     0.8410    -3.5204  C.ar    1  <O>11      -0.0610
  18 C14       9.4353     0.4418    -3.0314  C.ar    1  <O>11      -0.0487
  19 C15       8.6875     1.2787    -2.1714  C.ar    1  <O>11       0.0496
  20 H1        5.8603     1.4136    -0.4062  H       1  <O>11       0.1921
  21 H2        8.9360     5.3020    -1.5700  H       1  <O>11       0.0378
  22 H3        9.7930     4.6860    -0.1360  H       1  <O>11       0.0378
  23 H4        9.1363     5.6873     1.8428  H       1  <O>11       0.0621
  24 H5        7.4621     6.6914     3.2880  H       1  <O>11       0.0618
  25 H6        5.1725     6.9446     2.5116  H       1  <O>11       0.0618
  26 H7        4.5661     6.1910     0.2813  H       1  <O>11       0.0632
  27 H8       10.8555     3.8484    -2.0753  H       1  <O>11       0.0624
  28 H9       12.1168     2.3803    -3.5283  H       1  <O>11       0.0618
  29 H10      11.2155     0.2156    -4.1423  H       1  <O>11       0.0618
  30 H11       9.0548    -0.4786    -3.3016  H       1  <O>11       0.0625
@<TRIPOS>BOND
     1     1     2    2
     2     2     3   ar
     3     3     4   ar
     4     4     5   ar
     5     5     6    1
     6     6     7    1
     7     7     8   ar
     8     8     9   ar
     9     9    10   ar
    10    10    11   ar
    11    11    12   ar
    12     7    12   ar
    13    12    13    1
    14     5    14   ar
    15    14    15   ar
    16    15    16   ar
    17    16    17   ar
    18    17    18   ar
    19    18    19   ar
    20     2    19   ar
    21    14    19   ar
    22     3    20    1
    23     6    21    1
    24     6    22    1
    25     8    23    1
    26     9    24    1
    27    10    25    1
    28    11    26    1
    29    15    27    1
    30    16    28    1
    31    17    29    1
    32    18    30    1
@<TRIPOS>MOLECULE
mol14_1_11
 30 32 0 0 0
SMALL
USER_CHARGES
****
VDW energy = -33.25
@<TRIPOS>ATOM
   1 O1        6.7938    -0.2446    -2.0599  O.2     1  <O>11      -0.2658
   2 C1        7.4213     0.9528    -1.6663  C.ar    1  <O>11       0.2725
   3 N1        6.7347     1.7343    -0.7968  N.ar    1  <O>11      -0.2425
   4 N2        7.2340     2.9457    -0.4598  N.ar    1  <O>11      -0.1750
   5 C2        8.4134     3.3437    -0.9933  C.ar    1  <O>11       0.0736
   6 C3        8.8350     4.7170    -0.6550  C.3     1  <O>11       0.0185
   7 C4        7.8150     5.3460     0.2240  C.ar    1  <O>11      -0.0232
   8 C5        7.1549     6.5175    -0.1825  C.ar    1  <O>11      -0.0568
   9 C6        6.2029     7.1168     0.6520  C.ar    1  <O>11      -0.0614
  10 C7        5.8995     6.5506     1.8924  C.ar    1  <O>11      -0.0604
  11 C8        6.5524     5.3788     2.2943  C.ar    1  <O>11      -0.0431
  12 C9        7.5026     4.7746     1.4690  C.ar    1  <O>11       0.0445
  13 Cl1       8.3171     3.3002     1.9705  Cl      1  <O>11      -0.0832
  14 C10       9.2100     2.5349    -1.8162  C.ar    1  <O>11       0.0106
  15 C11      10.4688     2.9255    -2.3277  C.ar    1  <O>11      -0.0521
  16 C12      11.1965     2.0826    -3.1684  C.ar    1  <O>11      -0.0611
  17 C13      10.6797     0.8410    -3.5204  C.ar    1  <O>11      -0.0610
  18 C14       9.4353     0.4418    -3.0314  C.ar    1  <O>11      -0.0487
  19 C15       8.6875     1.2787    -2.1714  C.ar    1  <O>11       0.0496
  20 H1        5.8603     1.4136    -0.4062  H       1  <O>11       0.1921
  21 H2        8.9360     5.3020    -1.5700  H       1  <O>11       0.0378
  22 H3        9.7930     4.6860    -0.1360  H       1  <O>11       0.0378
  23 H4        7.3721     6.9382    -1.0995  H       1  <O>11       0.0621
  24 H5        5.7242     7.9795     0.3495  H       1  <O>11       0.0618
  25 H6        5.1993     6.9928     2.5082  H       1  <O>11       0.0618
  26 H7        6.3290     4.9576     3.2096  H       1  <O>11       0.0632
  27 H8       10.8555     3.8484    -2.0753  H       1  <O>11       0.0624
  28 H9       12.1168     2.3803    -3.5283  H       1  <O>11       0.0618
  29 H10      11.2155     0.2156    -4.1423  H       1  <O>11       0.0618
  30 H11       9.0548    -0.4786    -3.3016  H       1  <O>11       0.0625
@<TRIPOS>BOND
     1     1     2    2
     2     2     3   ar
     3     3     4   ar
     4     4     5   ar
     5     5     6    1
     6     6     7    1
     7     7     8   ar
     8     8     9   ar
     9     9    10   ar
    10    10    11   ar
    11    11    12   ar
    12     7    12   ar
    13    12    13    1
    14     5    14   ar
    15    14    15   ar
    16    15    16   ar
    17    16    17   ar
    18    17    18   ar
    19    18    19   ar
    20     2    19   ar
    21    14    19   ar
    22     3    20    1
    23     6    21    1
    24     6    22    1
    25     8    23    1
    26     9    24    1
    27    10    25    1
    28    11    26    1
    29    15    27    1
    30    16    28    1
    31    17    29    1
    32    18    30    1
@<TRIPOS>MOLECULE
mol14_1_12
 30 32 0 0 0
SMALL
USER_CHARGES
****
VDW energy = -25.54
@<TRIPOS>ATOM
   1 O1        6.7938    -0.2446    -2.0599  O.2     1  <O>11      -0.2658
   2 C1        7.4213     0.9528    -1.6663  C.ar    1  <O>11       0.2725
   3 N1        6.7347     1.7343    -0.7968  N.ar    1  <O>11      -0.2425
   4 N2        7.2340     2.9457    -0.4598  N.ar    1  <O>11      -0.1750
   5 C2        8.4134     3.3437    -0.9933  C.ar    1  <O>11       0.0736
   6 C3        8.8350     4.7170    -0.6550  C.3     1  <O>11       0.0185
   7 C4        9.6503     4.6931     0.5874  C.ar    1  <O>11      -0.0232
   8 C5       10.9760     5.1574     0.5738  C.ar    1  <O>11      -0.0568
   9 C6       11.7478     5.1226     1.7421  C.ar    1  <O>11      -0.0614
  10 C7       11.2027     4.6307     2.9304  C.ar    1  <O>11      -0.0604
  11 C8        9.8788     4.1747     2.9454  C.ar    1  <O>11      -0.0431
  12 C9        9.1022     4.2056     1.7857  C.ar    1  <O>11       0.0445
  13 Cl1       7.4384     3.6395     1.8062  Cl      1  <O>11      -0.0832
  14 C10       9.2100     2.5349    -1.8162  C.ar    1  <O>11       0.0106
  15 C11      10.4688     2.9255    -2.3277  C.ar    1  <O>11      -0.0521
  16 C12      11.1965     2.0826    -3.1684  C.ar    1  <O>11      -0.0611
  17 C13      10.6797     0.8410    -3.5204  C.ar    1  <O>11      -0.0610
  18 C14       9.4353     0.4418    -3.0314  C.ar    1  <O>11      -0.0487
  19 C15       8.6875     1.2787    -2.1714  C.ar    1  <O>11       0.0496
  20 H1        5.8603     1.4136    -0.4062  H       1  <O>11       0.1921
  21 H2        7.9533     5.3397    -0.4986  H       1  <O>11       0.0378
  22 H3        9.4290     5.1268    -1.4719  H       1  <O>11       0.0378
  23 H4       11.3829     5.5255    -0.3002  H       1  <O>11       0.0621
  24 H5       12.7224     5.4615     1.7249  H       1  <O>11       0.0618
  25 H6       11.7715     4.6036     3.7911  H       1  <O>11       0.0618
  26 H7        9.4731     3.8122     3.8224  H       1  <O>11       0.0632
  27 H8       10.8555     3.8484    -2.0753  H       1  <O>11       0.0624
  28 H9       12.1168     2.3803    -3.5283  H       1  <O>11       0.0618
  29 H10      11.2155     0.2156    -4.1423  H       1  <O>11       0.0618
  30 H11       9.0548    -0.4786    -3.3016  H       1  <O>11       0.0625
@<TRIPOS>BOND
     1     1     2    2
     2     2     3   ar
     3     3     4   ar
     4     4     5   ar
     5     5     6    1
     6     6     7    1
     7     7     8   ar
     8     8     9   ar
     9     9    10   ar
    10    10    11   ar
    11    11    12   ar
    12     7    12   ar
    13    12    13    1
    14     5    14   ar
    15    14    15   ar
    16    15    16   ar
    17    16    17   ar
    18    17    18   ar
    19    18    19   ar
    20     2    19   ar
    21    14    19   ar
    22     3    20    1
    23     6    21    1
    24     6    22    1
    25     8    23    1
    26     9    24    1
    27    10    25    1
    28    11    26    1
    29    15    27    1
    30    16    28    1
    31    17    29    1
    32    18    30    1
@<TRIPOS>MOLECULE
mol14_1_13
 30 32 0 0 0
SMALL
USER_CHARGES
****
VDW energy = -23.58
@<TRIPOS>ATOM
   1 O1        6.7938    -0.2446    -2.0599  O.2     1  <O>11      -0.2658
   2 C1        7.4213     0.9528    -1.6663  C.ar    1  <O>11       0.2725
   3 N1        6.7347     1.7343    -0.7968  N.ar    1  <O>11      -0.2425
   4 N2        7.2340     2.9457    -0.4598  N.ar    1  <O>11      -0.1750
   5 C2        8.4134     3.3437    -0.9933  C.ar    1  <O>11       0.0736
   6 C3        8.8350     4.7170    -0.6550  C.3     1  <O>11       0.0185
   7 C4        8.3028     5.6629    -1.6702  C.ar    1  <O>11      -0.0232
   8 C5        9.1805     6.4502    -2.4339  C.ar    1  <O>11      -0.0568
   9 C6        8.6776     7.3507    -3.3815  C.ar    1  <O>11      -0.0614
  10 C7        7.2996     7.4683    -3.5776  C.ar    1  <O>11      -0.0604
  11 C8        6.4251     6.6781    -2.8213  C.ar    1  <O>11      -0.0431
  12 C9        6.9175     5.7779    -1.8746  C.ar    1  <O>11       0.0445
  13 Cl1       5.8203     4.7813    -0.9304  Cl      1  <O>11      -0.0832
  14 C10       9.2100     2.5349    -1.8162  C.ar    1  <O>11       0.0106
  15 C11      10.4688     2.9255    -2.3277  C.ar    1  <O>11      -0.0521
  16 C12      11.1965     2.0826    -3.1684  C.ar    1  <O>11      -0.0611
  17 C13      10.6797     0.8410    -3.5204  C.ar    1  <O>11      -0.0610
  18 C14       9.4353     0.4418    -3.0314  C.ar    1  <O>11      -0.0487
  19 C15       8.6875     1.2787    -2.1714  C.ar    1  <O>11       0.0496
  20 H1        5.8603     1.4136    -0.4062  H       1  <O>11       0.1921
  21 H2        9.9243     4.7707    -0.6448  H       1  <O>11       0.0378
  22 H3        8.4489     4.9842     0.3287  H       1  <O>11       0.0378
  23 H4       10.1997     6.3649    -2.2962  H       1  <O>11       0.0621
  24 H5        9.3273     7.9292    -3.9367  H       1  <O>11       0.0618
  25 H6        6.9286     8.1328    -4.2746  H       1  <O>11       0.0618
  26 H7        5.4066     6.7619    -2.9653  H       1  <O>11       0.0632
  27 H8       10.8555     3.8484    -2.0753  H       1  <O>11       0.0624
  28 H9       12.1168     2.3803    -3.5283  H       1  <O>11       0.0618
  29 H10      11.2155     0.2156    -4.1423  H       1  <O>11       0.0618
  30 H11       9.0548    -0.4786    -3.3016  H       1  <O>11       0.0625
@<TRIPOS>BOND
     1     1     2    2
     2     2     3   ar
     3     3     4   ar
     4     4     5   ar
     5     5     6    1
     6     6     7    1
     7     7     8   ar
     8     8     9   ar
     9     9    10   ar
    10    10    11   ar
    11    11    12   ar
    12     7    12   ar
    13    12    13    1
    14     5    14   ar
    15    14    15   ar
    16    15    16   ar
    17    16    17   ar
    18    17    18   ar
    19    18    19   ar
    20     2    19   ar
    21    14    19   ar
    22     3    20    1
    23     6    21    1
    24     6    22    1
    25     8    23    1
    26     9    24    1
    27    10    25    1
    28    11    26    1
    29    15    27    1
    30    16    28    1
    31    17    29    1
    32    18    30    1
@<TRIPOS>MOLECULE
mol14_1_14
 30 32 0 0 0
SMALL
USER_CHARGES
****
VDW energy = -6.21
@<TRIPOS>ATOM
   1 O1        6.7938    -0.2446    -2.0599  O.2     1  <O>11      -0.2658
   2 C1        7.4213     0.9528    -1.6663  C.ar    1  <O>11       0.2725
   3 N1        6.7347     1.7343    -0.7968  N.ar    1  <O>11      -0.2425
   4 N2        7.2340     2.9457    -0.4598  N.ar    1  <O>11      -0.1750
   5 C2        8.4134     3.3437    -0.9933  C.ar    1  <O>11       0.0736
   6 C3        8.8350     4.7170    -0.6550  C.3     1  <O>11       0.0185
   7 C4        8.9738     5.5139    -1.9017  C.ar    1  <O>11      -0.0232
   8 C5        9.0031     4.8740    -3.1520  C.ar    1  <O>11      -0.0568
   9 C6        9.1468     5.6248    -4.3256  C.ar    1  <O>11      -0.0614
  10 C7        9.2567     7.0158    -4.2614  C.ar    1  <O>11      -0.0604
  11 C8        9.2201     7.6540    -3.0155  C.ar    1  <O>11      -0.0431
  12 C9        9.0772     6.9138    -1.8405  C.ar    1  <O>11       0.0445
  13 Cl1       9.0245     7.7154    -0.2773  Cl      1  <O>11      -0.0832
  14 C10       9.2100     2.5349    -1.8162  C.ar    1  <O>11       0.0106
  15 C11      10.4688     2.9255    -2.3277  C.ar    1  <O>11      -0.0521
  16 C12      11.1965     2.0826    -3.1684  C.ar    1  <O>11      -0.0611
  17 C13      10.6797     0.8410    -3.5204  C.ar    1  <O>11      -0.0610
  18 C14       9.4353     0.4418    -3.0314  C.ar    1  <O>11      -0.0487
  19 C15       8.6875     1.2787    -2.1714  C.ar    1  <O>11       0.0496
  20 H1        5.8603     1.4136    -0.4062  H       1  <O>11       0.1921
  21 H2        9.7937     4.6854    -0.1359  H       1  <O>11       0.0378
  22 H3        8.0875     5.1785    -0.0097  H       1  <O>11       0.0378
  23 H4        8.9185     3.8469    -3.2059  H       1  <O>11       0.0621
  24 H5        9.1716     5.1486    -5.2409  H       1  <O>11       0.0618
  25 H6        9.3641     7.5692    -5.1259  H       1  <O>11       0.0618
  26 H7        9.2996     8.6818    -2.9654  H       1  <O>11       0.0632
  27 H8       10.8555     3.8484    -2.0753  H       1  <O>11       0.0624
  28 H9       12.1168     2.3803    -3.5283  H       1  <O>11       0.0618
  29 H10      11.2155     0.2156    -4.1423  H       1  <O>11       0.0618
  30 H11       9.0548    -0.4786    -3.3016  H       1  <O>11       0.0625
@<TRIPOS>BOND
     1     1     2    2
     2     2     3   ar
     3     3     4   ar
     4     4     5   ar
     5     5     6    1
     6     6     7    1
     7     7     8   ar
     8     8     9   ar
     9     9    10   ar
    10    10    11   ar
    11    11    12   ar
    12     7    12   ar
    13    12    13    1
    14     5    14   ar
    15    14    15   ar
    16    15    16   ar
    17    16    17   ar
    18    17    18   ar
    19    18    19   ar
    20     2    19   ar
    21    14    19   ar
    22     3    20    1
    23     6    21    1
    24     6    22    1
    25     8    23    1
    26     9    24    1
    27    10    25    1
    28    11    26    1
    29    15    27    1
    30    16    28    1
    31    17    29    1
    32    18    30    1
