@<TRIPOS>MOLECULE
mol23_1_1
 31 33 0 0 0
SMALL
USER_CHARGES
****
VDW energy = 45.22
@<TRIPOS>ATOM
   1 N1       -1.0416     2.9353    -0.6465  N.pl3   1  <O>11      -0.3510
   2 C1       -0.5730     1.5759    -0.5515  C.ar    1  <O>11       0.1323
   3 C2        0.6800     1.0694     0.1874  C.ar    1  <O>11       0.0701
   4 N2        1.7430     1.8830     0.7200  N.pl3   1  <O>11      -0.3123
   5 C3        2.5958     2.6410    -0.1768  C.ar    1  <O>11       0.0314
   6 C4        3.4508     1.9763    -1.0737  C.ar    1  <O>11      -0.0405
   7 C5        4.2812     2.7076    -1.9296  C.ar    1  <O>11      -0.0600
   8 C6        4.2652     4.1043    -1.9017  C.ar    1  <O>11      -0.0616
   9 C7        3.4087     4.7661    -1.0141  C.ar    1  <O>11      -0.0600
  10 C8        2.5757     4.0457    -0.1573  C.ar    1  <O>11      -0.0405
  11 C9        0.7349    -0.4680     0.3350  C.ar    1  <O>11       0.0405
  12 C10       1.7678    -0.9460     1.3794  C.ar    1  <O>11      -0.0492
  13 C11       1.2888    -0.7731     2.8287  C.ar    1  <O>11      -0.0609
  14 C12      -0.0890    -1.4086     3.0474  C.ar    1  <O>11      -0.0582
  15 C13      -1.1225    -0.8741     2.0475  C.ar    1  <O>11      -0.0186
  16 C14      -0.6733    -1.0760     0.5906  C.ar    1  <O>11       0.1409
  17 O1       -1.7385    -0.5809    -0.2821  O.2     1  <O>11      -0.4208
  18 C15      -1.3512     0.4485    -1.2339  C.ar    1  <O>11       0.3601
  19 O2       -1.6242     0.4671    -2.6151  O.2     1  <O>11      -0.2430
  20 H1       -1.8920     3.1462    -1.1686  H       1  <O>11       0.1426
  21 H2       -0.5228     3.6865    -0.1916  H       1  <O>11       0.1426
  22 H3        1.8960     1.9272     1.7279  H       1  <O>11       0.1522
  23 H4        3.4656     0.9447    -1.1007  H       1  <O>11       0.0636
  24 H5        4.9079     2.2136    -2.5840  H       1  <O>11       0.0618
  25 H6        4.8802     4.6440    -2.5305  H       1  <O>11       0.0618
  26 H7        3.3931     5.7977    -0.9932  H       1  <O>11       0.0618
  27 H8        1.9454     4.5442     0.4902  H       1  <O>11       0.0636
  28 H9        2.6873    -1.3418     1.1287  H       1  <O>11       0.0625
  29 H10       1.8277    -0.2892     3.5639  H       1  <O>11       0.0618
  30 H11      -0.2956    -2.1090     3.7767  H       1  <O>11       0.0619
  31 H12      -2.0139    -0.4314     2.3203  H       1  <O>11       0.0654
@<TRIPOS>BOND
     1     1     2    1
     2     2     3   ar
     3     3     4    1
     4     4     5    1
     5     5     6   ar
     6     6     7   ar
     7     7     8   ar
     8     8     9   ar
     9     9    10   ar
    10     5    10   ar
    11     3    11   ar
    12    11    12   ar
    13    12    13   ar
    14    13    14   ar
    15    14    15   ar
    16    15    16   ar
    17    11    16   ar
    18    16    17   ar
    19    17    18   ar
    20     2    18   ar
    21    18    19    2
    22     1    20    1
    23     1    21    1
    24     4    22    1
    25     6    23    1
    26     7    24    1
    27     8    25    1
    28     9    26    1
    29    10    27    1
    30    12    28    1
    31    13    29    1
    32    14    30    1
    33    15    31    1
@<TRIPOS>MOLECULE
mol23_1_2
 31 33 0 0 0
SMALL
USER_CHARGES
****
VDW energy = 45.53
@<TRIPOS>ATOM
   1 N1       -1.0416     2.9353    -0.6465  N.pl3   1  <O>11      -0.3510
   2 C1       -0.5730     1.5759    -0.5515  C.ar    1  <O>11       0.1323
   3 C2        0.6800     1.0694     0.1874  C.ar    1  <O>11       0.0701
   4 N2        1.7430     1.8830     0.7200  N.pl3   1  <O>11      -0.3123
   5 C3        2.8904     2.2099    -0.1063  C.ar    1  <O>11       0.0314
   6 C4        2.7370     3.0208    -1.2447  C.ar    1  <O>11      -0.0405
   7 C5        3.8414     3.3256    -2.0474  C.ar    1  <O>11      -0.0600
   8 C6        5.1061     2.8289    -1.7221  C.ar    1  <O>11      -0.0616
   9 C7        5.2602     2.0278    -0.5846  C.ar    1  <O>11      -0.0600
  10 C8        4.1651     1.7191     0.2230  C.ar    1  <O>11      -0.0405
  11 C9        0.7349    -0.4680     0.3350  C.ar    1  <O>11       0.0405
  12 C10       1.7678    -0.9460     1.3794  C.ar    1  <O>11      -0.0492
  13 C11       1.2888    -0.7731     2.8287  C.ar    1  <O>11      -0.0609
  14 C12      -0.0890    -1.4086     3.0474  C.ar    1  <O>11      -0.0582
  15 C13      -1.1225    -0.8741     2.0475  C.ar    1  <O>11      -0.0186
  16 C14      -0.6733    -1.0760     0.5906  C.ar    1  <O>11       0.1409
  17 O1       -1.7385    -0.5809    -0.2821  O.2     1  <O>11      -0.4208
  18 C15      -1.3512     0.4485    -1.2339  C.ar    1  <O>11       0.3601
  19 O2       -1.6242     0.4671    -2.6151  O.2     1  <O>11      -0.2430
  20 H1       -1.8920     3.1462    -1.1686  H       1  <O>11       0.1426
  21 H2       -0.5228     3.6865    -0.1916  H       1  <O>11       0.1426
  22 H3        1.6890     2.2303     1.6779  H       1  <O>11       0.1522
  23 H4        1.8058     3.3925    -1.4891  H       1  <O>11       0.0636
  24 H5        3.7216     3.9195    -2.8828  H       1  <O>11       0.0618
  25 H6        5.9204     3.0508    -2.3159  H       1  <O>11       0.0618
  26 H7        6.1937     1.6617    -0.3407  H       1  <O>11       0.0618
  27 H8        4.2912     1.1308     1.0615  H       1  <O>11       0.0636
  28 H9        2.6873    -1.3418     1.1287  H       1  <O>11       0.0625
  29 H10       1.8277    -0.2892     3.5639  H       1  <O>11       0.0618
  30 H11      -0.2956    -2.1090     3.7767  H       1  <O>11       0.0619
  31 H12      -2.0139    -0.4314     2.3203  H       1  <O>11       0.0654
@<TRIPOS>BOND
     1     1     2    1
     2     2     3   ar
     3     3     4    1
     4     4     5    1
     5     5     6   ar
     6     6     7   ar
     7     7     8   ar
     8     8     9   ar
     9     9    10   ar
    10     5    10   ar
    11     3    11   ar
    12    11    12   ar
    13    12    13   ar
    14    13    14   ar
    15    14    15   ar
    16    15    16   ar
    17    11    16   ar
    18    16    17   ar
    19    17    18   ar
    20     2    18   ar
    21    18    19    2
    22     1    20    1
    23     1    21    1
    24     4    22    1
    25     6    23    1
    26     7    24    1
    27     8    25    1
    28     9    26    1
    29    10    27    1
    30    12    28    1
    31    13    29    1
    32    14    30    1
    33    15    31    1
@<TRIPOS>MOLECULE
mol23_1_3
 31 33 0 0 0
SMALL
USER_CHARGES
****
VDW energy = 45.62
@<TRIPOS>ATOM
   1 N1       -1.0416     2.9353    -0.6465  N.pl3   1  <O>11      -0.3510
   2 C1       -0.5730     1.5759    -0.5515  C.ar    1  <O>11       0.1323
   3 C2        0.6800     1.0694     0.1874  C.ar    1  <O>11       0.0701
   4 N2        1.7430     1.8830     0.7200  N.pl3   1  <O>11      -0.3123
   5 C3        2.8904     2.2099    -0.1063  C.ar    1  <O>11       0.0314
   6 C4        2.8839     3.3683    -0.9032  C.ar    1  <O>11      -0.0405
   7 C5        3.9855     3.6764    -1.7085  C.ar    1  <O>11      -0.0600
   8 C6        5.1020     2.8367    -1.7247  C.ar    1  <O>11      -0.0616
   9 C7        5.1115     1.6874    -0.9256  C.ar    1  <O>11      -0.0600
  10 C8        4.0182     1.3720    -0.1182  C.ar    1  <O>11      -0.0405
  11 C9        0.7349    -0.4680     0.3350  C.ar    1  <O>11       0.0405
  12 C10       1.7678    -0.9460     1.3794  C.ar    1  <O>11      -0.0492
  13 C11       1.2888    -0.7731     2.8287  C.ar    1  <O>11      -0.0609
  14 C12      -0.0890    -1.4086     3.0474  C.ar    1  <O>11      -0.0582
  15 C13      -1.1225    -0.8741     2.0475  C.ar    1  <O>11      -0.0186
  16 C14      -0.6733    -1.0760     0.5906  C.ar    1  <O>11       0.1409
  17 O1       -1.7385    -0.5809    -0.2821  O.2     1  <O>11      -0.4208
  18 C15      -1.3512     0.4485    -1.2339  C.ar    1  <O>11       0.3601
  19 O2       -1.6242     0.4671    -2.6151  O.2     1  <O>11      -0.2430
  20 H1       -1.8920     3.1462    -1.1686  H       1  <O>11       0.1426
  21 H2       -0.5228     3.6865    -0.1916  H       1  <O>11       0.1426
  22 H3        1.6890     2.2303     1.6779  H       1  <O>11       0.1522
  23 H4        2.0631     3.9938    -0.8939  H       1  <O>11       0.0636
  24 H5        3.9735     4.5271    -2.2927  H       1  <O>11       0.0618
  25 H6        5.9134     3.0620    -2.3212  H       1  <O>11       0.0618
  26 H7        5.9360     1.0668    -0.9339  H       1  <O>11       0.0618
  27 H8        4.0379     0.5242     0.4698  H       1  <O>11       0.0636
  28 H9        2.6873    -1.3418     1.1287  H       1  <O>11       0.0625
  29 H10       1.8277    -0.2892     3.5639  H       1  <O>11       0.0618
  30 H11      -0.2956    -2.1090     3.7767  H       1  <O>11       0.0619
  31 H12      -2.0139    -0.4314     2.3203  H       1  <O>11       0.0654
@<TRIPOS>BOND
     1     1     2    1
     2     2     3   ar
     3     3     4    1
     4     4     5    1
     5     5     6   ar
     6     6     7   ar
     7     7     8   ar
     8     8     9   ar
     9     9    10   ar
    10     5    10   ar
    11     3    11   ar
    12    11    12   ar
    13    12    13   ar
    14    13    14   ar
    15    14    15   ar
    16    15    16   ar
    17    11    16   ar
    18    16    17   ar
    19    17    18   ar
    20     2    18   ar
    21    18    19    2
    22     1    20    1
    23     1    21    1
    24     4    22    1
    25     6    23    1
    26     7    24    1
    27     8    25    1
    28     9    26    1
    29    10    27    1
    30    12    28    1
    31    13    29    1
    32    14    30    1
    33    15    31    1
@<TRIPOS>MOLECULE
mol23_1_4
 31 33 0 0 0
SMALL
USER_CHARGES
****
VDW energy = 45.66
@<TRIPOS>ATOM
   1 N1       -1.0416     2.9353    -0.6465  N.pl3   1  <O>11      -0.3510
   2 C1       -0.5730     1.5759    -0.5515  C.ar    1  <O>11       0.1323
   3 C2        0.6800     1.0694     0.1874  C.ar    1  <O>11       0.0701
   4 N2        1.7430     1.8830     0.7200  N.pl3   1  <O>11      -0.3123
   5 C3        2.8904     2.2099    -0.1063  C.ar    1  <O>11       0.0314
   6 C4        4.0188     1.3710    -0.1173  C.ar    1  <O>11      -0.0405
   7 C5        5.1292     1.6931    -0.9049  C.ar    1  <O>11      -0.0600
   8 C6        5.1241     2.8494    -1.6890  C.ar    1  <O>11      -0.0616
   9 C7        3.9978     3.6805    -1.6838  C.ar    1  <O>11      -0.0600
  10 C8        2.8849     3.3674    -0.9026  C.ar    1  <O>11      -0.0405
  11 C9        0.7349    -0.4680     0.3350  C.ar    1  <O>11       0.0405
  12 C10       1.7678    -0.9460     1.3794  C.ar    1  <O>11      -0.0492
  13 C11       1.2888    -0.7731     2.8287  C.ar    1  <O>11      -0.0609
  14 C12      -0.0890    -1.4086     3.0474  C.ar    1  <O>11      -0.0582
  15 C13      -1.1225    -0.8741     2.0475  C.ar    1  <O>11      -0.0186
  16 C14      -0.6733    -1.0760     0.5906  C.ar    1  <O>11       0.1409
  17 O1       -1.7385    -0.5809    -0.2821  O.2     1  <O>11      -0.4208
  18 C15      -1.3512     0.4485    -1.2339  C.ar    1  <O>11       0.3601
  19 O2       -1.6242     0.4671    -2.6151  O.2     1  <O>11      -0.2430
  20 H1       -1.8920     3.1462    -1.1686  H       1  <O>11       0.1426
  21 H2       -0.5228     3.6865    -0.1916  H       1  <O>11       0.1426
  22 H3        1.6890     2.2303     1.6779  H       1  <O>11       0.1522
  23 H4        4.0279     0.5143     0.4580  H       1  <O>11       0.0636
  24 H5        5.9551     1.0742    -0.9068  H       1  <O>11       0.0618
  25 H6        5.9444     3.0890    -2.2675  H       1  <O>11       0.0618
  26 H7        3.9904     4.5340    -2.2640  H       1  <O>11       0.0618
  27 H8        2.0585     3.9855    -0.9096  H       1  <O>11       0.0636
  28 H9        2.6873    -1.3418     1.1287  H       1  <O>11       0.0625
  29 H10       1.8277    -0.2892     3.5639  H       1  <O>11       0.0618
  30 H11      -0.2956    -2.1090     3.7767  H       1  <O>11       0.0619
  31 H12      -2.0139    -0.4314     2.3203  H       1  <O>11       0.0654
@<TRIPOS>BOND
     1     1     2    1
     2     2     3   ar
     3     3     4    1
     4     4     5    1
     5     5     6   ar
     6     6     7   ar
     7     7     8   ar
     8     8     9   ar
     9     9    10   ar
    10     5    10   ar
    11     3    11   ar
    12    11    12   ar
    13    12    13   ar
    14    13    14   ar
    15    14    15   ar
    16    15    16   ar
    17    11    16   ar
    18    16    17   ar
    19    17    18   ar
    20     2    18   ar
    21    18    19    2
    22     1    20    1
    23     1    21    1
    24     4    22    1
    25     6    23    1
    26     7    24    1
    27     8    25    1
    28     9    26    1
    29    10    27    1
    30    12    28    1
    31    13    29    1
    32    14    30    1
    33    15    31    1
@<TRIPOS>MOLECULE
mol23_1_5
 31 33 0 0 0
SMALL
USER_CHARGES
****
VDW energy = 46.21
@<TRIPOS>ATOM
   1 N1       -1.0416     2.9353    -0.6465  N.pl3   1  <O>11      -0.3510
   2 C1       -0.5730     1.5759    -0.5515  C.ar    1  <O>11       0.1323
   3 C2        0.6800     1.0694     0.1874  C.ar    1  <O>11       0.0701
   4 N2        1.7430     1.8830     0.7200  N.pl3   1  <O>11      -0.3123
   5 C3        2.5958     2.6410    -0.1768  C.ar    1  <O>11       0.0314
   6 C4        2.2529     3.9553    -0.5403  C.ar    1  <O>11      -0.0405
   7 C5        3.0692     4.6810    -1.4143  C.ar    1  <O>11      -0.0600
   8 C6        4.2334     4.1062    -1.9304  C.ar    1  <O>11      -0.0616
   9 C7        4.5787     2.8005    -1.5626  C.ar    1  <O>11      -0.0600
  10 C8        3.7717     2.0689    -0.6907  C.ar    1  <O>11      -0.0405
  11 C9        0.7349    -0.4680     0.3350  C.ar    1  <O>11       0.0405
  12 C10       1.7678    -0.9460     1.3794  C.ar    1  <O>11      -0.0492
  13 C11       1.2888    -0.7731     2.8287  C.ar    1  <O>11      -0.0609
  14 C12      -0.0890    -1.4086     3.0474  C.ar    1  <O>11      -0.0582
  15 C13      -1.1225    -0.8741     2.0475  C.ar    1  <O>11      -0.0186
  16 C14      -0.6733    -1.0760     0.5906  C.ar    1  <O>11       0.1409
  17 O1       -1.7385    -0.5809    -0.2821  O.2     1  <O>11      -0.4208
  18 C15      -1.3512     0.4485    -1.2339  C.ar    1  <O>11       0.3601
  19 O2       -1.6242     0.4671    -2.6151  O.2     1  <O>11      -0.2430
  20 H1       -1.8920     3.1462    -1.1686  H       1  <O>11       0.1426
  21 H2       -0.5228     3.6865    -0.1916  H       1  <O>11       0.1426
  22 H3        1.8960     1.9272     1.7279  H       1  <O>11       0.1522
  23 H4        1.3954     4.3862    -0.1608  H       1  <O>11       0.0636
  24 H5        2.8107     5.6444    -1.6787  H       1  <O>11       0.0618
  25 H6        4.8340     4.6401    -2.5777  H       1  <O>11       0.0618
  26 H7        5.4394     2.3745    -1.9404  H       1  <O>11       0.0618
  27 H8        4.0383     1.1084    -0.4234  H       1  <O>11       0.0636
  28 H9        2.6873    -1.3418     1.1287  H       1  <O>11       0.0625
  29 H10       1.8277    -0.2892     3.5639  H       1  <O>11       0.0618
  30 H11      -0.2956    -2.1090     3.7767  H       1  <O>11       0.0619
  31 H12      -2.0139    -0.4314     2.3203  H       1  <O>11       0.0654
@<TRIPOS>BOND
     1     1     2    1
     2     2     3   ar
     3     3     4    1
     4     4     5    1
     5     5     6   ar
     6     6     7   ar
     7     7     8   ar
     8     8     9   ar
     9     9    10   ar
    10     5    10   ar
    11     3    11   ar
    12    11    12   ar
    13    12    13   ar
    14    13    14   ar
    15    14    15   ar
    16    15    16   ar
    17    11    16   ar
    18    16    17   ar
    19    17    18   ar
    20     2    18   ar
    21    18    19    2
    22     1    20    1
    23     1    21    1
    24     4    22    1
    25     6    23    1
    26     7    24    1
    27     8    25    1
    28     9    26    1
    29    10    27    1
    30    12    28    1
    31    13    29    1
    32    14    30    1
    33    15    31    1
@<TRIPOS>MOLECULE
mol23_1_6
 31 33 0 0 0
SMALL
USER_CHARGES
****
VDW energy = 46.25
@<TRIPOS>ATOM
   1 N1       -1.0416     2.9353    -0.6465  N.pl3   1  <O>11      -0.3510
   2 C1       -0.5730     1.5759    -0.5515  C.ar    1  <O>11       0.1323
   3 C2        0.6800     1.0694     0.1874  C.ar    1  <O>11       0.0701
   4 N2        1.7430     1.8830     0.7200  N.pl3   1  <O>11      -0.3123
   5 C3        2.5958     2.6410    -0.1768  C.ar    1  <O>11       0.0314
   6 C4        3.7727     2.0678    -0.6903  C.ar    1  <O>11      -0.0405
   7 C5        4.6004     2.8032    -1.5453  C.ar    1  <O>11      -0.0600
   8 C6        4.2623     4.1122    -1.8979  C.ar    1  <O>11      -0.0616
   9 C7        3.0868     4.6801    -1.3927  C.ar    1  <O>11      -0.0600
  10 C8        2.2541     3.9544    -0.5402  C.ar    1  <O>11      -0.0405
  11 C9        0.7349    -0.4680     0.3350  C.ar    1  <O>11       0.0405
  12 C10       1.7678    -0.9460     1.3794  C.ar    1  <O>11      -0.0492
  13 C11       1.2888    -0.7731     2.8287  C.ar    1  <O>11      -0.0609
  14 C12      -0.0890    -1.4086     3.0474  C.ar    1  <O>11      -0.0582
  15 C13      -1.1225    -0.8741     2.0475  C.ar    1  <O>11      -0.0186
  16 C14      -0.6733    -1.0760     0.5906  C.ar    1  <O>11       0.1409
  17 O1       -1.7385    -0.5809    -0.2821  O.2     1  <O>11      -0.4208
  18 C15      -1.3512     0.4485    -1.2339  C.ar    1  <O>11       0.3601
  19 O2       -1.6242     0.4671    -2.6151  O.2     1  <O>11      -0.2430
  20 H1       -1.8920     3.1462    -1.1686  H       1  <O>11       0.1426
  21 H2       -0.5228     3.6865    -0.1916  H       1  <O>11       0.1426
  22 H3        1.8960     1.9272     1.7279  H       1  <O>11       0.1522
  23 H4        4.0268     1.1006    -0.4354  H       1  <O>11       0.0636
  24 H5        5.4638     2.3774    -1.9169  H       1  <O>11       0.0618
  25 H6        4.8744     4.6561    -2.5259  H       1  <O>11       0.0618
  26 H7        2.8335     5.6460    -1.6536  H       1  <O>11       0.0618
  27 H8        1.3879     4.3820    -0.1770  H       1  <O>11       0.0636
  28 H9        2.6873    -1.3418     1.1287  H       1  <O>11       0.0625
  29 H10       1.8277    -0.2892     3.5639  H       1  <O>11       0.0618
  30 H11      -0.2956    -2.1090     3.7767  H       1  <O>11       0.0619
  31 H12      -2.0139    -0.4314     2.3203  H       1  <O>11       0.0654
@<TRIPOS>BOND
     1     1     2    1
     2     2     3   ar
     3     3     4    1
     4     4     5    1
     5     5     6   ar
     6     6     7   ar
     7     7     8   ar
     8     8     9   ar
     9     9    10   ar
    10     5    10   ar
    11     3    11   ar
    12    11    12   ar
    13    12    13   ar
    14    13    14   ar
    15    14    15   ar
    16    15    16   ar
    17    11    16   ar
    18    16    17   ar
    19    17    18   ar
    20     2    18   ar
    21    18    19    2
    22     1    20    1
    23     1    21    1
    24     4    22    1
    25     6    23    1
    26     7    24    1
    27     8    25    1
    28     9    26    1
    29    10    27    1
    30    12    28    1
    31    13    29    1
    32    14    30    1
    33    15    31    1
@<TRIPOS>MOLECULE
mol23_1_7
 31 33 0 0 0
SMALL
USER_CHARGES
****
VDW energy = 46.57
@<TRIPOS>ATOM
   1 N1       -1.0416     2.9353    -0.6465  N.pl3   1  <O>11      -0.3510
   2 C1       -0.5730     1.5759    -0.5515  C.ar    1  <O>11       0.1323
   3 C2        0.6800     1.0694     0.1874  C.ar    1  <O>11       0.0701
   4 N2        1.7430     1.8830     0.7200  N.pl3   1  <O>11      -0.3123
   5 C3        2.8904     2.2099    -0.1063  C.ar    1  <O>11       0.0314
   6 C4        3.7722     1.1990    -0.5279  C.ar    1  <O>11      -0.0405
   7 C5        4.8846     1.5165    -1.3144  C.ar    1  <O>11      -0.0600
   8 C6        5.1263     2.8405    -1.6895  C.ar    1  <O>11      -0.0616
   9 C7        4.2443     3.8458    -1.2761  C.ar    1  <O>11      -0.0600
  10 C8        3.1314     3.5391    -0.4924  C.ar    1  <O>11      -0.0405
  11 C9        0.7349    -0.4680     0.3350  C.ar    1  <O>11       0.0405
  12 C10       1.7678    -0.9460     1.3794  C.ar    1  <O>11      -0.0492
  13 C11       1.2888    -0.7731     2.8287  C.ar    1  <O>11      -0.0609
  14 C12      -0.0890    -1.4086     3.0474  C.ar    1  <O>11      -0.0582
  15 C13      -1.1225    -0.8741     2.0475  C.ar    1  <O>11      -0.0186
  16 C14      -0.6733    -1.0760     0.5906  C.ar    1  <O>11       0.1409
  17 O1       -1.7385    -0.5809    -0.2821  O.2     1  <O>11      -0.4208
  18 C15      -1.3512     0.4485    -1.2339  C.ar    1  <O>11       0.3601
  19 O2       -1.6242     0.4671    -2.6151  O.2     1  <O>11      -0.2430
  20 H1       -1.8920     3.1462    -1.1686  H       1  <O>11       0.1426
  21 H2       -0.5228     3.6865    -0.1916  H       1  <O>11       0.1426
  22 H3        1.6890     2.2303     1.6779  H       1  <O>11       0.1522
  23 H4        3.5979     0.2188    -0.2559  H       1  <O>11       0.0636
  24 H5        5.5291     0.7701    -1.6187  H       1  <O>11       0.0618
  25 H6        5.9487     3.0755    -2.2669  H       1  <O>11       0.0618
  26 H7        4.4191     4.8242    -1.5539  H       1  <O>11       0.0618
  27 H8        2.4857     4.2879    -0.1967  H       1  <O>11       0.0636
  28 H9        2.6873    -1.3418     1.1287  H       1  <O>11       0.0625
  29 H10       1.8277    -0.2892     3.5639  H       1  <O>11       0.0618
  30 H11      -0.2956    -2.1090     3.7767  H       1  <O>11       0.0619
  31 H12      -2.0139    -0.4314     2.3203  H       1  <O>11       0.0654
@<TRIPOS>BOND
     1     1     2    1
     2     2     3   ar
     3     3     4    1
     4     4     5    1
     5     5     6   ar
     6     6     7   ar
     7     7     8   ar
     8     8     9   ar
     9     9    10   ar
    10     5    10   ar
    11     3    11   ar
    12    11    12   ar
    13    12    13   ar
    14    13    14   ar
    15    14    15   ar
    16    15    16   ar
    17    11    16   ar
    18    16    17   ar
    19    17    18   ar
    20     2    18   ar
    21    18    19    2
    22     1    20    1
    23     1    21    1
    24     4    22    1
    25     6    23    1
    26     7    24    1
    27     8    25    1
    28     9    26    1
    29    10    27    1
    30    12    28    1
    31    13    29    1
    32    14    30    1
    33    15    31    1
@<TRIPOS>MOLECULE
mol23_1_8
 31 33 0 0 0
SMALL
USER_CHARGES
****
VDW energy = 46.72
@<TRIPOS>ATOM
   1 N1       -1.0416     2.9353    -0.6465  N.pl3   1  <O>11      -0.3510
   2 C1       -0.5730     1.5759    -0.5515  C.ar    1  <O>11       0.1323
   3 C2        0.6800     1.0694     0.1874  C.ar    1  <O>11       0.0701
   4 N2        1.7430     1.8830     0.7200  N.pl3   1  <O>11      -0.3123
   5 C3        2.8904     2.2099    -0.1063  C.ar    1  <O>11       0.0314
   6 C4        4.1790     2.2545     0.4546  C.ar    1  <O>11      -0.0405
   7 C5        5.2830     2.5813    -0.3399  C.ar    1  <O>11      -0.0600
   8 C6        5.1139     2.8630    -1.6979  C.ar    1  <O>11      -0.0616
   9 C7        3.8320     2.8113    -2.2579  C.ar    1  <O>11      -0.0600
  10 C8        2.7247     2.4852    -1.4740  C.ar    1  <O>11      -0.0405
  11 C9        0.7349    -0.4680     0.3350  C.ar    1  <O>11       0.0405
  12 C10       1.7678    -0.9460     1.3794  C.ar    1  <O>11      -0.0492
  13 C11       1.2888    -0.7731     2.8287  C.ar    1  <O>11      -0.0609
  14 C12      -0.0890    -1.4086     3.0474  C.ar    1  <O>11      -0.0582
  15 C13      -1.1225    -0.8741     2.0475  C.ar    1  <O>11      -0.0186
  16 C14      -0.6733    -1.0760     0.5906  C.ar    1  <O>11       0.1409
  17 O1       -1.7385    -0.5809    -0.2821  O.2     1  <O>11      -0.4208
  18 C15      -1.3512     0.4485    -1.2339  C.ar    1  <O>11       0.3601
  19 O2       -1.6242     0.4671    -2.6151  O.2     1  <O>11      -0.2430
  20 H1       -1.8920     3.1462    -1.1686  H       1  <O>11       0.1426
  21 H2       -0.5228     3.6865    -0.1916  H       1  <O>11       0.1426
  22 H3        1.6890     2.2303     1.6779  H       1  <O>11       0.1522
  23 H4        4.3108     2.0452     1.4566  H       1  <O>11       0.0636
  24 H5        6.2258     2.6144     0.0785  H       1  <O>11       0.0618
  25 H6        5.9276     3.1075    -2.2835  H       1  <O>11       0.0618
  26 H7        3.7046     3.0165    -3.2612  H       1  <O>11       0.0618
  27 H8        1.7849     2.4462    -1.8985  H       1  <O>11       0.0636
  28 H9        2.6873    -1.3418     1.1287  H       1  <O>11       0.0625
  29 H10       1.8277    -0.2892     3.5639  H       1  <O>11       0.0618
  30 H11      -0.2956    -2.1090     3.7767  H       1  <O>11       0.0619
  31 H12      -2.0139    -0.4314     2.3203  H       1  <O>11       0.0654
@<TRIPOS>BOND
     1     1     2    1
     2     2     3   ar
     3     3     4    1
     4     4     5    1
     5     5     6   ar
     6     6     7   ar
     7     7     8   ar
     8     8     9   ar
     9     9    10   ar
    10     5    10   ar
    11     3    11   ar
    12    11    12   ar
    13    12    13   ar
    14    13    14   ar
    15    14    15   ar
    16    15    16   ar
    17    11    16   ar
    18    16    17   ar
    19    17    18   ar
    20     2    18   ar
    21    18    19    2
    22     1    20    1
    23     1    21    1
    24     4    22    1
    25     6    23    1
    26     7    24    1
    27     8    25    1
    28     9    26    1
    29    10    27    1
    30    12    28    1
    31    13    29    1
    32    14    30    1
    33    15    31    1
@<TRIPOS>MOLECULE
mol23_1_9
 31 33 0 0 0
SMALL
USER_CHARGES
****
VDW energy = 48.65
@<TRIPOS>ATOM
   1 N1       -1.0416     2.9353    -0.6465  N.pl3   1  <O>11      -0.3510
   2 C1       -0.5730     1.5759    -0.5515  C.ar    1  <O>11       0.1323
   3 C2        0.6800     1.0694     0.1874  C.ar    1  <O>11       0.0701
   4 N2        1.7430     1.8830     0.7200  N.pl3   1  <O>11      -0.3123
   5 C3        1.4795     2.7923     1.8199  C.ar    1  <O>11       0.0314
   6 C4        2.0967     4.0551     1.8600  C.ar    1  <O>11      -0.0405
   7 C5        1.8515     4.9263     2.9266  C.ar    1  <O>11      -0.0600
   8 C6        0.9889     4.5494     3.9590  C.ar    1  <O>11      -0.0616
   9 C7        0.3686     3.2953     3.9153  C.ar    1  <O>11      -0.0600
  10 C8        0.6058     2.4197     2.8552  C.ar    1  <O>11      -0.0405
  11 C9        0.7349    -0.4680     0.3350  C.ar    1  <O>11       0.0405
  12 C10       1.7678    -0.9460     1.3794  C.ar    1  <O>11      -0.0492
  13 C11       1.2888    -0.7731     2.8287  C.ar    1  <O>11      -0.0609
  14 C12      -0.0890    -1.4086     3.0474  C.ar    1  <O>11      -0.0582
  15 C13      -1.1225    -0.8741     2.0475  C.ar    1  <O>11      -0.0186
  16 C14      -0.6733    -1.0760     0.5906  C.ar    1  <O>11       0.1409
  17 O1       -1.7385    -0.5809    -0.2821  O.2     1  <O>11      -0.4208
  18 C15      -1.3512     0.4485    -1.2339  C.ar    1  <O>11       0.3601
  19 O2       -1.6242     0.4671    -2.6151  O.2     1  <O>11      -0.2430
  20 H1       -1.8920     3.1462    -1.1686  H       1  <O>11       0.1426
  21 H2       -0.5228     3.6865    -0.1916  H       1  <O>11       0.1426
  22 H3        2.6815     1.8195     0.3246  H       1  <O>11       0.1522
  23 H4        2.7332     4.3403     1.0993  H       1  <O>11       0.0636
  24 H5        2.3094     5.8509     2.9510  H       1  <O>11       0.0618
  25 H6        0.8104     5.1905     4.7476  H       1  <O>11       0.0618
  26 H7       -0.2710     3.0154     4.6753  H       1  <O>11       0.0618
  27 H8        0.1399     1.4991     2.8315  H       1  <O>11       0.0636
  28 H9        2.6873    -1.3418     1.1287  H       1  <O>11       0.0625
  29 H10       1.8277    -0.2892     3.5639  H       1  <O>11       0.0618
  30 H11      -0.2956    -2.1090     3.7767  H       1  <O>11       0.0619
  31 H12      -2.0139    -0.4314     2.3203  H       1  <O>11       0.0654
@<TRIPOS>BOND
     1     1     2    1
     2     2     3   ar
     3     3     4    1
     4     4     5    1
     5     5     6   ar
     6     6     7   ar
     7     7     8   ar
     8     8     9   ar
     9     9    10   ar
    10     5    10   ar
    11     3    11   ar
    12    11    12   ar
    13    12    13   ar
    14    13    14   ar
    15    14    15   ar
    16    15    16   ar
    17    11    16   ar
    18    16    17   ar
    19    17    18   ar
    20     2    18   ar
    21    18    19    2
    22     1    20    1
    23     1    21    1
    24     4    22    1
    25     6    23    1
    26     7    24    1
    27     8    25    1
    28     9    26    1
    29    10    27    1
    30    12    28    1
    31    13    29    1
    32    14    30    1
    33    15    31    1
@<TRIPOS>MOLECULE
mol23_1_10
 31 33 0 0 0
SMALL
USER_CHARGES
****
VDW energy = 51.78
@<TRIPOS>ATOM
   1 N1       -1.0416     2.9353    -0.6465  N.pl3   1  <O>11      -0.3510
   2 C1       -0.5730     1.5759    -0.5515  C.ar    1  <O>11       0.1323
   3 C2        0.6800     1.0694     0.1874  C.ar    1  <O>11       0.0701
   4 N2        1.7430     1.8830     0.7200  N.pl3   1  <O>11      -0.3123
   5 C3        1.6666     2.3758     2.0829  C.ar    1  <O>11       0.0314
   6 C4        0.6725     3.3007     2.4482  C.ar    1  <O>11      -0.0405
   7 C5        0.6068     3.7844     3.7592  C.ar    1  <O>11      -0.0600
   8 C6        1.5270     3.3497     4.7164  C.ar    1  <O>11      -0.0616
   9 C7        2.5119     2.4232     4.3546  C.ar    1  <O>11      -0.0600
  10 C8        2.5850     1.9340     3.0499  C.ar    1  <O>11      -0.0405
  11 C9        0.7349    -0.4680     0.3350  C.ar    1  <O>11       0.0405
  12 C10       1.7678    -0.9460     1.3794  C.ar    1  <O>11      -0.0492
  13 C11       1.2888    -0.7731     2.8287  C.ar    1  <O>11      -0.0609
  14 C12      -0.0890    -1.4086     3.0474  C.ar    1  <O>11      -0.0582
  15 C13      -1.1225    -0.8741     2.0475  C.ar    1  <O>11      -0.0186
  16 C14      -0.6733    -1.0760     0.5906  C.ar    1  <O>11       0.1409
  17 O1       -1.7385    -0.5809    -0.2821  O.2     1  <O>11      -0.4208
  18 C15      -1.3512     0.4485    -1.2339  C.ar    1  <O>11       0.3601
  19 O2       -1.6242     0.4671    -2.6151  O.2     1  <O>11      -0.2430
  20 H1       -1.8920     3.1462    -1.1686  H       1  <O>11       0.1426
  21 H2       -0.5228     3.6865    -0.1916  H       1  <O>11       0.1426
  22 H3        2.5502     2.1122     0.1395  H       1  <O>11       0.1522
  23 H4       -0.0115     3.6240     1.7462  H       1  <O>11       0.0636
  24 H5       -0.1240     4.4647     4.0202  H       1  <O>11       0.0618
  25 H6        1.4808     3.7088     5.6828  H       1  <O>11       0.0618
  26 H7        3.1913     2.0986     5.0604  H       1  <O>11       0.0618
  27 H8        3.3130     1.2482     2.7955  H       1  <O>11       0.0636
  28 H9        2.6873    -1.3418     1.1287  H       1  <O>11       0.0625
  29 H10       1.8277    -0.2892     3.5639  H       1  <O>11       0.0618
  30 H11      -0.2956    -2.1090     3.7767  H       1  <O>11       0.0619
  31 H12      -2.0139    -0.4314     2.3203  H       1  <O>11       0.0654
@<TRIPOS>BOND
     1     1     2    1
     2     2     3   ar
     3     3     4    1
     4     4     5    1
     5     5     6   ar
     6     6     7   ar
     7     7     8   ar
     8     8     9   ar
     9     9    10   ar
    10     5    10   ar
    11     3    11   ar
    12    11    12   ar
    13    12    13   ar
    14    13    14   ar
    15    14    15   ar
    16    15    16   ar
    17    11    16   ar
    18    16    17   ar
    19    17    18   ar
    20     2    18   ar
    21    18    19    2
    22     1    20    1
    23     1    21    1
    24     4    22    1
    25     6    23    1
    26     7    24    1
    27     8    25    1
    28     9    26    1
    29    10    27    1
    30    12    28    1
    31    13    29    1
    32    14    30    1
    33    15    31    1
@<TRIPOS>MOLECULE
mol23_1_11
 31 33 0 0 0
SMALL
USER_CHARGES
****
VDW energy = 51.86
@<TRIPOS>ATOM
   1 N1       -1.0416     2.9353    -0.6465  N.pl3   1  <O>11      -0.3510
   2 C1       -0.5730     1.5759    -0.5515  C.ar    1  <O>11       0.1323
   3 C2        0.6800     1.0694     0.1874  C.ar    1  <O>11       0.0701
   4 N2        1.7430     1.8830     0.7200  N.pl3   1  <O>11      -0.3123
   5 C3        2.5958     2.6410    -0.1768  C.ar    1  <O>11       0.0314
   6 C4        2.0645     3.6979    -0.9369  C.ar    1  <O>11      -0.0405
   7 C5        2.8847     4.4203    -1.8101  C.ar    1  <O>11      -0.0600
   8 C6        4.2389     4.0989    -1.9313  C.ar    1  <O>11      -0.0616
   9 C7        4.7695     3.0516    -1.1690  C.ar    1  <O>11      -0.0600
  10 C8        3.9600     2.3258    -0.2945  C.ar    1  <O>11      -0.0405
  11 C9        0.7349    -0.4680     0.3350  C.ar    1  <O>11       0.0405
  12 C10       1.7678    -0.9460     1.3794  C.ar    1  <O>11      -0.0492
  13 C11       1.2888    -0.7731     2.8287  C.ar    1  <O>11      -0.0609
  14 C12      -0.0890    -1.4086     3.0474  C.ar    1  <O>11      -0.0582
  15 C13      -1.1225    -0.8741     2.0475  C.ar    1  <O>11      -0.0186
  16 C14      -0.6733    -1.0760     0.5906  C.ar    1  <O>11       0.1409
  17 O1       -1.7385    -0.5809    -0.2821  O.2     1  <O>11      -0.4208
  18 C15      -1.3512     0.4485    -1.2339  C.ar    1  <O>11       0.3601
  19 O2       -1.6242     0.4671    -2.6151  O.2     1  <O>11      -0.2430
  20 H1       -1.8920     3.1462    -1.1686  H       1  <O>11       0.1426
  21 H2       -0.5228     3.6865    -0.1916  H       1  <O>11       0.1426
  22 H3        1.8960     1.9272     1.7279  H       1  <O>11       0.1522
  23 H4        1.0655     3.9416    -0.8502  H       1  <O>11       0.0636
  24 H5        2.4879     5.1935    -2.3667  H       1  <O>11       0.0618
  25 H6        4.8434     4.6295    -2.5778  H       1  <O>11       0.0618
  26 H7        5.7700     2.8137    -1.2548  H       1  <O>11       0.0618
  27 H8        4.3628     1.5583     0.2654  H       1  <O>11       0.0636
  28 H9        2.6873    -1.3418     1.1287  H       1  <O>11       0.0625
  29 H10       1.8277    -0.2892     3.5639  H       1  <O>11       0.0618
  30 H11      -0.2956    -2.1090     3.7767  H       1  <O>11       0.0619
  31 H12      -2.0139    -0.4314     2.3203  H       1  <O>11       0.0654
@<TRIPOS>BOND
     1     1     2    1
     2     2     3   ar
     3     3     4    1
     4     4     5    1
     5     5     6   ar
     6     6     7   ar
     7     7     8   ar
     8     8     9   ar
     9     9    10   ar
    10     5    10   ar
    11     3    11   ar
    12    11    12   ar
    13    12    13   ar
    14    13    14   ar
    15    14    15   ar
    16    15    16   ar
    17    11    16   ar
    18    16    17   ar
    19    17    18   ar
    20     2    18   ar
    21    18    19    2
    22     1    20    1
    23     1    21    1
    24     4    22    1
    25     6    23    1
    26     7    24    1
    27     8    25    1
    28     9    26    1
    29    10    27    1
    30    12    28    1
    31    13    29    1
    32    14    30    1
    33    15    31    1
@<TRIPOS>MOLECULE
mol23_1_12
 31 33 0 0 0
SMALL
USER_CHARGES
****
VDW energy = 53.42
@<TRIPOS>ATOM
   1 N1       -1.0416     2.9353    -0.6465  N.pl3   1  <O>11      -0.3510
   2 C1       -0.5730     1.5759    -0.5515  C.ar    1  <O>11       0.1323
   3 C2        0.6800     1.0694     0.1874  C.ar    1  <O>11       0.0701
   4 N2        1.7430     1.8830     0.7200  N.pl3   1  <O>11      -0.3123
   5 C3        2.5958     2.6410    -0.1768  C.ar    1  <O>11       0.0314
   6 C4        3.9710     2.7660     0.0884  C.ar    1  <O>11      -0.0405
   7 C5        4.7903     3.5067    -0.7701  C.ar    1  <O>11      -0.0600
   8 C6        4.2486     4.1256    -1.8995  C.ar    1  <O>11      -0.0616
   9 C7        2.8809     3.9948    -2.1677  C.ar    1  <O>11      -0.0600
  10 C8        2.0557     3.2572    -1.3181  C.ar    1  <O>11      -0.0405
  11 C9        0.7349    -0.4680     0.3350  C.ar    1  <O>11       0.0405
  12 C10       1.7678    -0.9460     1.3794  C.ar    1  <O>11      -0.0492
  13 C11       1.2888    -0.7731     2.8287  C.ar    1  <O>11      -0.0609
  14 C12      -0.0890    -1.4086     3.0474  C.ar    1  <O>11      -0.0582
  15 C13      -1.1225    -0.8741     2.0475  C.ar    1  <O>11      -0.0186
  16 C14      -0.6733    -1.0760     0.5906  C.ar    1  <O>11       0.1409
  17 O1       -1.7385    -0.5809    -0.2821  O.2     1  <O>11      -0.4208
  18 C15      -1.3512     0.4485    -1.2339  C.ar    1  <O>11       0.3601
  19 O2       -1.6242     0.4671    -2.6151  O.2     1  <O>11      -0.2430
  20 H1       -1.8920     3.1462    -1.1686  H       1  <O>11       0.1426
  21 H2       -0.5228     3.6865    -0.1916  H       1  <O>11       0.1426
  22 H3        1.8960     1.9272     1.7279  H       1  <O>11       0.1522
  23 H4        4.3776     2.3094     0.9198  H       1  <O>11       0.0636
  24 H5        5.7984     3.5964    -0.5685  H       1  <O>11       0.0618
  25 H6        4.8521     4.6749    -2.5312  H       1  <O>11       0.0618
  26 H7        2.4787     4.4489    -3.0026  H       1  <O>11       0.0618
  27 H8        1.0495     3.1643    -1.5279  H       1  <O>11       0.0636
  28 H9        2.6873    -1.3418     1.1287  H       1  <O>11       0.0625
  29 H10       1.8277    -0.2892     3.5639  H       1  <O>11       0.0618
  30 H11      -0.2956    -2.1090     3.7767  H       1  <O>11       0.0619
  31 H12      -2.0139    -0.4314     2.3203  H       1  <O>11       0.0654
@<TRIPOS>BOND
     1     1     2    1
     2     2     3   ar
     3     3     4    1
     4     4     5    1
     5     5     6   ar
     6     6     7   ar
     7     7     8   ar
     8     8     9   ar
     9     9    10   ar
    10     5    10   ar
    11     3    11   ar
    12    11    12   ar
    13    12    13   ar
    14    13    14   ar
    15    14    15   ar
    16    15    16   ar
    17    11    16   ar
    18    16    17   ar
    19    17    18   ar
    20     2    18   ar
    21    18    19    2
    22     1    20    1
    23     1    21    1
    24     4    22    1
    25     6    23    1
    26     7    24    1
    27     8    25    1
    28     9    26    1
    29    10    27    1
    30    12    28    1
    31    13    29    1
    32    14    30    1
    33    15    31    1
@<TRIPOS>MOLECULE
mol23_1_13
 31 33 0 0 0
SMALL
USER_CHARGES
****
VDW energy = 57.41
@<TRIPOS>ATOM
   1 N1       -1.0416     2.9353    -0.6465  N.pl3   1  <O>11      -0.3510
   2 C1       -0.5730     1.5759    -0.5515  C.ar    1  <O>11       0.1323
   3 C2        0.6800     1.0694     0.1874  C.ar    1  <O>11       0.0701
   4 N2        1.7430     1.8830     0.7200  N.pl3   1  <O>11      -0.3123
   5 C3        1.4795     2.7923     1.8199  C.ar    1  <O>11       0.0314
   6 C4        1.6260     2.3589     3.1495  C.ar    1  <O>11      -0.0405
   7 C5        1.3603     3.2325     4.2093  C.ar    1  <O>11      -0.0600
   8 C6        0.9502     4.5435     3.9545  C.ar    1  <O>11      -0.0616
   9 C7        0.8116     4.9773     2.6309  C.ar    1  <O>11      -0.0600
  10 C8        1.0753     4.1139     1.5669  C.ar    1  <O>11      -0.0405
  11 C9        0.7349    -0.4680     0.3350  C.ar    1  <O>11       0.0405
  12 C10       1.7678    -0.9460     1.3794  C.ar    1  <O>11      -0.0492
  13 C11       1.2888    -0.7731     2.8287  C.ar    1  <O>11      -0.0609
  14 C12      -0.0890    -1.4086     3.0474  C.ar    1  <O>11      -0.0582
  15 C13      -1.1225    -0.8741     2.0475  C.ar    1  <O>11      -0.0186
  16 C14      -0.6733    -1.0760     0.5906  C.ar    1  <O>11       0.1409
  17 O1       -1.7385    -0.5809    -0.2821  O.2     1  <O>11      -0.4208
  18 C15      -1.3512     0.4485    -1.2339  C.ar    1  <O>11       0.3601
  19 O2       -1.6242     0.4671    -2.6151  O.2     1  <O>11      -0.2430
  20 H1       -1.8920     3.1462    -1.1686  H       1  <O>11       0.1426
  21 H2       -0.5228     3.6865    -0.1916  H       1  <O>11       0.1426
  22 H3        2.6815     1.8195     0.3246  H       1  <O>11       0.1522
  23 H4        1.9308     1.3923     3.3442  H       1  <O>11       0.0636
  24 H5        1.4677     2.9074     5.1829  H       1  <O>11       0.0618
  25 H6        0.7508     5.1872     4.7362  H       1  <O>11       0.0618
  26 H7        0.5112     5.9459     2.4399  H       1  <O>11       0.0618
  27 H8        0.9736     4.4458     0.5951  H       1  <O>11       0.0636
  28 H9        2.6873    -1.3418     1.1287  H       1  <O>11       0.0625
  29 H10       1.8277    -0.2892     3.5639  H       1  <O>11       0.0618
  30 H11      -0.2956    -2.1090     3.7767  H       1  <O>11       0.0619
  31 H12      -2.0139    -0.4314     2.3203  H       1  <O>11       0.0654
@<TRIPOS>BOND
     1     1     2    1
     2     2     3   ar
     3     3     4    1
     4     4     5    1
     5     5     6   ar
     6     6     7   ar
     7     7     8   ar
     8     8     9   ar
     9     9    10   ar
    10     5    10   ar
    11     3    11   ar
    12    11    12   ar
    13    12    13   ar
    14    13    14   ar
    15    14    15   ar
    16    15    16   ar
    17    11    16   ar
    18    16    17   ar
    19    17    18   ar
    20     2    18   ar
    21    18    19    2
    22     1    20    1
    23     1    21    1
    24     4    22    1
    25     6    23    1
    26     7    24    1
    27     8    25    1
    28     9    26    1
    29    10    27    1
    30    12    28    1
    31    13    29    1
    32    14    30    1
    33    15    31    1
@<TRIPOS>MOLECULE
mol23_1_14
 31 33 0 0 0
SMALL
USER_CHARGES
****
VDW energy = 57.54
@<TRIPOS>ATOM
   1 N1       -1.0416     2.9353    -0.6465  N.pl3   1  <O>11      -0.3510
   2 C1       -0.5730     1.5759    -0.5515  C.ar    1  <O>11       0.1323
   3 C2        0.6800     1.0694     0.1874  C.ar    1  <O>11       0.0701
   4 N2        1.7430     1.8830     0.7200  N.pl3   1  <O>11      -0.3123
   5 C3        1.4795     2.7923     1.8199  C.ar    1  <O>11       0.0314
   6 C4        1.1256     2.2916     3.0853  C.ar    1  <O>11      -0.0405
   7 C5        0.8602     3.1691     4.1419  C.ar    1  <O>11      -0.0600
   8 C6        0.9476     4.5500     3.9485  C.ar    1  <O>11      -0.0616
   9 C7        1.3073     5.0483     2.6909  C.ar    1  <O>11      -0.0600
  10 C8        1.5751     4.1813     1.6310  C.ar    1  <O>11      -0.0405
  11 C9        0.7349    -0.4680     0.3350  C.ar    1  <O>11       0.0405
  12 C10       1.7678    -0.9460     1.3794  C.ar    1  <O>11      -0.0492
  13 C11       1.2888    -0.7731     2.8287  C.ar    1  <O>11      -0.0609
  14 C12      -0.0890    -1.4086     3.0474  C.ar    1  <O>11      -0.0582
  15 C13      -1.1225    -0.8741     2.0475  C.ar    1  <O>11      -0.0186
  16 C14      -0.6733    -1.0760     0.5906  C.ar    1  <O>11       0.1409
  17 O1       -1.7385    -0.5809    -0.2821  O.2     1  <O>11      -0.4208
  18 C15      -1.3512     0.4485    -1.2339  C.ar    1  <O>11       0.3601
  19 O2       -1.6242     0.4671    -2.6151  O.2     1  <O>11      -0.2430
  20 H1       -1.8920     3.1462    -1.1686  H       1  <O>11       0.1426
  21 H2       -0.5228     3.6865    -0.1916  H       1  <O>11       0.1426
  22 H3        2.6815     1.8195     0.3246  H       1  <O>11       0.1522
  23 H4        1.0615     1.2725     3.2351  H       1  <O>11       0.0636
  24 H5        0.5988     2.7951     5.0676  H       1  <O>11       0.0618
  25 H6        0.7486     5.1977     4.7269  H       1  <O>11       0.0618
  26 H7        1.3750     6.0679     2.5460  H       1  <O>11       0.0618
  27 H8        1.8432     4.5598     0.7091  H       1  <O>11       0.0636
  28 H9        2.6873    -1.3418     1.1287  H       1  <O>11       0.0625
  29 H10       1.8277    -0.2892     3.5639  H       1  <O>11       0.0618
  30 H11      -0.2956    -2.1090     3.7767  H       1  <O>11       0.0619
  31 H12      -2.0139    -0.4314     2.3203  H       1  <O>11       0.0654
@<TRIPOS>BOND
     1     1     2    1
     2     2     3   ar
     3     3     4    1
     4     4     5    1
     5     5     6   ar
     6     6     7   ar
     7     7     8   ar
     8     8     9   ar
     9     9    10   ar
    10     5    10   ar
    11     3    11   ar
    12    11    12   ar
    13    12    13   ar
    14    13    14   ar
    15    14    15   ar
    16    15    16   ar
    17    11    16   ar
    18    16    17   ar
    19    17    18   ar
    20     2    18   ar
    21    18    19    2
    22     1    20    1
    23     1    21    1
    24     4    22    1
    25     6    23    1
    26     7    24    1
    27     8    25    1
    28     9    26    1
    29    10    27    1
    30    12    28    1
    31    13    29    1
    32    14    30    1
    33    15    31    1
@<TRIPOS>MOLECULE
mol23_1_15
 31 33 0 0 0
SMALL
USER_CHARGES
****
VDW energy = 57.75
@<TRIPOS>ATOM
   1 N1       -1.0416     2.9353    -0.6465  N.pl3   1  <O>11      -0.3510
   2 C1       -0.5730     1.5759    -0.5515  C.ar    1  <O>11       0.1323
   3 C2        0.6800     1.0694     0.1874  C.ar    1  <O>11       0.0701
   4 N2        1.7430     1.8830     0.7200  N.pl3   1  <O>11      -0.3123
   5 C3        1.4795     2.7923     1.8199  C.ar    1  <O>11       0.0314
   6 C4        1.0754     4.1149     1.5658  C.ar    1  <O>11      -0.0405
   7 C5        0.8332     4.9943     2.6264  C.ar    1  <O>11      -0.0600
   8 C6        0.9881     4.5641     3.9466  C.ar    1  <O>11      -0.0616
   9 C7        1.3831     3.2453     4.1997  C.ar    1  <O>11      -0.0600
  10 C8        1.6260     2.3602     3.1487  C.ar    1  <O>11      -0.0405
  11 C9        0.7349    -0.4680     0.3350  C.ar    1  <O>11       0.0405
  12 C10       1.7678    -0.9460     1.3794  C.ar    1  <O>11      -0.0492
  13 C11       1.2888    -0.7731     2.8287  C.ar    1  <O>11      -0.0609
  14 C12      -0.0890    -1.4086     3.0474  C.ar    1  <O>11      -0.0582
  15 C13      -1.1225    -0.8741     2.0475  C.ar    1  <O>11      -0.0186
  16 C14      -0.6733    -1.0760     0.5906  C.ar    1  <O>11       0.1409
  17 O1       -1.7385    -0.5809    -0.2821  O.2     1  <O>11      -0.4208
  18 C15      -1.3512     0.4485    -1.2339  C.ar    1  <O>11       0.3601
  19 O2       -1.6242     0.4671    -2.6151  O.2     1  <O>11      -0.2430
  20 H1       -1.8920     3.1462    -1.1686  H       1  <O>11       0.1426
  21 H2       -0.5228     3.6865    -0.1916  H       1  <O>11       0.1426
  22 H3        2.6815     1.8195     0.3246  H       1  <O>11       0.1522
  23 H4        0.9571     4.4382     0.5929  H       1  <O>11       0.0636
  24 H5        0.5389     5.9644     2.4330  H       1  <O>11       0.0618
  25 H6        0.8127     5.2136     4.7291  H       1  <O>11       0.0618
  26 H7        1.4959     2.9242     5.1740  H       1  <O>11       0.0618
  27 H8        1.9130     1.3890     3.3473  H       1  <O>11       0.0636
  28 H9        2.6873    -1.3418     1.1287  H       1  <O>11       0.0625
  29 H10       1.8277    -0.2892     3.5639  H       1  <O>11       0.0618
  30 H11      -0.2956    -2.1090     3.7767  H       1  <O>11       0.0619
  31 H12      -2.0139    -0.4314     2.3203  H       1  <O>11       0.0654
@<TRIPOS>BOND
     1     1     2    1
     2     2     3   ar
     3     3     4    1
     4     4     5    1
     5     5     6   ar
     6     6     7   ar
     7     7     8   ar
     8     8     9   ar
     9     9    10   ar
    10     5    10   ar
    11     3    11   ar
    12    11    12   ar
    13    12    13   ar
    14    13    14   ar
    15    14    15   ar
    16    15    16   ar
    17    11    16   ar
    18    16    17   ar
    19    17    18   ar
    20     2    18   ar
    21    18    19    2
    22     1    20    1
    23     1    21    1
    24     4    22    1
    25     6    23    1
    26     7    24    1
    27     8    25    1
    28     9    26    1
    29    10    27    1
    30    12    28    1
    31    13    29    1
    32    14    30    1
    33    15    31    1
@<TRIPOS>MOLECULE
mol23_1_16
 31 33 0 0 0
SMALL
USER_CHARGES
****
VDW energy = 67.88
@<TRIPOS>ATOM
   1 N1       -1.0416     2.9353    -0.6465  N.pl3   1  <O>11      -0.3510
   2 C1       -0.5730     1.5759    -0.5515  C.ar    1  <O>11       0.1323
   3 C2        0.6800     1.0694     0.1874  C.ar    1  <O>11       0.0701
   4 N2        1.7430     1.8830     0.7200  N.pl3   1  <O>11      -0.3123
   5 C3        2.9966     1.2697     1.1181  C.ar    1  <O>11       0.0314
   6 C4        3.8315     0.6733     0.1567  C.ar    1  <O>11      -0.0405
   7 C5        5.0340     0.0718     0.5428  C.ar    1  <O>11      -0.0600
   8 C6        5.4160     0.0617     1.8867  C.ar    1  <O>11      -0.0616
   9 C7        4.5884     0.6619     2.8428  C.ar    1  <O>11      -0.0600
  10 C8        3.3876     1.2655     2.4676  C.ar    1  <O>11      -0.0405
  11 C9        0.7349    -0.4680     0.3350  C.ar    1  <O>11       0.0405
  12 C10       1.7678    -0.9460     1.3794  C.ar    1  <O>11      -0.0492
  13 C11       1.2888    -0.7731     2.8287  C.ar    1  <O>11      -0.0609
  14 C12      -0.0890    -1.4086     3.0474  C.ar    1  <O>11      -0.0582
  15 C13      -1.1225    -0.8741     2.0475  C.ar    1  <O>11      -0.0186
  16 C14      -0.6733    -1.0760     0.5906  C.ar    1  <O>11       0.1409
  17 O1       -1.7385    -0.5809    -0.2821  O.2     1  <O>11      -0.4208
  18 C15      -1.3512     0.4485    -1.2339  C.ar    1  <O>11       0.3601
  19 O2       -1.6242     0.4671    -2.6151  O.2     1  <O>11      -0.2430
  20 H1       -1.8920     3.1462    -1.1686  H       1  <O>11       0.1426
  21 H2       -0.5228     3.6865    -0.1916  H       1  <O>11       0.1426
  22 H3        1.6151     2.8907     0.8166  H       1  <O>11       0.1522
  23 H4        3.5561     0.6795    -0.8379  H       1  <O>11       0.0636
  24 H5        5.6413    -0.3660    -0.1676  H       1  <O>11       0.0618
  25 H6        6.3014    -0.3849     2.1722  H       1  <O>11       0.0618
  26 H7        4.8694     0.6580     3.8358  H       1  <O>11       0.0618
  27 H8        2.7873     1.7084     3.1806  H       1  <O>11       0.0636
  28 H9        2.6873    -1.3418     1.1287  H       1  <O>11       0.0625
  29 H10       1.8277    -0.2892     3.5639  H       1  <O>11       0.0618
  30 H11      -0.2956    -2.1090     3.7767  H       1  <O>11       0.0619
  31 H12      -2.0139    -0.4314     2.3203  H       1  <O>11       0.0654
@<TRIPOS>BOND
     1     1     2    1
     2     2     3   ar
     3     3     4    1
     4     4     5    1
     5     5     6   ar
     6     6     7   ar
     7     7     8   ar
     8     8     9   ar
     9     9    10   ar
    10     5    10   ar
    11     3    11   ar
    12    11    12   ar
    13    12    13   ar
    14    13    14   ar
    15    14    15   ar
    16    15    16   ar
    17    11    16   ar
    18    16    17   ar
    19    17    18   ar
    20     2    18   ar
    21    18    19    2
    22     1    20    1
    23     1    21    1
    24     4    22    1
    25     6    23    1
    26     7    24    1
    27     8    25    1
    28     9    26    1
    29    10    27    1
    30    12    28    1
    31    13    29    1
    32    14    30    1
    33    15    31    1
@<TRIPOS>MOLECULE
mol23_1_17
 31 33 0 0 0
SMALL
USER_CHARGES
****
VDW energy = 86.01
@<TRIPOS>ATOM
   1 N1       -1.0416     2.9353    -0.6465  N.pl3   1  <O>11      -0.3510
   2 C1       -0.5730     1.5759    -0.5515  C.ar    1  <O>11       0.1323
   3 C2        0.6800     1.0694     0.1874  C.ar    1  <O>11       0.0701
   4 N2        1.7430     1.8830     0.7200  N.pl3   1  <O>11      -0.3123
   5 C3        1.4795     2.7923     1.8199  C.ar    1  <O>11       0.0314
   6 C4        0.6234     3.8933     1.6408  C.ar    1  <O>11      -0.0405
   7 C5        0.3794     4.7761     2.6981  C.ar    1  <O>11      -0.0600
   8 C6        0.9822     4.5688     3.9413  C.ar    1  <O>11      -0.0616
   9 C7        1.8285     3.4685     4.1218  C.ar    1  <O>11      -0.0600
  10 C8        2.0774     2.5816     3.0738  C.ar    1  <O>11      -0.0405
  11 C9        0.7349    -0.4680     0.3350  C.ar    1  <O>11       0.0405
  12 C10       1.7678    -0.9460     1.3794  C.ar    1  <O>11      -0.0492
  13 C11       1.2888    -0.7731     2.8287  C.ar    1  <O>11      -0.0609
  14 C12      -0.0890    -1.4086     3.0474  C.ar    1  <O>11      -0.0582
  15 C13      -1.1225    -0.8741     2.0475  C.ar    1  <O>11      -0.0186
  16 C14      -0.6733    -1.0760     0.5906  C.ar    1  <O>11       0.1409
  17 O1       -1.7385    -0.5809    -0.2821  O.2     1  <O>11      -0.4208
  18 C15      -1.3512     0.4485    -1.2339  C.ar    1  <O>11       0.3601
  19 O2       -1.6242     0.4671    -2.6151  O.2     1  <O>11      -0.2430
  20 H1       -1.8920     3.1462    -1.1686  H       1  <O>11       0.1426
  21 H2       -0.5228     3.6865    -0.1916  H       1  <O>11       0.1426
  22 H3        2.6815     1.8195     0.3246  H       1  <O>11       0.1522
  23 H4        0.1733     4.0507     0.7255  H       1  <O>11       0.0636
  24 H5       -0.2483     5.5835     2.5594  H       1  <O>11       0.0618
  25 H6        0.8050     5.2218     4.7205  H       1  <O>11       0.0618
  26 H7        2.2731     3.3116     5.0398  H       1  <O>11       0.0618
  27 H8        2.7000     1.7716     3.2195  H       1  <O>11       0.0636
  28 H9        2.6873    -1.3418     1.1287  H       1  <O>11       0.0625
  29 H10       1.8277    -0.2892     3.5639  H       1  <O>11       0.0618
  30 H11      -0.2956    -2.1090     3.7767  H       1  <O>11       0.0619
  31 H12      -2.0139    -0.4314     2.3203  H       1  <O>11       0.0654
@<TRIPOS>BOND
     1     1     2    1
     2     2     3   ar
     3     3     4    1
     4     4     5    1
     5     5     6   ar
     6     6     7   ar
     7     7     8   ar
     8     8     9   ar
     9     9    10   ar
    10     5    10   ar
    11     3    11   ar
    12    11    12   ar
    13    12    13   ar
    14    13    14   ar
    15    14    15   ar
    16    15    16   ar
    17    11    16   ar
    18    16    17   ar
    19    17    18   ar
    20     2    18   ar
    21    18    19    2
    22     1    20    1
    23     1    21    1
    24     4    22    1
    25     6    23    1
    26     7    24    1
    27     8    25    1
    28     9    26    1
    29    10    27    1
    30    12    28    1
    31    13    29    1
    32    14    30    1
    33    15    31    1
@<TRIPOS>MOLECULE
mol23_1_18
 31 33 0 0 0
SMALL
USER_CHARGES
****
VDW energy = 91.84
@<TRIPOS>ATOM
   1 N1       -1.0416     2.9353    -0.6465  N.pl3   1  <O>11      -0.3510
   2 C1       -0.5730     1.5759    -0.5515  C.ar    1  <O>11       0.1323
   3 C2        0.6800     1.0694     0.1874  C.ar    1  <O>11       0.0701
   4 N2        1.7430     1.8830     0.7200  N.pl3   1  <O>11      -0.3123
   5 C3        1.6666     2.3758     2.0829  C.ar    1  <O>11       0.0314
   6 C4        2.1966     1.6181     3.1421  C.ar    1  <O>11      -0.0405
   7 C5        2.1119     2.0883     4.4569  C.ar    1  <O>11      -0.0600
   8 C6        1.5025     3.3161     4.7272  C.ar    1  <O>11      -0.0616
   9 C7        0.9815     4.0739     3.6718  C.ar    1  <O>11      -0.0600
  10 C8        1.0620     3.6142     2.3569  C.ar    1  <O>11      -0.0405
  11 C9        0.7349    -0.4680     0.3350  C.ar    1  <O>11       0.0405
  12 C10       1.7678    -0.9460     1.3794  C.ar    1  <O>11      -0.0492
  13 C11       1.2888    -0.7731     2.8287  C.ar    1  <O>11      -0.0609
  14 C12      -0.0890    -1.4086     3.0474  C.ar    1  <O>11      -0.0582
  15 C13      -1.1225    -0.8741     2.0475  C.ar    1  <O>11      -0.0186
  16 C14      -0.6733    -1.0760     0.5906  C.ar    1  <O>11       0.1409
  17 O1       -1.7385    -0.5809    -0.2821  O.2     1  <O>11      -0.4208
  18 C15      -1.3512     0.4485    -1.2339  C.ar    1  <O>11       0.3601
  19 O2       -1.6242     0.4671    -2.6151  O.2     1  <O>11      -0.2430
  20 H1       -1.8920     3.1462    -1.1686  H       1  <O>11       0.1426
  21 H2       -0.5228     3.6865    -0.1916  H       1  <O>11       0.1426
  22 H3        2.5502     2.1122     0.1395  H       1  <O>11       0.1522
  23 H4        2.6500     0.7114     2.9488  H       1  <O>11       0.0636
  24 H5        2.5011     1.5263     5.2300  H       1  <O>11       0.0618
  25 H6        1.4368     3.6617     5.6973  H       1  <O>11       0.0618
  26 H7        0.5330     4.9823     3.8685  H       1  <O>11       0.0618
  27 H8        0.6780     4.1831     1.5864  H       1  <O>11       0.0636
  28 H9        2.6873    -1.3418     1.1287  H       1  <O>11       0.0625
  29 H10       1.8277    -0.2892     3.5639  H       1  <O>11       0.0618
  30 H11      -0.2956    -2.1090     3.7767  H       1  <O>11       0.0619
  31 H12      -2.0139    -0.4314     2.3203  H       1  <O>11       0.0654
@<TRIPOS>BOND
     1     1     2    1
     2     2     3   ar
     3     3     4    1
     4     4     5    1
     5     5     6   ar
     6     6     7   ar
     7     7     8   ar
     8     8     9   ar
     9     9    10   ar
    10     5    10   ar
    11     3    11   ar
    12    11    12   ar
    13    12    13   ar
    14    13    14   ar
    15    14    15   ar
    16    15    16   ar
    17    11    16   ar
    18    16    17   ar
    19    17    18   ar
    20     2    18   ar
    21    18    19    2
    22     1    20    1
    23     1    21    1
    24     4    22    1
    25     6    23    1
    26     7    24    1
    27     8    25    1
    28     9    26    1
    29    10    27    1
    30    12    28    1
    31    13    29    1
    32    14    30    1
    33    15    31    1
@<TRIPOS>MOLECULE
mol23_1_19
 31 33 0 0 0
SMALL
USER_CHARGES
****
VDW energy = 93.43
@<TRIPOS>ATOM
   1 N1       -1.0416     2.9353    -0.6465  N.pl3   1  <O>11      -0.3510
   2 C1       -0.5730     1.5759    -0.5515  C.ar    1  <O>11       0.1323
   3 C2        0.6800     1.0694     0.1874  C.ar    1  <O>11       0.0701
   4 N2        1.7430     1.8830     0.7200  N.pl3   1  <O>11      -0.3123
   5 C3        1.6666     2.3758     2.0829  C.ar    1  <O>11       0.0314
   6 C4        1.0617     3.6154     2.3562  C.ar    1  <O>11      -0.0405
   7 C5        0.9991     4.0953     3.6688  C.ar    1  <O>11      -0.0600
   8 C6        1.5345     3.3449     4.7186  C.ar    1  <O>11      -0.0616
   9 C7        2.1299     2.1074     4.4474  C.ar    1  <O>11      -0.0600
  10 C8        2.1963     1.6195     3.1418  C.ar    1  <O>11      -0.0405
  11 C9        0.7349    -0.4680     0.3350  C.ar    1  <O>11       0.0405
  12 C10       1.7678    -0.9460     1.3794  C.ar    1  <O>11      -0.0492
  13 C11       1.2888    -0.7731     2.8287  C.ar    1  <O>11      -0.0609
  14 C12      -0.0890    -1.4086     3.0474  C.ar    1  <O>11      -0.0582
  15 C13      -1.1225    -0.8741     2.0475  C.ar    1  <O>11      -0.0186
  16 C14      -0.6733    -1.0760     0.5906  C.ar    1  <O>11       0.1409
  17 O1       -1.7385    -0.5809    -0.2821  O.2     1  <O>11      -0.4208
  18 C15      -1.3512     0.4485    -1.2339  C.ar    1  <O>11       0.3601
  19 O2       -1.6242     0.4671    -2.6151  O.2     1  <O>11      -0.2430
  20 H1       -1.8920     3.1462    -1.1686  H       1  <O>11       0.1426
  21 H2       -0.5228     3.6865    -0.1916  H       1  <O>11       0.1426
  22 H3        2.5502     2.1122     0.1395  H       1  <O>11       0.1522
  23 H4        0.6624     4.1734     1.5854  H       1  <O>11       0.0636
  24 H5        0.5557     5.0069     3.8623  H       1  <O>11       0.0618
  25 H6        1.4914     3.7001     5.6865  H       1  <O>11       0.0618
  26 H7        2.5239     1.5499     5.2213  H       1  <O>11       0.0618
  27 H8        2.6341     0.7041     2.9542  H       1  <O>11       0.0636
  28 H9        2.6873    -1.3418     1.1287  H       1  <O>11       0.0625
  29 H10       1.8277    -0.2892     3.5639  H       1  <O>11       0.0618
  30 H11      -0.2956    -2.1090     3.7767  H       1  <O>11       0.0619
  31 H12      -2.0139    -0.4314     2.3203  H       1  <O>11       0.0654
@<TRIPOS>BOND
     1     1     2    1
     2     2     3   ar
     3     3     4    1
     4     4     5    1
     5     5     6   ar
     6     6     7   ar
     7     7     8   ar
     8     8     9   ar
     9     9    10   ar
    10     5    10   ar
    11     3    11   ar
    12    11    12   ar
    13    12    13   ar
    14    13    14   ar
    15    14    15   ar
    16    15    16   ar
    17    11    16   ar
    18    16    17   ar
    19    17    18   ar
    20     2    18   ar
    21    18    19    2
    22     1    20    1
    23     1    21    1
    24     4    22    1
    25     6    23    1
    26     7    24    1
    27     8    25    1
    28     9    26    1
    29    10    27    1
    30    12    28    1
    31    13    29    1
    32    14    30    1
    33    15    31    1
@<TRIPOS>MOLECULE
mol23_2_1
 31 33 0 0 0
SMALL
USER_CHARGES
****
VDW energy = 53.17
@<TRIPOS>ATOM
   1 N1       -1.0416     2.9353    -0.6465  N.pl3   1  <O>11      -0.3510
   2 C1       -0.5730     1.5759    -0.5515  C.ar    1  <O>11       0.1323
   3 C2        0.6800     1.0694     0.1874  C.ar    1  <O>11       0.0701
   4 N2        1.7430     1.8830     0.7200  N.pl3   1  <O>11      -0.3123
   5 C3        2.5958     2.6410    -0.1768  C.ar    1  <O>11       0.0314
   6 C4        3.4504     1.9762    -1.0734  C.ar    1  <O>11      -0.0405
   7 C5        4.2806     2.7076    -1.9302  C.ar    1  <O>11      -0.0600
   8 C6        4.2652     4.1043    -1.9017  C.ar    1  <O>11      -0.0616
   9 C7        3.4083     4.7660    -1.0132  C.ar    1  <O>11      -0.0600
  10 C8        2.5754     4.0456    -0.1564  C.ar    1  <O>11      -0.0405
  11 C9        0.7349    -0.4680     0.3350  C.ar    1  <O>11       0.0405
  12 C10       1.7678    -0.9460     1.3794  C.ar    1  <O>11      -0.0492
  13 C11       1.2888    -0.7731     2.8287  C.ar    1  <O>11      -0.0609
  14 C12      -0.0890    -1.4086     3.0474  C.ar    1  <O>11      -0.0582
  15 C13      -1.1225    -0.8741     2.0475  C.ar    1  <O>11      -0.0186
  16 C14      -0.6733    -1.0760     0.5906  C.ar    1  <O>11       0.1409
  17 O1       -1.7385    -0.5809    -0.2821  O.2     1  <O>11      -0.4208
  18 C15      -1.3512     0.4485    -1.2339  C.ar    1  <O>11       0.3601
  19 O2       -1.6242     0.4671    -2.6151  O.2     1  <O>11      -0.2430
  20 H1       -1.8920     3.1462    -1.1686  H       1  <O>11       0.1426
  21 H2       -0.5228     3.6865    -0.1916  H       1  <O>11       0.1426
  22 H3        1.8960     1.9272     1.7279  H       1  <O>11       0.1522
  23 H4        3.4656     0.9446    -1.0998  H       1  <O>11       0.0636
  24 H5        4.9064     2.2135    -2.5854  H       1  <O>11       0.0618
  25 H6        4.8804     4.6442    -2.5303  H       1  <O>11       0.0618
  26 H7        3.3927     5.7977    -0.9920  H       1  <O>11       0.0618
  27 H8        1.9452     4.5439     0.4914  H       1  <O>11       0.0636
  28 H9        2.6873    -1.3418     1.1287  H       1  <O>11       0.0625
  29 H10       1.8277    -0.2892     3.5639  H       1  <O>11       0.0618
  30 H11      -0.2956    -2.1090     3.7767  H       1  <O>11       0.0619
  31 H12      -2.0139    -0.4314     2.3203  H       1  <O>11       0.0654
@<TRIPOS>BOND
     1     1     2    1
     2     2     3   ar
     3     3     4    1
     4     4     5    1
     5     5     6   ar
     6     6     7   ar
     7     7     8   ar
     8     8     9   ar
     9     9    10   ar
    10     5    10   ar
    11     3    11   ar
    12    11    12   ar
    13    12    13   ar
    14    13    14   ar
    15    14    15   ar
    16    15    16   ar
    17    11    16   ar
    18    16    17   ar
    19    17    18   ar
    20     2    18   ar
    21    18    19    2
    22     1    20    1
    23     1    21    1
    24     4    22    1
    25     6    23    1
    26     7    24    1
    27     8    25    1
    28     9    26    1
    29    10    27    1
    30    12    28    1
    31    13    29    1
    32    14    30    1
    33    15    31    1
@<TRIPOS>MOLECULE
mol23_2_2
 31 33 0 0 0
SMALL
USER_CHARGES
****
VDW energy = 53.48
@<TRIPOS>ATOM
   1 N1       -1.0416     2.9353    -0.6465  N.pl3   1  <O>11      -0.3510
   2 C1       -0.5730     1.5759    -0.5515  C.ar    1  <O>11       0.1323
   3 C2        0.6800     1.0694     0.1874  C.ar    1  <O>11       0.0701
   4 N2        1.7430     1.8830     0.7200  N.pl3   1  <O>11      -0.3123
   5 C3        2.8904     2.2099    -0.1063  C.ar    1  <O>11       0.0314
   6 C4        2.7367     3.0206    -1.2443  C.ar    1  <O>11      -0.0405
   7 C5        3.8416     3.3263    -2.0469  C.ar    1  <O>11      -0.0600
   8 C6        5.1061     2.8289    -1.7221  C.ar    1  <O>11      -0.0616
   9 C7        5.2598     2.0271    -0.5841  C.ar    1  <O>11      -0.0600
  10 C8        4.1646     1.7184     0.2235  C.ar    1  <O>11      -0.0405
  11 C9        0.7349    -0.4680     0.3350  C.ar    1  <O>11       0.0405
  12 C10       1.7678    -0.9460     1.3794  C.ar    1  <O>11      -0.0492
  13 C11       1.2888    -0.7731     2.8287  C.ar    1  <O>11      -0.0609
  14 C12      -0.0890    -1.4086     3.0474  C.ar    1  <O>11      -0.0582
  15 C13      -1.1225    -0.8741     2.0475  C.ar    1  <O>11      -0.0186
  16 C14      -0.6733    -1.0760     0.5906  C.ar    1  <O>11       0.1409
  17 O1       -1.7385    -0.5809    -0.2821  O.2     1  <O>11      -0.4208
  18 C15      -1.3512     0.4485    -1.2339  C.ar    1  <O>11       0.3601
  19 O2       -1.6242     0.4671    -2.6151  O.2     1  <O>11      -0.2430
  20 H1       -1.8920     3.1462    -1.1686  H       1  <O>11       0.1426
  21 H2       -0.5228     3.6865    -0.1916  H       1  <O>11       0.1426
  22 H3        1.6890     2.2303     1.6779  H       1  <O>11       0.1522
  23 H4        1.8054     3.3917    -1.4890  H       1  <O>11       0.0636
  24 H5        3.7219     3.9213    -2.8816  H       1  <O>11       0.0618
  25 H6        5.9205     3.0505    -2.3160  H       1  <O>11       0.0618
  26 H7        6.1932     1.6608    -0.3401  H       1  <O>11       0.0618
  27 H8        4.2904     1.1298     1.0619  H       1  <O>11       0.0636
  28 H9        2.6873    -1.3418     1.1287  H       1  <O>11       0.0625
  29 H10       1.8277    -0.2892     3.5639  H       1  <O>11       0.0618
  30 H11      -0.2956    -2.1090     3.7767  H       1  <O>11       0.0619
  31 H12      -2.0139    -0.4314     2.3203  H       1  <O>11       0.0654
@<TRIPOS>BOND
     1     1     2    1
     2     2     3   ar
     3     3     4    1
     4     4     5    1
     5     5     6   ar
     6     6     7   ar
     7     7     8   ar
     8     8     9   ar
     9     9    10   ar
    10     5    10   ar
    11     3    11   ar
    12    11    12   ar
    13    12    13   ar
    14    13    14   ar
    15    14    15   ar
    16    15    16   ar
    17    11    16   ar
    18    16    17   ar
    19    17    18   ar
    20     2    18   ar
    21    18    19    2
    22     1    20    1
    23     1    21    1
    24     4    22    1
    25     6    23    1
    26     7    24    1
    27     8    25    1
    28     9    26    1
    29    10    27    1
    30    12    28    1
    31    13    29    1
    32    14    30    1
    33    15    31    1
@<TRIPOS>MOLECULE
mol23_2_3
 31 33 0 0 0
SMALL
USER_CHARGES
****
VDW energy = 53.58
@<TRIPOS>ATOM
   1 N1       -1.0416     2.9353    -0.6465  N.pl3   1  <O>11      -0.3510
   2 C1       -0.5730     1.5759    -0.5515  C.ar    1  <O>11       0.1323
   3 C2        0.6800     1.0694     0.1874  C.ar    1  <O>11       0.0701
   4 N2        1.7430     1.8830     0.7200  N.pl3   1  <O>11      -0.3123
   5 C3        2.8904     2.2099    -0.1063  C.ar    1  <O>11       0.0314
   6 C4        2.8836     3.3681    -0.9029  C.ar    1  <O>11      -0.0405
   7 C5        3.9859     3.6769    -1.7078  C.ar    1  <O>11      -0.0600
   8 C6        5.1020     2.8367    -1.7247  C.ar    1  <O>11      -0.0616
   9 C7        5.1110     1.6867    -0.9254  C.ar    1  <O>11      -0.0600
  10 C8        4.0176     1.3713    -0.1179  C.ar    1  <O>11      -0.0405
  11 C9        0.7349    -0.4680     0.3350  C.ar    1  <O>11       0.0405
  12 C10       1.7678    -0.9460     1.3794  C.ar    1  <O>11      -0.0492
  13 C11       1.2888    -0.7731     2.8287  C.ar    1  <O>11      -0.0609
  14 C12      -0.0890    -1.4086     3.0474  C.ar    1  <O>11      -0.0582
  15 C13      -1.1225    -0.8741     2.0475  C.ar    1  <O>11      -0.0186
  16 C14      -0.6733    -1.0760     0.5906  C.ar    1  <O>11       0.1409
  17 O1       -1.7385    -0.5809    -0.2821  O.2     1  <O>11      -0.4208
  18 C15      -1.3512     0.4485    -1.2339  C.ar    1  <O>11       0.3601
  19 O2       -1.6242     0.4671    -2.6151  O.2     1  <O>11      -0.2430
  20 H1       -1.8920     3.1462    -1.1686  H       1  <O>11       0.1426
  21 H2       -0.5228     3.6865    -0.1916  H       1  <O>11       0.1426
  22 H3        1.6890     2.2303     1.6779  H       1  <O>11       0.1522
  23 H4        2.0625     3.9931    -0.8940  H       1  <O>11       0.0636
  24 H5        3.9742     4.5282    -2.2911  H       1  <O>11       0.0618
  25 H6        5.9134     3.0617    -2.3214  H       1  <O>11       0.0618
  26 H7        5.9353     1.0658    -0.9336  H       1  <O>11       0.0618
  27 H8        4.0370     0.5233     0.4700  H       1  <O>11       0.0636
  28 H9        2.6873    -1.3418     1.1287  H       1  <O>11       0.0625
  29 H10       1.8277    -0.2892     3.5639  H       1  <O>11       0.0618
  30 H11      -0.2956    -2.1090     3.7767  H       1  <O>11       0.0619
  31 H12      -2.0139    -0.4314     2.3203  H       1  <O>11       0.0654
@<TRIPOS>BOND
     1     1     2    1
     2     2     3   ar
     3     3     4    1
     4     4     5    1
     5     5     6   ar
     6     6     7   ar
     7     7     8   ar
     8     8     9   ar
     9     9    10   ar
    10     5    10   ar
    11     3    11   ar
    12    11    12   ar
    13    12    13   ar
    14    13    14   ar
    15    14    15   ar
    16    15    16   ar
    17    11    16   ar
    18    16    17   ar
    19    17    18   ar
    20     2    18   ar
    21    18    19    2
    22     1    20    1
    23     1    21    1
    24     4    22    1
    25     6    23    1
    26     7    24    1
    27     8    25    1
    28     9    26    1
    29    10    27    1
    30    12    28    1
    31    13    29    1
    32    14    30    1
    33    15    31    1
@<TRIPOS>MOLECULE
mol23_2_4
 31 33 0 0 0
SMALL
USER_CHARGES
****
VDW energy = 53.60
@<TRIPOS>ATOM
   1 N1       -1.0416     2.9353    -0.6465  N.pl3   1  <O>11      -0.3510
   2 C1       -0.5730     1.5759    -0.5515  C.ar    1  <O>11       0.1323
   3 C2        0.6800     1.0694     0.1874  C.ar    1  <O>11       0.0701
   4 N2        1.7430     1.8830     0.7200  N.pl3   1  <O>11      -0.3123
   5 C3        2.8904     2.2099    -0.1063  C.ar    1  <O>11       0.0314
   6 C4        4.0184     1.3711    -0.1171  C.ar    1  <O>11      -0.0405
   7 C5        5.1289     1.6926    -0.9055  C.ar    1  <O>11      -0.0600
   8 C6        5.1241     2.8494    -1.6890  C.ar    1  <O>11      -0.0616
   9 C7        3.9971     3.6809    -1.6832  C.ar    1  <O>11      -0.0600
  10 C8        2.8843     3.3678    -0.9020  C.ar    1  <O>11      -0.0405
  11 C9        0.7349    -0.4680     0.3350  C.ar    1  <O>11       0.0405
  12 C10       1.7678    -0.9460     1.3794  C.ar    1  <O>11      -0.0492
  13 C11       1.2888    -0.7731     2.8287  C.ar    1  <O>11      -0.0609
  14 C12      -0.0890    -1.4086     3.0474  C.ar    1  <O>11      -0.0582
  15 C13      -1.1225    -0.8741     2.0475  C.ar    1  <O>11      -0.0186
  16 C14      -0.6733    -1.0760     0.5906  C.ar    1  <O>11       0.1409
  17 O1       -1.7385    -0.5809    -0.2821  O.2     1  <O>11      -0.4208
  18 C15      -1.3512     0.4485    -1.2339  C.ar    1  <O>11       0.3601
  19 O2       -1.6242     0.4671    -2.6151  O.2     1  <O>11      -0.2430
  20 H1       -1.8920     3.1462    -1.1686  H       1  <O>11       0.1426
  21 H2       -0.5228     3.6865    -0.1916  H       1  <O>11       0.1426
  22 H3        1.6890     2.2303     1.6779  H       1  <O>11       0.1522
  23 H4        4.0276     0.5147     0.4588  H       1  <O>11       0.0636
  24 H5        5.9543     1.0731    -0.9083  H       1  <O>11       0.0618
  25 H6        5.9445     3.0893    -2.2673  H       1  <O>11       0.0618
  26 H7        3.9897     4.5344    -2.2632  H       1  <O>11       0.0618
  27 H8        2.0579     3.9859    -0.9086  H       1  <O>11       0.0636
  28 H9        2.6873    -1.3418     1.1287  H       1  <O>11       0.0625
  29 H10       1.8277    -0.2892     3.5639  H       1  <O>11       0.0618
  30 H11      -0.2956    -2.1090     3.7767  H       1  <O>11       0.0619
  31 H12      -2.0139    -0.4314     2.3203  H       1  <O>11       0.0654
@<TRIPOS>BOND
     1     1     2    1
     2     2     3   ar
     3     3     4    1
     4     4     5    1
     5     5     6   ar
     6     6     7   ar
     7     7     8   ar
     8     8     9   ar
     9     9    10   ar
    10     5    10   ar
    11     3    11   ar
    12    11    12   ar
    13    12    13   ar
    14    13    14   ar
    15    14    15   ar
    16    15    16   ar
    17    11    16   ar
    18    16    17   ar
    19    17    18   ar
    20     2    18   ar
    21    18    19    2
    22     1    20    1
    23     1    21    1
    24     4    22    1
    25     6    23    1
    26     7    24    1
    27     8    25    1
    28     9    26    1
    29    10    27    1
    30    12    28    1
    31    13    29    1
    32    14    30    1
    33    15    31    1
@<TRIPOS>MOLECULE
mol23_2_5
 31 33 0 0 0
SMALL
USER_CHARGES
****
VDW energy = 54.16
@<TRIPOS>ATOM
   1 N1       -1.0416     2.9353    -0.6465  N.pl3   1  <O>11      -0.3510
   2 C1       -0.5730     1.5759    -0.5515  C.ar    1  <O>11       0.1323
   3 C2        0.6800     1.0694     0.1874  C.ar    1  <O>11       0.0701
   4 N2        1.7430     1.8830     0.7200  N.pl3   1  <O>11      -0.3123
   5 C3        2.5958     2.6410    -0.1768  C.ar    1  <O>11       0.0314
   6 C4        2.2527     3.9549    -0.5400  C.ar    1  <O>11      -0.0405
   7 C5        3.0697     4.6813    -1.4136  C.ar    1  <O>11      -0.0600
   8 C6        4.2334     4.1062    -1.9304  C.ar    1  <O>11      -0.0616
   9 C7        4.5783     2.7997    -1.5624  C.ar    1  <O>11      -0.0600
  10 C8        3.7713     2.0680    -0.6905  C.ar    1  <O>11      -0.0405
  11 C9        0.7349    -0.4680     0.3350  C.ar    1  <O>11       0.0405
  12 C10       1.7678    -0.9460     1.3794  C.ar    1  <O>11      -0.0492
  13 C11       1.2888    -0.7731     2.8287  C.ar    1  <O>11      -0.0609
  14 C12      -0.0890    -1.4086     3.0474  C.ar    1  <O>11      -0.0582
  15 C13      -1.1225    -0.8741     2.0475  C.ar    1  <O>11      -0.0186
  16 C14      -0.6733    -1.0760     0.5906  C.ar    1  <O>11       0.1409
  17 O1       -1.7385    -0.5809    -0.2821  O.2     1  <O>11      -0.4208
  18 C15      -1.3512     0.4485    -1.2339  C.ar    1  <O>11       0.3601
  19 O2       -1.6242     0.4671    -2.6151  O.2     1  <O>11      -0.2430
  20 H1       -1.8920     3.1462    -1.1686  H       1  <O>11       0.1426
  21 H2       -0.5228     3.6865    -0.1916  H       1  <O>11       0.1426
  22 H3        1.8960     1.9272     1.7279  H       1  <O>11       0.1522
  23 H4        1.3949     4.3855    -0.1609  H       1  <O>11       0.0636
  24 H5        2.8117     5.6452    -1.6771  H       1  <O>11       0.0618
  25 H6        4.8340     4.6399    -2.5780  H       1  <O>11       0.0618
  26 H7        5.4389     2.3734    -1.9403  H       1  <O>11       0.0618
  27 H8        4.0375     1.1074    -0.4233  H       1  <O>11       0.0636
  28 H9        2.6873    -1.3418     1.1287  H       1  <O>11       0.0625
  29 H10       1.8277    -0.2892     3.5639  H       1  <O>11       0.0618
  30 H11      -0.2956    -2.1090     3.7767  H       1  <O>11       0.0619
  31 H12      -2.0139    -0.4314     2.3203  H       1  <O>11       0.0654
@<TRIPOS>BOND
     1     1     2    1
     2     2     3   ar
     3     3     4    1
     4     4     5    1
     5     5     6   ar
     6     6     7   ar
     7     7     8   ar
     8     8     9   ar
     9     9    10   ar
    10     5    10   ar
    11     3    11   ar
    12    11    12   ar
    13    12    13   ar
    14    13    14   ar
    15    14    15   ar
    16    15    16   ar
    17    11    16   ar
    18    16    17   ar
    19    17    18   ar
    20     2    18   ar
    21    18    19    2
    22     1    20    1
    23     1    21    1
    24     4    22    1
    25     6    23    1
    26     7    24    1
    27     8    25    1
    28     9    26    1
    29    10    27    1
    30    12    28    1
    31    13    29    1
    32    14    30    1
    33    15    31    1
@<TRIPOS>MOLECULE
mol23_2_6
 31 33 0 0 0
SMALL
USER_CHARGES
****
VDW energy = 54.20
@<TRIPOS>ATOM
   1 N1       -1.0416     2.9353    -0.6465  N.pl3   1  <O>11      -0.3510
   2 C1       -0.5730     1.5759    -0.5515  C.ar    1  <O>11       0.1323
   3 C2        0.6800     1.0694     0.1874  C.ar    1  <O>11       0.0701
   4 N2        1.7430     1.8830     0.7200  N.pl3   1  <O>11      -0.3123
   5 C3        2.5958     2.6410    -0.1768  C.ar    1  <O>11       0.0314
   6 C4        3.7723     2.0677    -0.6900  C.ar    1  <O>11      -0.0405
   7 C5        4.5999     2.8029    -1.5459  C.ar    1  <O>11      -0.0600
   8 C6        4.2623     4.1122    -1.8979  C.ar    1  <O>11      -0.0616
   9 C7        3.0863     4.6802    -1.3919  C.ar    1  <O>11      -0.0600
  10 C8        2.2536     3.9545    -0.5394  C.ar    1  <O>11      -0.0405
  11 C9        0.7349    -0.4680     0.3350  C.ar    1  <O>11       0.0405
  12 C10       1.7678    -0.9460     1.3794  C.ar    1  <O>11      -0.0492
  13 C11       1.2888    -0.7731     2.8287  C.ar    1  <O>11      -0.0609
  14 C12      -0.0890    -1.4086     3.0474  C.ar    1  <O>11      -0.0582
  15 C13      -1.1225    -0.8741     2.0475  C.ar    1  <O>11      -0.0186
  16 C14      -0.6733    -1.0760     0.5906  C.ar    1  <O>11       0.1409
  17 O1       -1.7385    -0.5809    -0.2821  O.2     1  <O>11      -0.4208
  18 C15      -1.3512     0.4485    -1.2339  C.ar    1  <O>11       0.3601
  19 O2       -1.6242     0.4671    -2.6151  O.2     1  <O>11      -0.2430
  20 H1       -1.8920     3.1462    -1.1686  H       1  <O>11       0.1426
  21 H2       -0.5228     3.6865    -0.1916  H       1  <O>11       0.1426
  22 H3        1.8960     1.9272     1.7279  H       1  <O>11       0.1522
  23 H4        4.0266     1.1007    -0.4345  H       1  <O>11       0.0636
  24 H5        5.4628     2.3766    -1.9185  H       1  <O>11       0.0618
  25 H6        4.8745     4.6564    -2.5256  H       1  <O>11       0.0618
  26 H7        2.8329     5.6461    -1.6525  H       1  <O>11       0.0618
  27 H8        1.3875     4.3820    -0.1758  H       1  <O>11       0.0636
  28 H9        2.6873    -1.3418     1.1287  H       1  <O>11       0.0625
  29 H10       1.8277    -0.2892     3.5639  H       1  <O>11       0.0618
  30 H11      -0.2956    -2.1090     3.7767  H       1  <O>11       0.0619
  31 H12      -2.0139    -0.4314     2.3203  H       1  <O>11       0.0654
@<TRIPOS>BOND
     1     1     2    1
     2     2     3   ar
     3     3     4    1
     4     4     5    1
     5     5     6   ar
     6     6     7   ar
     7     7     8   ar
     8     8     9   ar
     9     9    10   ar
    10     5    10   ar
    11     3    11   ar
    12    11    12   ar
    13    12    13   ar
    14    13    14   ar
    15    14    15   ar
    16    15    16   ar
    17    11    16   ar
    18    16    17   ar
    19    17    18   ar
    20     2    18   ar
    21    18    19    2
    22     1    20    1
    23     1    21    1
    24     4    22    1
    25     6    23    1
    26     7    24    1
    27     8    25    1
    28     9    26    1
    29    10    27    1
    30    12    28    1
    31    13    29    1
    32    14    30    1
    33    15    31    1
@<TRIPOS>MOLECULE
mol23_2_7
 31 33 0 0 0
SMALL
USER_CHARGES
****
VDW energy = 54.52
@<TRIPOS>ATOM
   1 N1       -1.0416     2.9353    -0.6465  N.pl3   1  <O>11      -0.3510
   2 C1       -0.5730     1.5759    -0.5515  C.ar    1  <O>11       0.1323
   3 C2        0.6800     1.0694     0.1874  C.ar    1  <O>11       0.0701
   4 N2        1.7430     1.8830     0.7200  N.pl3   1  <O>11      -0.3123
   5 C3        2.8904     2.2099    -0.1063  C.ar    1  <O>11       0.0314
   6 C4        3.7718     1.1990    -0.5276  C.ar    1  <O>11      -0.0405
   7 C5        4.8841     1.5164    -1.3151  C.ar    1  <O>11      -0.0600
   8 C6        5.1263     2.8405    -1.6895  C.ar    1  <O>11      -0.0616
   9 C7        4.2438     3.8460    -1.2754  C.ar    1  <O>11      -0.0600
  10 C8        3.1308     3.5394    -0.4917  C.ar    1  <O>11      -0.0405
  11 C9        0.7349    -0.4680     0.3350  C.ar    1  <O>11       0.0405
  12 C10       1.7678    -0.9460     1.3794  C.ar    1  <O>11      -0.0492
  13 C11       1.2888    -0.7731     2.8287  C.ar    1  <O>11      -0.0609
  14 C12      -0.0890    -1.4086     3.0474  C.ar    1  <O>11      -0.0582
  15 C13      -1.1225    -0.8741     2.0475  C.ar    1  <O>11      -0.0186
  16 C14      -0.6733    -1.0760     0.5906  C.ar    1  <O>11       0.1409
  17 O1       -1.7385    -0.5809    -0.2821  O.2     1  <O>11      -0.4208
  18 C15      -1.3512     0.4485    -1.2339  C.ar    1  <O>11       0.3601
  19 O2       -1.6242     0.4671    -2.6151  O.2     1  <O>11      -0.2430
  20 H1       -1.8920     3.1462    -1.1686  H       1  <O>11       0.1426
  21 H2       -0.5228     3.6865    -0.1916  H       1  <O>11       0.1426
  22 H3        1.6890     2.2303     1.6779  H       1  <O>11       0.1522
  23 H4        3.5978     0.2190    -0.2551  H       1  <O>11       0.0636
  24 H5        5.5279     0.7698    -1.6204  H       1  <O>11       0.0618
  25 H6        5.9488     3.0757    -2.2667  H       1  <O>11       0.0618
  26 H7        4.4186     4.8245    -1.5529  H       1  <O>11       0.0618
  27 H8        2.4852     4.2881    -0.1956  H       1  <O>11       0.0636
  28 H9        2.6873    -1.3418     1.1287  H       1  <O>11       0.0625
  29 H10       1.8277    -0.2892     3.5639  H       1  <O>11       0.0618
  30 H11      -0.2956    -2.1090     3.7767  H       1  <O>11       0.0619
  31 H12      -2.0139    -0.4314     2.3203  H       1  <O>11       0.0654
@<TRIPOS>BOND
     1     1     2    1
     2     2     3   ar
     3     3     4    1
     4     4     5    1
     5     5     6   ar
     6     6     7   ar
     7     7     8   ar
     8     8     9   ar
     9     9    10   ar
    10     5    10   ar
    11     3    11   ar
    12    11    12   ar
    13    12    13   ar
    14    13    14   ar
    15    14    15   ar
    16    15    16   ar
    17    11    16   ar
    18    16    17   ar
    19    17    18   ar
    20     2    18   ar
    21    18    19    2
    22     1    20    1
    23     1    21    1
    24     4    22    1
    25     6    23    1
    26     7    24    1
    27     8    25    1
    28     9    26    1
    29    10    27    1
    30    12    28    1
    31    13    29    1
    32    14    30    1
    33    15    31    1
@<TRIPOS>MOLECULE
mol23_2_8
 31 33 0 0 0
SMALL
USER_CHARGES
****
VDW energy = 54.63
@<TRIPOS>ATOM
   1 N1       -1.0416     2.9353    -0.6465  N.pl3   1  <O>11      -0.3510
   2 C1       -0.5730     1.5759    -0.5515  C.ar    1  <O>11       0.1323
   3 C2        0.6800     1.0694     0.1874  C.ar    1  <O>11       0.0701
   4 N2        1.7430     1.8830     0.7200  N.pl3   1  <O>11      -0.3123
   5 C3        2.8904     2.2099    -0.1063  C.ar    1  <O>11       0.0314
   6 C4        4.1810     2.2347     0.4504  C.ar    1  <O>11      -0.0405
   7 C5        5.2857     2.5608    -0.3444  C.ar    1  <O>11      -0.0600
   8 C6        5.1141     2.8629    -1.6976  C.ar    1  <O>11      -0.0616
   9 C7        3.8288     2.8310    -2.2531  C.ar    1  <O>11      -0.0600
  10 C8        2.7214     2.5051    -1.4694  C.ar    1  <O>11      -0.0405
  11 C9        0.7349    -0.4680     0.3350  C.ar    1  <O>11       0.0405
  12 C10       1.7678    -0.9460     1.3794  C.ar    1  <O>11      -0.0492
  13 C11       1.2888    -0.7731     2.8287  C.ar    1  <O>11      -0.0609
  14 C12      -0.0890    -1.4086     3.0474  C.ar    1  <O>11      -0.0582
  15 C13      -1.1225    -0.8741     2.0475  C.ar    1  <O>11      -0.0186
  16 C14      -0.6733    -1.0760     0.5906  C.ar    1  <O>11       0.1409
  17 O1       -1.7385    -0.5809    -0.2821  O.2     1  <O>11      -0.4208
  18 C15      -1.3512     0.4485    -1.2339  C.ar    1  <O>11       0.3601
  19 O2       -1.6242     0.4671    -2.6151  O.2     1  <O>11      -0.2430
  20 H1       -1.8920     3.1462    -1.1686  H       1  <O>11       0.1426
  21 H2       -0.5228     3.6865    -0.1916  H       1  <O>11       0.1426
  22 H3        1.6890     2.2303     1.6779  H       1  <O>11       0.1522
  23 H4        4.3143     2.0116     1.4491  H       1  <O>11       0.0636
  24 H5        6.2304     2.5781     0.0706  H       1  <O>11       0.0618
  25 H6        5.9279     3.1077    -2.2831  H       1  <O>11       0.0618
  26 H7        3.6995     3.0509    -3.2531  H       1  <O>11       0.0618
  27 H8        1.7795     2.4809    -1.8905  H       1  <O>11       0.0636
  28 H9        2.6873    -1.3418     1.1287  H       1  <O>11       0.0625
  29 H10       1.8277    -0.2892     3.5639  H       1  <O>11       0.0618
  30 H11      -0.2956    -2.1090     3.7767  H       1  <O>11       0.0619
  31 H12      -2.0139    -0.4314     2.3203  H       1  <O>11       0.0654
@<TRIPOS>BOND
     1     1     2    1
     2     2     3   ar
     3     3     4    1
     4     4     5    1
     5     5     6   ar
     6     6     7   ar
     7     7     8   ar
     8     8     9   ar
     9     9    10   ar
    10     5    10   ar
    11     3    11   ar
    12    11    12   ar
    13    12    13   ar
    14    13    14   ar
    15    14    15   ar
    16    15    16   ar
    17    11    16   ar
    18    16    17   ar
    19    17    18   ar
    20     2    18   ar
    21    18    19    2
    22     1    20    1
    23     1    21    1
    24     4    22    1
    25     6    23    1
    26     7    24    1
    27     8    25    1
    28     9    26    1
    29    10    27    1
    30    12    28    1
    31    13    29    1
    32    14    30    1
    33    15    31    1
@<TRIPOS>MOLECULE
mol23_2_9
 31 33 0 0 0
SMALL
USER_CHARGES
****
VDW energy = 56.76
@<TRIPOS>ATOM
   1 N1       -1.0416     2.9353    -0.6465  N.pl3   1  <O>11      -0.3510
   2 C1       -0.5730     1.5759    -0.5515  C.ar    1  <O>11       0.1323
   3 C2        0.6800     1.0694     0.1874  C.ar    1  <O>11       0.0701
   4 N2        1.7430     1.8830     0.7200  N.pl3   1  <O>11      -0.3123
   5 C3        1.4795     2.7923     1.8199  C.ar    1  <O>11       0.0314
   6 C4        2.0810     4.0625     1.8494  C.ar    1  <O>11      -0.0405
   7 C5        1.8353     4.9346     2.9159  C.ar    1  <O>11      -0.0600
   8 C6        0.9891     4.5497     3.9588  C.ar    1  <O>11      -0.0616
   9 C7        0.3845     3.2868     3.9251  C.ar    1  <O>11      -0.0600
  10 C8        0.6217     2.4109     2.8652  C.ar    1  <O>11      -0.0405
  11 C9        0.7349    -0.4680     0.3350  C.ar    1  <O>11       0.0405
  12 C10       1.7678    -0.9460     1.3794  C.ar    1  <O>11      -0.0492
  13 C11       1.2888    -0.7731     2.8287  C.ar    1  <O>11      -0.0609
  14 C12      -0.0890    -1.4086     3.0474  C.ar    1  <O>11      -0.0582
  15 C13      -1.1225    -0.8741     2.0475  C.ar    1  <O>11      -0.0186
  16 C14      -0.6733    -1.0760     0.5906  C.ar    1  <O>11       0.1409
  17 O1       -1.7385    -0.5809    -0.2821  O.2     1  <O>11      -0.4208
  18 C15      -1.3512     0.4485    -1.2339  C.ar    1  <O>11       0.3601
  19 O2       -1.6242     0.4671    -2.6151  O.2     1  <O>11      -0.2430
  20 H1       -1.8920     3.1462    -1.1686  H       1  <O>11       0.1426
  21 H2       -0.5228     3.6865    -0.1916  H       1  <O>11       0.1426
  22 H3        2.6815     1.8195     0.3246  H       1  <O>11       0.1522
  23 H4        2.7063     4.3530     1.0816  H       1  <O>11       0.0636
  24 H5        2.2807     5.8654     2.9321  H       1  <O>11       0.0618
  25 H6        0.8109     5.1907     4.7476  H       1  <O>11       0.0618
  26 H7       -0.2434     3.0009     4.6926  H       1  <O>11       0.0618
  27 H8        0.1676     1.4843     2.8490  H       1  <O>11       0.0636
  28 H9        2.6873    -1.3418     1.1287  H       1  <O>11       0.0625
  29 H10       1.8277    -0.2892     3.5639  H       1  <O>11       0.0618
  30 H11      -0.2956    -2.1090     3.7767  H       1  <O>11       0.0619
  31 H12      -2.0139    -0.4314     2.3203  H       1  <O>11       0.0654
@<TRIPOS>BOND
     1     1     2    1
     2     2     3   ar
     3     3     4    1
     4     4     5    1
     5     5     6   ar
     6     6     7   ar
     7     7     8   ar
     8     8     9   ar
     9     9    10   ar
    10     5    10   ar
    11     3    11   ar
    12    11    12   ar
    13    12    13   ar
    14    13    14   ar
    15    14    15   ar
    16    15    16   ar
    17    11    16   ar
    18    16    17   ar
    19    17    18   ar
    20     2    18   ar
    21    18    19    2
    22     1    20    1
    23     1    21    1
    24     4    22    1
    25     6    23    1
    26     7    24    1
    27     8    25    1
    28     9    26    1
    29    10    27    1
    30    12    28    1
    31    13    29    1
    32    14    30    1
    33    15    31    1
@<TRIPOS>MOLECULE
mol23_2_10
 31 33 0 0 0
SMALL
USER_CHARGES
****
VDW energy = 59.73
@<TRIPOS>ATOM
   1 N1       -1.0416     2.9353    -0.6465  N.pl3   1  <O>11      -0.3510
   2 C1       -0.5730     1.5759    -0.5515  C.ar    1  <O>11       0.1323
   3 C2        0.6800     1.0694     0.1874  C.ar    1  <O>11       0.0701
   4 N2        1.7430     1.8830     0.7200  N.pl3   1  <O>11      -0.3123
   5 C3        1.6666     2.3758     2.0829  C.ar    1  <O>11       0.0314
   6 C4        0.6726     3.3005     2.4478  C.ar    1  <O>11      -0.0405
   7 C5        0.6063     3.7837     3.7594  C.ar    1  <O>11      -0.0600
   8 C6        1.5269     3.3497     4.7164  C.ar    1  <O>11      -0.0616
   9 C7        2.5125     2.4230     4.3539  C.ar    1  <O>11      -0.0600
  10 C8        2.5856     1.9338     3.0492  C.ar    1  <O>11      -0.0405
  11 C9        0.7349    -0.4680     0.3350  C.ar    1  <O>11       0.0405
  12 C10       1.7678    -0.9460     1.3794  C.ar    1  <O>11      -0.0492
  13 C11       1.2888    -0.7731     2.8287  C.ar    1  <O>11      -0.0609
  14 C12      -0.0890    -1.4086     3.0474  C.ar    1  <O>11      -0.0582
  15 C13      -1.1225    -0.8741     2.0475  C.ar    1  <O>11      -0.0186
  16 C14      -0.6733    -1.0760     0.5906  C.ar    1  <O>11       0.1409
  17 O1       -1.7385    -0.5809    -0.2821  O.2     1  <O>11      -0.4208
  18 C15      -1.3512     0.4485    -1.2339  C.ar    1  <O>11       0.3601
  19 O2       -1.6242     0.4671    -2.6151  O.2     1  <O>11      -0.2430
  20 H1       -1.8920     3.1462    -1.1686  H       1  <O>11       0.1426
  21 H2       -0.5228     3.6865    -0.1916  H       1  <O>11       0.1426
  22 H3        2.5502     2.1122     0.1395  H       1  <O>11       0.1522
  23 H4       -0.0109     3.6242     1.7456  H       1  <O>11       0.0636
  24 H5       -0.1253     4.4632     4.0207  H       1  <O>11       0.0618
  25 H6        1.4812     3.7090     5.6827  H       1  <O>11       0.0618
  26 H7        3.1921     2.0984     5.0595  H       1  <O>11       0.0618
  27 H8        3.3138     1.2482     2.7945  H       1  <O>11       0.0636
  28 H9        2.6873    -1.3418     1.1287  H       1  <O>11       0.0625
  29 H10       1.8277    -0.2892     3.5639  H       1  <O>11       0.0618
  30 H11      -0.2956    -2.1090     3.7767  H       1  <O>11       0.0619
  31 H12      -2.0139    -0.4314     2.3203  H       1  <O>11       0.0654
@<TRIPOS>BOND
     1     1     2    1
     2     2     3   ar
     3     3     4    1
     4     4     5    1
     5     5     6   ar
     6     6     7   ar
     7     7     8   ar
     8     8     9   ar
     9     9    10   ar
    10     5    10   ar
    11     3    11   ar
    12    11    12   ar
    13    12    13   ar
    14    13    14   ar
    15    14    15   ar
    16    15    16   ar
    17    11    16   ar
    18    16    17   ar
    19    17    18   ar
    20     2    18   ar
    21    18    19    2
    22     1    20    1
    23     1    21    1
    24     4    22    1
    25     6    23    1
    26     7    24    1
    27     8    25    1
    28     9    26    1
    29    10    27    1
    30    12    28    1
    31    13    29    1
    32    14    30    1
    33    15    31    1
@<TRIPOS>MOLECULE
mol23_2_11
 31 33 0 0 0
SMALL
USER_CHARGES
****
VDW energy = 59.82
@<TRIPOS>ATOM
   1 N1       -1.0416     2.9353    -0.6465  N.pl3   1  <O>11      -0.3510
   2 C1       -0.5730     1.5759    -0.5515  C.ar    1  <O>11       0.1323
   3 C2        0.6800     1.0694     0.1874  C.ar    1  <O>11       0.0701
   4 N2        1.7430     1.8830     0.7200  N.pl3   1  <O>11      -0.3123
   5 C3        2.5958     2.6410    -0.1768  C.ar    1  <O>11       0.0314
   6 C4        2.0644     3.6976    -0.9366  C.ar    1  <O>11      -0.0405
   7 C5        2.8848     4.4209    -1.8095  C.ar    1  <O>11      -0.0600
   8 C6        4.2389     4.0989    -1.9313  C.ar    1  <O>11      -0.0616
   9 C7        4.7692     3.0507    -1.1687  C.ar    1  <O>11      -0.0600
  10 C8        3.9597     2.3249    -0.2942  C.ar    1  <O>11      -0.0405
  11 C9        0.7349    -0.4680     0.3350  C.ar    1  <O>11       0.0405
  12 C10       1.7678    -0.9460     1.3794  C.ar    1  <O>11      -0.0492
  13 C11       1.2888    -0.7731     2.8287  C.ar    1  <O>11      -0.0609
  14 C12      -0.0890    -1.4086     3.0474  C.ar    1  <O>11      -0.0582
  15 C13      -1.1225    -0.8741     2.0475  C.ar    1  <O>11      -0.0186
  16 C14      -0.6733    -1.0760     0.5906  C.ar    1  <O>11       0.1409
  17 O1       -1.7385    -0.5809    -0.2821  O.2     1  <O>11      -0.4208
  18 C15      -1.3512     0.4485    -1.2339  C.ar    1  <O>11       0.3601
  19 O2       -1.6242     0.4671    -2.6151  O.2     1  <O>11      -0.2430
  20 H1       -1.8920     3.1462    -1.1686  H       1  <O>11       0.1426
  21 H2       -0.5228     3.6865    -0.1916  H       1  <O>11       0.1426
  22 H3        1.8960     1.9272     1.7279  H       1  <O>11       0.1522
  23 H4        1.0652     3.9408    -0.8503  H       1  <O>11       0.0636
  24 H5        2.4883     5.1949    -2.3651  H       1  <O>11       0.0618
  25 H6        4.8435     4.6292    -2.5781  H       1  <O>11       0.0618
  26 H7        5.7697     2.8126    -1.2545  H       1  <O>11       0.0618
  27 H8        4.3623     1.5571     0.2656  H       1  <O>11       0.0636
  28 H9        2.6873    -1.3418     1.1287  H       1  <O>11       0.0625
  29 H10       1.8277    -0.2892     3.5639  H       1  <O>11       0.0618
  30 H11      -0.2956    -2.1090     3.7767  H       1  <O>11       0.0619
  31 H12      -2.0139    -0.4314     2.3203  H       1  <O>11       0.0654
@<TRIPOS>BOND
     1     1     2    1
     2     2     3   ar
     3     3     4    1
     4     4     5    1
     5     5     6   ar
     6     6     7   ar
     7     7     8   ar
     8     8     9   ar
     9     9    10   ar
    10     5    10   ar
    11     3    11   ar
    12    11    12   ar
    13    12    13   ar
    14    13    14   ar
    15    14    15   ar
    16    15    16   ar
    17    11    16   ar
    18    16    17   ar
    19    17    18   ar
    20     2    18   ar
    21    18    19    2
    22     1    20    1
    23     1    21    1
    24     4    22    1
    25     6    23    1
    26     7    24    1
    27     8    25    1
    28     9    26    1
    29    10    27    1
    30    12    28    1
    31    13    29    1
    32    14    30    1
    33    15    31    1
@<TRIPOS>MOLECULE
mol23_2_12
 31 33 0 0 0
SMALL
USER_CHARGES
****
VDW energy = 61.46
@<TRIPOS>ATOM
   1 N1       -1.0416     2.9353    -0.6465  N.pl3   1  <O>11      -0.3510
   2 C1       -0.5730     1.5759    -0.5515  C.ar    1  <O>11       0.1323
   3 C2        0.6800     1.0694     0.1874  C.ar    1  <O>11       0.0701
   4 N2        1.7430     1.8830     0.7200  N.pl3   1  <O>11      -0.3123
   5 C3        2.5958     2.6410    -0.1768  C.ar    1  <O>11       0.0314
   6 C4        3.9741     2.7490     0.0777  C.ar    1  <O>11      -0.0405
   7 C5        4.7940     3.4892    -0.7814  C.ar    1  <O>11      -0.0600
   8 C6        4.2489     4.1254    -1.8994  C.ar    1  <O>11      -0.0616
   9 C7        2.8769     4.0114    -2.1563  C.ar    1  <O>11      -0.0600
  10 C8        2.0514     3.2740    -1.3068  C.ar    1  <O>11      -0.0405
  11 C9        0.7349    -0.4680     0.3350  C.ar    1  <O>11       0.0405
  12 C10       1.7678    -0.9460     1.3794  C.ar    1  <O>11      -0.0492
  13 C11       1.2888    -0.7731     2.8287  C.ar    1  <O>11      -0.0609
  14 C12      -0.0890    -1.4086     3.0474  C.ar    1  <O>11      -0.0582
  15 C13      -1.1225    -0.8741     2.0475  C.ar    1  <O>11      -0.0186
  16 C14      -0.6733    -1.0760     0.5906  C.ar    1  <O>11       0.1409
  17 O1       -1.7385    -0.5809    -0.2821  O.2     1  <O>11      -0.4208
  18 C15      -1.3512     0.4485    -1.2339  C.ar    1  <O>11       0.3601
  19 O2       -1.6242     0.4671    -2.6151  O.2     1  <O>11      -0.2430
  20 H1       -1.8920     3.1462    -1.1686  H       1  <O>11       0.1426
  21 H2       -0.5228     3.6865    -0.1916  H       1  <O>11       0.1426
  22 H3        1.8960     1.9272     1.7279  H       1  <O>11       0.1522
  23 H4        4.3828     2.2805     0.9014  H       1  <O>11       0.0636
  24 H5        5.8050     3.5654    -0.5884  H       1  <O>11       0.0618
  25 H6        4.8524     4.6750    -2.5309  H       1  <O>11       0.0618
  26 H7        2.4719     4.4779    -2.9830  H       1  <O>11       0.0618
  27 H8        1.0424     3.1937    -1.5082  H       1  <O>11       0.0636
  28 H9        2.6873    -1.3418     1.1287  H       1  <O>11       0.0625
  29 H10       1.8277    -0.2892     3.5639  H       1  <O>11       0.0618
  30 H11      -0.2956    -2.1090     3.7767  H       1  <O>11       0.0619
  31 H12      -2.0139    -0.4314     2.3203  H       1  <O>11       0.0654
@<TRIPOS>BOND
     1     1     2    1
     2     2     3   ar
     3     3     4    1
     4     4     5    1
     5     5     6   ar
     6     6     7   ar
     7     7     8   ar
     8     8     9   ar
     9     9    10   ar
    10     5    10   ar
    11     3    11   ar
    12    11    12   ar
    13    12    13   ar
    14    13    14   ar
    15    14    15   ar
    16    15    16   ar
    17    11    16   ar
    18    16    17   ar
    19    17    18   ar
    20     2    18   ar
    21    18    19    2
    22     1    20    1
    23     1    21    1
    24     4    22    1
    25     6    23    1
    26     7    24    1
    27     8    25    1
    28     9    26    1
    29    10    27    1
    30    12    28    1
    31    13    29    1
    32    14    30    1
    33    15    31    1
@<TRIPOS>MOLECULE
mol23_2_13
 31 33 0 0 0
SMALL
USER_CHARGES
****
VDW energy = 65.39
@<TRIPOS>ATOM
   1 N1       -1.0416     2.9353    -0.6465  N.pl3   1  <O>11      -0.3510
   2 C1       -0.5730     1.5759    -0.5515  C.ar    1  <O>11       0.1323
   3 C2        0.6800     1.0694     0.1874  C.ar    1  <O>11       0.0701
   4 N2        1.7430     1.8830     0.7200  N.pl3   1  <O>11      -0.3123
   5 C3        1.4795     2.7923     1.8199  C.ar    1  <O>11       0.0314
   6 C4        1.6260     2.3587     3.1490  C.ar    1  <O>11      -0.0405
   7 C5        1.3611     3.2327     4.2093  C.ar    1  <O>11      -0.0600
   8 C6        0.9502     4.5435     3.9545  C.ar    1  <O>11      -0.0616
   9 C7        0.8113     4.9770     2.6300  C.ar    1  <O>11      -0.0600
  10 C8        1.0750     4.1136     1.5661  C.ar    1  <O>11      -0.0405
  11 C9        0.7349    -0.4680     0.3350  C.ar    1  <O>11       0.0405
  12 C10       1.7678    -0.9460     1.3794  C.ar    1  <O>11      -0.0492
  13 C11       1.2888    -0.7731     2.8287  C.ar    1  <O>11      -0.0609
  14 C12      -0.0890    -1.4086     3.0474  C.ar    1  <O>11      -0.0582
  15 C13      -1.1225    -0.8741     2.0475  C.ar    1  <O>11      -0.0186
  16 C14      -0.6733    -1.0760     0.5906  C.ar    1  <O>11       0.1409
  17 O1       -1.7385    -0.5809    -0.2821  O.2     1  <O>11      -0.4208
  18 C15      -1.3512     0.4485    -1.2339  C.ar    1  <O>11       0.3601
  19 O2       -1.6242     0.4671    -2.6151  O.2     1  <O>11      -0.2430
  20 H1       -1.8920     3.1462    -1.1686  H       1  <O>11       0.1426
  21 H2       -0.5228     3.6865    -0.1916  H       1  <O>11       0.1426
  22 H3        2.6815     1.8195     0.3246  H       1  <O>11       0.1522
  23 H4        1.9302     1.3919     3.3436  H       1  <O>11       0.0636
  24 H5        1.4697     2.9079     5.1828  H       1  <O>11       0.0618
  25 H6        0.7505     5.1872     4.7361  H       1  <O>11       0.0618
  26 H7        0.5107     5.9455     2.4389  H       1  <O>11       0.0618
  27 H8        0.9730     4.4452     0.5941  H       1  <O>11       0.0636
  28 H9        2.6873    -1.3418     1.1287  H       1  <O>11       0.0625
  29 H10       1.8277    -0.2892     3.5639  H       1  <O>11       0.0618
  30 H11      -0.2956    -2.1090     3.7767  H       1  <O>11       0.0619
  31 H12      -2.0139    -0.4314     2.3203  H       1  <O>11       0.0654
@<TRIPOS>BOND
     1     1     2    1
     2     2     3   ar
     3     3     4    1
     4     4     5    1
     5     5     6   ar
     6     6     7   ar
     7     7     8   ar
     8     8     9   ar
     9     9    10   ar
    10     5    10   ar
    11     3    11   ar
    12    11    12   ar
    13    12    13   ar
    14    13    14   ar
    15    14    15   ar
    16    15    16   ar
    17    11    16   ar
    18    16    17   ar
    19    17    18   ar
    20     2    18   ar
    21    18    19    2
    22     1    20    1
    23     1    21    1
    24     4    22    1
    25     6    23    1
    26     7    24    1
    27     8    25    1
    28     9    26    1
    29    10    27    1
    30    12    28    1
    31    13    29    1
    32    14    30    1
    33    15    31    1
@<TRIPOS>MOLECULE
mol23_2_14
 31 33 0 0 0
SMALL
USER_CHARGES
****
VDW energy = 65.49
@<TRIPOS>ATOM
   1 N1       -1.0416     2.9353    -0.6465  N.pl3   1  <O>11      -0.3510
   2 C1       -0.5730     1.5759    -0.5515  C.ar    1  <O>11       0.1323
   3 C2        0.6800     1.0694     0.1874  C.ar    1  <O>11       0.0701
   4 N2        1.7430     1.8830     0.7200  N.pl3   1  <O>11      -0.3123
   5 C3        1.4795     2.7923     1.8199  C.ar    1  <O>11       0.0314
   6 C4        1.1257     2.2914     3.0848  C.ar    1  <O>11      -0.0405
   7 C5        0.8610     3.1691     4.1421  C.ar    1  <O>11      -0.0600
   8 C6        0.9476     4.5500     3.9486  C.ar    1  <O>11      -0.0616
   9 C7        1.3071     5.0482     2.6899  C.ar    1  <O>11      -0.0600
  10 C8        1.5749     4.1811     1.6300  C.ar    1  <O>11      -0.0405
  11 C9        0.7349    -0.4680     0.3350  C.ar    1  <O>11       0.0405
  12 C10       1.7678    -0.9460     1.3794  C.ar    1  <O>11      -0.0492
  13 C11       1.2888    -0.7731     2.8287  C.ar    1  <O>11      -0.0609
  14 C12      -0.0890    -1.4086     3.0474  C.ar    1  <O>11      -0.0582
  15 C13      -1.1225    -0.8741     2.0475  C.ar    1  <O>11      -0.0186
  16 C14      -0.6733    -1.0760     0.5906  C.ar    1  <O>11       0.1409
  17 O1       -1.7385    -0.5809    -0.2821  O.2     1  <O>11      -0.4208
  18 C15      -1.3512     0.4485    -1.2339  C.ar    1  <O>11       0.3601
  19 O2       -1.6242     0.4671    -2.6151  O.2     1  <O>11      -0.2430
  20 H1       -1.8920     3.1462    -1.1686  H       1  <O>11       0.1426
  21 H2       -0.5228     3.6865    -0.1916  H       1  <O>11       0.1426
  22 H3        2.6815     1.8195     0.3246  H       1  <O>11       0.1522
  23 H4        1.0610     1.2724     3.2343  H       1  <O>11       0.0636
  24 H5        0.6008     2.7950     5.0681  H       1  <O>11       0.0618
  25 H6        0.7483     5.1978     4.7268  H       1  <O>11       0.0618
  26 H7        1.3747     6.0677     2.5449  H       1  <O>11       0.0618
  27 H8        1.8428     4.5595     0.7080  H       1  <O>11       0.0636
  28 H9        2.6873    -1.3418     1.1287  H       1  <O>11       0.0625
  29 H10       1.8277    -0.2892     3.5639  H       1  <O>11       0.0618
  30 H11      -0.2956    -2.1090     3.7767  H       1  <O>11       0.0619
  31 H12      -2.0139    -0.4314     2.3203  H       1  <O>11       0.0654
@<TRIPOS>BOND
     1     1     2    1
     2     2     3   ar
     3     3     4    1
     4     4     5    1
     5     5     6   ar
     6     6     7   ar
     7     7     8   ar
     8     8     9   ar
     9     9    10   ar
    10     5    10   ar
    11     3    11   ar
    12    11    12   ar
    13    12    13   ar
    14    13    14   ar
    15    14    15   ar
    16    15    16   ar
    17    11    16   ar
    18    16    17   ar
    19    17    18   ar
    20     2    18   ar
    21    18    19    2
    22     1    20    1
    23     1    21    1
    24     4    22    1
    25     6    23    1
    26     7    24    1
    27     8    25    1
    28     9    26    1
    29    10    27    1
    30    12    28    1
    31    13    29    1
    32    14    30    1
    33    15    31    1
@<TRIPOS>MOLECULE
mol23_2_15
 31 33 0 0 0
SMALL
USER_CHARGES
****
VDW energy = 65.71
@<TRIPOS>ATOM
   1 N1       -1.0416     2.9353    -0.6465  N.pl3   1  <O>11      -0.3510
   2 C1       -0.5730     1.5759    -0.5515  C.ar    1  <O>11       0.1323
   3 C2        0.6800     1.0694     0.1874  C.ar    1  <O>11       0.0701
   4 N2        1.7430     1.8830     0.7200  N.pl3   1  <O>11      -0.3123
   5 C3        1.4795     2.7923     1.8199  C.ar    1  <O>11       0.0314
   6 C4        1.0755     4.1145     1.5656  C.ar    1  <O>11      -0.0405
   7 C5        0.8323     4.9941     2.6264  C.ar    1  <O>11      -0.0600
   8 C6        0.9881     4.5641     3.9466  C.ar    1  <O>11      -0.0616
   9 C7        1.3837     3.2446     4.1994  C.ar    1  <O>11      -0.0600
  10 C8        1.6266     2.3595     3.1484  C.ar    1  <O>11      -0.0405
  11 C9        0.7349    -0.4680     0.3350  C.ar    1  <O>11       0.0405
  12 C10       1.7678    -0.9460     1.3794  C.ar    1  <O>11      -0.0492
  13 C11       1.2888    -0.7731     2.8287  C.ar    1  <O>11      -0.0609
  14 C12      -0.0890    -1.4086     3.0474  C.ar    1  <O>11      -0.0582
  15 C13      -1.1225    -0.8741     2.0475  C.ar    1  <O>11      -0.0186
  16 C14      -0.6733    -1.0760     0.5906  C.ar    1  <O>11       0.1409
  17 O1       -1.7385    -0.5809    -0.2821  O.2     1  <O>11      -0.4208
  18 C15      -1.3512     0.4485    -1.2339  C.ar    1  <O>11       0.3601
  19 O2       -1.6242     0.4671    -2.6151  O.2     1  <O>11      -0.2430
  20 H1       -1.8920     3.1462    -1.1686  H       1  <O>11       0.1426
  21 H2       -0.5228     3.6865    -0.1916  H       1  <O>11       0.1426
  22 H3        2.6815     1.8195     0.3246  H       1  <O>11       0.1522
  23 H4        0.9578     4.4378     0.5926  H       1  <O>11       0.0636
  24 H5        0.5369     5.9638     2.4330  H       1  <O>11       0.0618
  25 H6        0.8130     5.2136     4.7293  H       1  <O>11       0.0618
  26 H7        1.4967     2.9234     5.1736  H       1  <O>11       0.0618
  27 H8        1.9139     1.3883     3.3467  H       1  <O>11       0.0636
  28 H9        2.6873    -1.3418     1.1287  H       1  <O>11       0.0625
  29 H10       1.8277    -0.2892     3.5639  H       1  <O>11       0.0618
  30 H11      -0.2956    -2.1090     3.7767  H       1  <O>11       0.0619
  31 H12      -2.0139    -0.4314     2.3203  H       1  <O>11       0.0654
@<TRIPOS>BOND
     1     1     2    1
     2     2     3   ar
     3     3     4    1
     4     4     5    1
     5     5     6   ar
     6     6     7   ar
     7     7     8   ar
     8     8     9   ar
     9     9    10   ar
    10     5    10   ar
    11     3    11   ar
    12    11    12   ar
    13    12    13   ar
    14    13    14   ar
    15    14    15   ar
    16    15    16   ar
    17    11    16   ar
    18    16    17   ar
    19    17    18   ar
    20     2    18   ar
    21    18    19    2
    22     1    20    1
    23     1    21    1
    24     4    22    1
    25     6    23    1
    26     7    24    1
    27     8    25    1
    28     9    26    1
    29    10    27    1
    30    12    28    1
    31    13    29    1
    32    14    30    1
    33    15    31    1
@<TRIPOS>MOLECULE
mol23_2_16
 31 33 0 0 0
SMALL
USER_CHARGES
****
VDW energy = 70.52
@<TRIPOS>ATOM
   1 N1       -1.0416     2.9353    -0.6465  N.pl3   1  <O>11      -0.3510
   2 C1       -0.5730     1.5759    -0.5515  C.ar    1  <O>11       0.1323
   3 C2        0.6800     1.0694     0.1874  C.ar    1  <O>11       0.0701
   4 N2        1.7430     1.8830     0.7200  N.pl3   1  <O>11      -0.3123
   5 C3        3.0398     1.2930     0.9961  C.ar    1  <O>11       0.0314
   6 C4        3.8358     0.8063    -0.0554  C.ar    1  <O>11      -0.0405
   7 C5        5.0813     0.2275     0.2124  C.ar    1  <O>11      -0.0600
   8 C6        5.5437     0.1301     1.5273  C.ar    1  <O>11      -0.0616
   9 C7        4.7533     0.6217     2.5737  C.ar    1  <O>11      -0.0600
  10 C8        3.5108     1.2023     2.3166  C.ar    1  <O>11      -0.0405
  11 C9        0.7349    -0.4680     0.3350  C.ar    1  <O>11       0.0405
  12 C10       1.7678    -0.9460     1.3794  C.ar    1  <O>11      -0.0492
  13 C11       1.2888    -0.7731     2.8287  C.ar    1  <O>11      -0.0609
  14 C12      -0.0890    -1.4086     3.0474  C.ar    1  <O>11      -0.0582
  15 C13      -1.1225    -0.8741     2.0475  C.ar    1  <O>11      -0.0186
  16 C14      -0.6733    -1.0760     0.5906  C.ar    1  <O>11       0.1409
  17 O1       -1.7385    -0.5809    -0.2821  O.2     1  <O>11      -0.4208
  18 C15      -1.3512     0.4485    -1.2339  C.ar    1  <O>11       0.3601
  19 O2       -1.6242     0.4671    -2.6151  O.2     1  <O>11      -0.2430
  20 H1       -1.8920     3.1462    -1.1686  H       1  <O>11       0.1426
  21 H2       -0.5228     3.6865    -0.1916  H       1  <O>11       0.1426
  22 H3        1.5846     2.8744     0.9024  H       1  <O>11       0.1522
  23 H4        3.5002     0.8762    -1.0288  H       1  <O>11       0.0636
  24 H5        5.6604    -0.1288    -0.5640  H       1  <O>11       0.0618
  25 H6        6.4602    -0.3005     1.7258  H       1  <O>11       0.0618
  26 H7        5.0935     0.5538     3.5457  H       1  <O>11       0.0618
  27 H8        2.9387     1.5647     3.0954  H       1  <O>11       0.0636
  28 H9        2.6873    -1.3418     1.1287  H       1  <O>11       0.0625
  29 H10       1.8277    -0.2892     3.5639  H       1  <O>11       0.0618
  30 H11      -0.2956    -2.1090     3.7767  H       1  <O>11       0.0619
  31 H12      -2.0139    -0.4314     2.3203  H       1  <O>11       0.0654
@<TRIPOS>BOND
     1     1     2    1
     2     2     3   ar
     3     3     4    1
     4     4     5    1
     5     5     6   ar
     6     6     7   ar
     7     7     8   ar
     8     8     9   ar
     9     9    10   ar
    10     5    10   ar
    11     3    11   ar
    12    11    12   ar
    13    12    13   ar
    14    13    14   ar
    15    14    15   ar
    16    15    16   ar
    17    11    16   ar
    18    16    17   ar
    19    17    18   ar
    20     2    18   ar
    21    18    19    2
    22     1    20    1
    23     1    21    1
    24     4    22    1
    25     6    23    1
    26     7    24    1
    27     8    25    1
    28     9    26    1
    29    10    27    1
    30    12    28    1
    31    13    29    1
    32    14    30    1
    33    15    31    1
@<TRIPOS>MOLECULE
mol23_2_17
 31 33 0 0 0
SMALL
USER_CHARGES
****
VDW energy = 93.96
@<TRIPOS>ATOM
   1 N1       -1.0416     2.9353    -0.6465  N.pl3   1  <O>11      -0.3510
   2 C1       -0.5730     1.5759    -0.5515  C.ar    1  <O>11       0.1323
   3 C2        0.6800     1.0694     0.1874  C.ar    1  <O>11       0.0701
   4 N2        1.7430     1.8830     0.7200  N.pl3   1  <O>11      -0.3123
   5 C3        1.4795     2.7923     1.8199  C.ar    1  <O>11       0.0314
   6 C4        0.6236     3.8929     1.6405  C.ar    1  <O>11      -0.0405
   7 C5        0.3787     4.7757     2.6984  C.ar    1  <O>11      -0.0600
   8 C6        0.9822     4.5688     3.9413  C.ar    1  <O>11      -0.0616
   9 C7        1.8292     3.4680     4.1214  C.ar    1  <O>11      -0.0600
  10 C8        2.0781     2.5811     3.0733  C.ar    1  <O>11      -0.0405
  11 C9        0.7349    -0.4680     0.3350  C.ar    1  <O>11       0.0405
  12 C10       1.7678    -0.9460     1.3794  C.ar    1  <O>11      -0.0492
  13 C11       1.2888    -0.7731     2.8287  C.ar    1  <O>11      -0.0609
  14 C12      -0.0890    -1.4086     3.0474  C.ar    1  <O>11      -0.0582
  15 C13      -1.1225    -0.8741     2.0475  C.ar    1  <O>11      -0.0186
  16 C14      -0.6733    -1.0760     0.5906  C.ar    1  <O>11       0.1409
  17 O1       -1.7385    -0.5809    -0.2821  O.2     1  <O>11      -0.4208
  18 C15      -1.3512     0.4485    -1.2339  C.ar    1  <O>11       0.3601
  19 O2       -1.6242     0.4671    -2.6151  O.2     1  <O>11      -0.2430
  20 H1       -1.8920     3.1462    -1.1686  H       1  <O>11       0.1426
  21 H2       -0.5228     3.6865    -0.1916  H       1  <O>11       0.1426
  22 H3        2.6815     1.8195     0.3246  H       1  <O>11       0.1522
  23 H4        0.1741     4.0505     0.7250  H       1  <O>11       0.0636
  24 H5       -0.2500     5.5823     2.5599  H       1  <O>11       0.0618
  25 H6        0.8053     5.2219     4.7205  H       1  <O>11       0.0618
  26 H7        2.2741     3.3111     5.0392  H       1  <O>11       0.0618
  27 H8        2.7009     1.7712     3.2187  H       1  <O>11       0.0636
  28 H9        2.6873    -1.3418     1.1287  H       1  <O>11       0.0625
  29 H10       1.8277    -0.2892     3.5639  H       1  <O>11       0.0618
  30 H11      -0.2956    -2.1090     3.7767  H       1  <O>11       0.0619
  31 H12      -2.0139    -0.4314     2.3203  H       1  <O>11       0.0654
@<TRIPOS>BOND
     1     1     2    1
     2     2     3   ar
     3     3     4    1
     4     4     5    1
     5     5     6   ar
     6     6     7   ar
     7     7     8   ar
     8     8     9   ar
     9     9    10   ar
    10     5    10   ar
    11     3    11   ar
    12    11    12   ar
    13    12    13   ar
    14    13    14   ar
    15    14    15   ar
    16    15    16   ar
    17    11    16   ar
    18    16    17   ar
    19    17    18   ar
    20     2    18   ar
    21    18    19    2
    22     1    20    1
    23     1    21    1
    24     4    22    1
    25     6    23    1
    26     7    24    1
    27     8    25    1
    28     9    26    1
    29    10    27    1
    30    12    28    1
    31    13    29    1
    32    14    30    1
    33    15    31    1
@<TRIPOS>MOLECULE
mol23_2_18
 31 33 0 0 0
SMALL
USER_CHARGES
****
VDW energy = 99.84
@<TRIPOS>ATOM
   1 N1       -1.0416     2.9353    -0.6465  N.pl3   1  <O>11      -0.3510
   2 C1       -0.5730     1.5759    -0.5515  C.ar    1  <O>11       0.1323
   3 C2        0.6800     1.0694     0.1874  C.ar    1  <O>11       0.0701
   4 N2        1.7430     1.8830     0.7200  N.pl3   1  <O>11      -0.3123
   5 C3        1.6666     2.3758     2.0829  C.ar    1  <O>11       0.0314
   6 C4        2.1966     1.6181     3.1416  C.ar    1  <O>11      -0.0405
   7 C5        2.1127     2.0887     4.4568  C.ar    1  <O>11      -0.0600
   8 C6        1.5025     3.3161     4.7272  C.ar    1  <O>11      -0.0616
   9 C7        0.9810     4.0738     3.6710  C.ar    1  <O>11      -0.0600
  10 C8        1.0615     3.6141     2.3561  C.ar    1  <O>11      -0.0405
  11 C9        0.7349    -0.4680     0.3350  C.ar    1  <O>11       0.0405
  12 C10       1.7678    -0.9460     1.3794  C.ar    1  <O>11      -0.0492
  13 C11       1.2888    -0.7731     2.8287  C.ar    1  <O>11      -0.0609
  14 C12      -0.0890    -1.4086     3.0474  C.ar    1  <O>11      -0.0582
  15 C13      -1.1225    -0.8741     2.0475  C.ar    1  <O>11      -0.0186
  16 C14      -0.6733    -1.0760     0.5906  C.ar    1  <O>11       0.1409
  17 O1       -1.7385    -0.5809    -0.2821  O.2     1  <O>11      -0.4208
  18 C15      -1.3512     0.4485    -1.2339  C.ar    1  <O>11       0.3601
  19 O2       -1.6242     0.4671    -2.6151  O.2     1  <O>11      -0.2430
  20 H1       -1.8920     3.1462    -1.1686  H       1  <O>11       0.1426
  21 H2       -0.5228     3.6865    -0.1916  H       1  <O>11       0.1426
  22 H3        2.5502     2.1122     0.1395  H       1  <O>11       0.1522
  23 H4        2.6494     0.7111     2.9482  H       1  <O>11       0.0636
  24 H5        2.5030     1.5272     5.2298  H       1  <O>11       0.0618
  25 H6        1.4365     3.6617     5.6973  H       1  <O>11       0.0618
  26 H7        0.5323     4.9822     3.8675  H       1  <O>11       0.0618
  27 H8        0.6772     4.1827     1.5854  H       1  <O>11       0.0636
  28 H9        2.6873    -1.3418     1.1287  H       1  <O>11       0.0625
  29 H10       1.8277    -0.2892     3.5639  H       1  <O>11       0.0618
  30 H11      -0.2956    -2.1090     3.7767  H       1  <O>11       0.0619
  31 H12      -2.0139    -0.4314     2.3203  H       1  <O>11       0.0654
@<TRIPOS>BOND
     1     1     2    1
     2     2     3   ar
     3     3     4    1
     4     4     5    1
     5     5     6   ar
     6     6     7   ar
     7     7     8   ar
     8     8     9   ar
     9     9    10   ar
    10     5    10   ar
    11     3    11   ar
    12    11    12   ar
    13    12    13   ar
    14    13    14   ar
    15    14    15   ar
    16    15    16   ar
    17    11    16   ar
    18    16    17   ar
    19    17    18   ar
    20     2    18   ar
    21    18    19    2
    22     1    20    1
    23     1    21    1
    24     4    22    1
    25     6    23    1
    26     7    24    1
    27     8    25    1
    28     9    26    1
    29    10    27    1
    30    12    28    1
    31    13    29    1
    32    14    30    1
    33    15    31    1
@<TRIPOS>MOLECULE
mol23_2_19
 31 33 0 0 0
SMALL
USER_CHARGES
****
VDW energy = 101.34
@<TRIPOS>ATOM
   1 N1       -1.0416     2.9353    -0.6465  N.pl3   1  <O>11      -0.3510
   2 C1       -0.5730     1.5759    -0.5515  C.ar    1  <O>11       0.1323
   3 C2        0.6800     1.0694     0.1874  C.ar    1  <O>11       0.0701
   4 N2        1.7430     1.8830     0.7200  N.pl3   1  <O>11      -0.3123
   5 C3        1.6666     2.3758     2.0829  C.ar    1  <O>11       0.0314
   6 C4        1.0618     3.6151     2.3558  C.ar    1  <O>11      -0.0405
   7 C5        0.9983     4.0949     3.6689  C.ar    1  <O>11      -0.0600
   8 C6        1.5345     3.3449     4.7186  C.ar    1  <O>11      -0.0616
   9 C7        2.1304     2.1070     4.4468  C.ar    1  <O>11      -0.0600
  10 C8        2.1969     1.6191     3.1412  C.ar    1  <O>11      -0.0405
  11 C9        0.7349    -0.4680     0.3350  C.ar    1  <O>11       0.0405
  12 C10       1.7678    -0.9460     1.3794  C.ar    1  <O>11      -0.0492
  13 C11       1.2888    -0.7731     2.8287  C.ar    1  <O>11      -0.0609
  14 C12      -0.0890    -1.4086     3.0474  C.ar    1  <O>11      -0.0582
  15 C13      -1.1225    -0.8741     2.0475  C.ar    1  <O>11      -0.0186
  16 C14      -0.6733    -1.0760     0.5906  C.ar    1  <O>11       0.1409
  17 O1       -1.7385    -0.5809    -0.2821  O.2     1  <O>11      -0.4208
  18 C15      -1.3512     0.4485    -1.2339  C.ar    1  <O>11       0.3601
  19 O2       -1.6242     0.4671    -2.6151  O.2     1  <O>11      -0.2430
  20 H1       -1.8920     3.1462    -1.1686  H       1  <O>11       0.1426
  21 H2       -0.5228     3.6865    -0.1916  H       1  <O>11       0.1426
  22 H3        2.5502     2.1122     0.1395  H       1  <O>11       0.1522
  23 H4        0.6631     4.1733     1.5848  H       1  <O>11       0.0636
  24 H5        0.5538     5.0060     3.8625  H       1  <O>11       0.0618
  25 H6        1.4918     3.7002     5.6865  H       1  <O>11       0.0618
  26 H7        2.5247     1.5494     5.2205  H       1  <O>11       0.0618
  27 H8        2.6349     0.7038     2.9533  H       1  <O>11       0.0636
  28 H9        2.6873    -1.3418     1.1287  H       1  <O>11       0.0625
  29 H10       1.8277    -0.2892     3.5639  H       1  <O>11       0.0618
  30 H11      -0.2956    -2.1090     3.7767  H       1  <O>11       0.0619
  31 H12      -2.0139    -0.4314     2.3203  H       1  <O>11       0.0654
@<TRIPOS>BOND
     1     1     2    1
     2     2     3   ar
     3     3     4    1
     4     4     5    1
     5     5     6   ar
     6     6     7   ar
     7     7     8   ar
     8     8     9   ar
     9     9    10   ar
    10     5    10   ar
    11     3    11   ar
    12    11    12   ar
    13    12    13   ar
    14    13    14   ar
    15    14    15   ar
    16    15    16   ar
    17    11    16   ar
    18    16    17   ar
    19    17    18   ar
    20     2    18   ar
    21    18    19    2
    22     1    20    1
    23     1    21    1
    24     4    22    1
    25     6    23    1
    26     7    24    1
    27     8    25    1
    28     9    26    1
    29    10    27    1
    30    12    28    1
    31    13    29    1
    32    14    30    1
    33    15    31    1
