@<TRIPOS>MOLECULE
mol27_1_1
 38 40 0 0 0
SMALL
USER_CHARGES
****
VDW energy = -51.24
@<TRIPOS>ATOM
   1 O1       -6.6029     8.5284    -2.0234  O.2     1  <O>11      -0.2449
   2 C1       -6.3562     8.4196    -3.2153  C.2     1  <O>11       0.3401
   3 O2       -7.2140     8.9270    -4.1340  O.3     1  <O>11      -0.4577
   4 C2       -8.3130     9.5300    -3.4720  C.3     1  <O>11       0.1267
   5 C3       -9.2750    10.0990    -4.5030  C.3     1  <O>11       0.1236
   6 O3      -10.3740    10.7030    -3.8410  O.3     1  <O>11      -0.4886
   7 C4      -11.2450    11.2180    -4.7740  C.ar    1  <O>11       0.1208
   8 C5      -11.0973    12.5395    -5.2283  C.ar    1  <O>11      -0.0172
   9 C6      -11.9900    13.0665    -6.1679  C.ar    1  <O>11      -0.0230
  10 C7      -13.0337    12.2808    -6.6637  C.ar    1  <O>11       0.1236
  11 F1      -13.9134    12.7918    -7.5825  F       1  <O>11      -0.2055
  12 C8      -13.1771    10.9630    -6.2157  C.ar    1  <O>11      -0.0230
  13 C9      -12.2900    10.4267    -5.2803  C.ar    1  <O>11      -0.0172
  14 C10      -5.1480     7.7490    -3.6460  C.ar    1  <O>11       0.0732
  15 C11      -3.9775     8.4750    -3.8263  C.ar    1  <O>11       0.0173
  16 C12      -2.8389     7.7988    -4.2317  C.ar    1  <O>11       0.2500
  17 O4       -1.6607     8.5509    -4.4048  O.2     1  <O>11      -0.2679
  18 N1       -2.8291     6.4654    -4.4610  N.ar    1  <O>11      -0.3221
  19 C13      -3.9632     5.7546    -4.3084  C.ar    1  <O>11       0.0500
  20 C14      -3.9966     4.3774    -4.5515  C.ar    1  <O>11      -0.0377
  21 C15      -5.1521     3.6167    -4.3303  C.ar    1  <O>11      -0.0598
  22 C16      -6.3216     4.2350    -3.9067  C.ar    1  <O>11      -0.0611
  23 C17      -6.3277     5.6104    -3.6905  C.ar    1  <O>11      -0.0518
  24 C18      -5.1593     6.3689    -3.8813  C.ar    1  <O>11       0.0125
  25 H1       -7.9540    10.3330    -2.8280  H       1  <O>11       0.0732
  26 H2       -8.8280     8.7830    -2.8680  H       1  <O>11       0.0732
  27 H3       -9.6340     9.2960    -5.1460  H       1  <O>11       0.0731
  28 H4       -8.7600    10.8460    -5.1070  H       1  <O>11       0.0731
  29 H5       -1.9893     5.9819    -4.7451  H       1  <O>11       0.1689
  30 H6      -10.3270    13.1239    -4.8673  H       1  <O>11       0.0655
  31 H7      -11.8772    14.0385    -6.4959  H       1  <O>11       0.0647
  32 H8      -13.9471    10.3809    -6.5808  H       1  <O>11       0.0647
  33 H9      -12.4015     9.4516    -4.9615  H       1  <O>11       0.0655
  34 H10      -3.9568     9.4936    -3.6622  H       1  <O>11       0.0680
  35 H11      -3.1470     3.9090    -4.9033  H       1  <O>11       0.0638
  36 H12      -5.1343     2.5961    -4.4821  H       1  <O>11       0.0618
  37 H13      -7.1781     3.6800    -3.7537  H       1  <O>11       0.0618
  38 H14      -7.1969     6.0770    -3.3877  H       1  <O>11       0.0624
@<TRIPOS>BOND
     1     1     2    2
     2     2     3    1
     3     3     4    1
     4     4     5    1
     5     5     6    1
     6     6     7    1
     7     7     8   ar
     8     8     9   ar
     9     9    10   ar
    10    10    11    1
    11    10    12   ar
    12    12    13   ar
    13     7    13   ar
    14     2    14    1
    15    14    15   ar
    16    15    16   ar
    17    16    17    2
    18    16    18   ar
    19    18    19   ar
    20    19    20   ar
    21    20    21   ar
    22    21    22   ar
    23    22    23   ar
    24    23    24   ar
    25    14    24   ar
    26    19    24   ar
    27     4    25    1
    28     4    26    1
    29     5    27    1
    30     5    28    1
    31    18    29    1
    32     8    30    1
    33     9    31    1
    34    12    32    1
    35    13    33    1
    36    15    34    1
    37    20    35    1
    38    21    36    1
    39    22    37    1
    40    23    38    1
@<TRIPOS>MOLECULE
mol27_1_2
 38 40 0 0 0
SMALL
USER_CHARGES
****
VDW energy = -45.27
@<TRIPOS>ATOM
   1 O1       -6.6029     8.5284    -2.0234  O.2     1  <O>11      -0.2449
   2 C1       -6.3562     8.4196    -3.2153  C.2     1  <O>11       0.3401
   3 O2       -7.2140     8.9270    -4.1340  O.3     1  <O>11      -0.4577
   4 C2       -8.3130     9.5300    -3.4720  C.3     1  <O>11       0.1267
   5 C3       -9.2750    10.0990    -4.5030  C.3     1  <O>11       0.1236
   6 O3       -8.5385    10.6995    -5.5556  O.3     1  <O>11      -0.4886
   7 C4       -9.4091    11.2148    -6.4889  C.ar    1  <O>11       0.1208
   8 C5      -10.3170    10.3723    -7.1526  C.ar    1  <O>11      -0.0172
   9 C6      -11.1937    10.8945    -8.1099  C.ar    1  <O>11      -0.0230
  10 C7      -11.1745    12.2589    -8.4106  C.ar    1  <O>11       0.1236
  11 F1      -12.0289    12.7766    -9.3493  F       1  <O>11      -0.2055
  12 C8      -10.2745    13.0987    -7.7453  C.ar    1  <O>11      -0.0230
  13 C9       -9.3974    12.5880    -6.7864  C.ar    1  <O>11      -0.0172
  14 C10      -5.1480     7.7490    -3.6460  C.ar    1  <O>11       0.0732
  15 C11      -5.1593     6.3795    -3.8789  C.ar    1  <O>11       0.0173
  16 C12      -3.9867     5.7730    -4.2974  C.ar    1  <O>11       0.2500
  17 O4       -4.0188     4.3847    -4.5329  O.2     1  <O>11      -0.2679
  18 N1       -2.8376     6.4632    -4.4813  N.ar    1  <O>11      -0.3221
  19 C13      -2.8099     7.7881    -4.2394  C.ar    1  <O>11       0.0500
  20 C14      -1.6371     8.5329    -4.4025  C.ar    1  <O>11      -0.0377
  21 C15      -1.6134     9.9217    -4.2203  C.ar    1  <O>11      -0.0598
  22 C16      -2.7624    10.5903    -3.8174  C.ar    1  <O>11      -0.0611
  23 C17      -3.9360     9.8697    -3.6130  C.ar    1  <O>11      -0.0518
  24 C18      -3.9681     8.4805    -3.8273  C.ar    1  <O>11       0.0125
  25 H1       -7.9540    10.3330    -2.8280  H       1  <O>11       0.0732
  26 H2       -8.8280     8.7830    -2.8680  H       1  <O>11       0.0732
  27 H3       -9.9114    10.8470    -4.0312  H       1  <O>11       0.0731
  28 H4       -9.8934     9.2963    -4.9047  H       1  <O>11       0.0731
  29 H5       -1.9919     6.0111    -4.7980  H       1  <O>11       0.1689
  30 H6      -10.3372     9.3640    -6.9331  H       1  <O>11       0.0655
  31 H7      -11.8566    10.2700    -8.5953  H       1  <O>11       0.0647
  32 H8      -10.2588    14.1068    -7.9657  H       1  <O>11       0.0647
  33 H9       -8.7420    13.2176    -6.2974  H       1  <O>11       0.0655
  34 H10      -6.0206     5.8275    -3.7434  H       1  <O>11       0.0680
  35 H11      -0.7656     8.0460    -4.6642  H       1  <O>11       0.0638
  36 H12      -0.7415    10.4486    -4.3856  H       1  <O>11       0.0618
  37 H13      -2.7462    11.6117    -3.6708  H       1  <O>11       0.0618
  38 H14      -4.7895    10.3593    -3.3017  H       1  <O>11       0.0624
@<TRIPOS>BOND
     1     1     2    2
     2     2     3    1
     3     3     4    1
     4     4     5    1
     5     5     6    1
     6     6     7    1
     7     7     8   ar
     8     8     9   ar
     9     9    10   ar
    10    10    11    1
    11    10    12   ar
    12    12    13   ar
    13     7    13   ar
    14     2    14    1
    15    14    15   ar
    16    15    16   ar
    17    16    17    2
    18    16    18   ar
    19    18    19   ar
    20    19    20   ar
    21    20    21   ar
    22    21    22   ar
    23    22    23   ar
    24    23    24   ar
    25    14    24   ar
    26    19    24   ar
    27     4    25    1
    28     4    26    1
    29     5    27    1
    30     5    28    1
    31    18    29    1
    32     8    30    1
    33     9    31    1
    34    12    32    1
    35    13    33    1
    36    15    34    1
    37    20    35    1
    38    21    36    1
    39    22    37    1
    40    23    38    1
@<TRIPOS>MOLECULE
mol27_1_3
 38 40 0 0 0
SMALL
USER_CHARGES
****
VDW energy = -40.09
@<TRIPOS>ATOM
   1 O1       -6.6029     8.5284    -2.0234  O.2     1  <O>11      -0.2449
   2 C1       -6.3562     8.4196    -3.2153  C.2     1  <O>11       0.3401
   3 O2       -7.2140     8.9270    -4.1340  O.3     1  <O>11      -0.4577
   4 C2       -8.3130     9.5300    -3.4720  C.3     1  <O>11       0.1267
   5 C3       -9.2750    10.0990    -4.5030  C.3     1  <O>11       0.1236
   6 O3       -8.5385    10.6995    -5.5556  O.3     1  <O>11      -0.4886
   7 C4       -9.4091    11.2148    -6.4889  C.ar    1  <O>11       0.1208
   8 C5       -9.8455    10.4228    -7.5645  C.ar    1  <O>11      -0.0172
   9 C6      -10.7212    10.9507    -8.5195  C.ar    1  <O>11      -0.0230
  10 C7      -11.1704    12.2692    -8.4087  C.ar    1  <O>11       0.1236
  11 F1      -12.0264    12.7934    -9.3424  F       1  <O>11      -0.2055
  12 C8      -10.7405    13.0558    -7.3343  C.ar    1  <O>11      -0.0230
  13 C9       -9.8689    12.5376    -6.3744  C.ar    1  <O>11      -0.0172
  14 C10      -5.1480     7.7490    -3.6460  C.ar    1  <O>11       0.0732
  15 C11      -4.7153     6.6058    -2.9859  C.ar    1  <O>11       0.0173
  16 C12      -3.5592     5.9864    -3.4304  C.ar    1  <O>11       0.2500
  17 O4       -3.1388     4.8261    -2.7516  O.2     1  <O>11      -0.2679
  18 N1       -2.8394     6.4561    -4.4754  N.ar    1  <O>11      -0.3221
  19 C13      -3.2387     7.5750    -5.1104  C.ar    1  <O>11       0.0500
  20 C14      -2.5124     8.1003    -6.1844  C.ar    1  <O>11      -0.0377
  21 C15      -2.9547     9.2233    -6.8956  C.ar    1  <O>11      -0.0598
  22 C16      -4.1168     9.8785    -6.5087  C.ar    1  <O>11      -0.0611
  23 C17      -4.8418     9.3990    -5.4211  C.ar    1  <O>11      -0.0518
  24 C18      -4.4154     8.2528    -4.7275  C.ar    1  <O>11       0.0125
  25 H1       -7.9540    10.3330    -2.8280  H       1  <O>11       0.0732
  26 H2       -8.8280     8.7830    -2.8680  H       1  <O>11       0.0732
  27 H3       -9.9114    10.8470    -4.0312  H       1  <O>11       0.0731
  28 H4       -9.8934     9.2963    -4.9047  H       1  <O>11       0.0731
  29 H5       -2.0042     5.9885    -4.7973  H       1  <O>11       0.1689
  30 H6       -9.5188     9.4476    -7.6503  H       1  <O>11       0.0655
  31 H7      -11.0363    10.3645    -9.3082  H       1  <O>11       0.0647
  32 H8      -11.0712    14.0297    -7.2505  H       1  <O>11       0.0647
  33 H9       -9.5630    13.1248    -5.5828  H       1  <O>11       0.0655
  34 H10      -5.2426     6.2274    -2.1836  H       1  <O>11       0.0680
  35 H11      -1.6267     7.6482    -6.4604  H       1  <O>11       0.0638
  36 H12      -2.4166     9.5641    -7.7077  H       1  <O>11       0.0618
  37 H13      -4.4399    10.7131    -7.0228  H       1  <O>11       0.0618
  38 H14      -5.6992     9.8890    -5.1215  H       1  <O>11       0.0624
@<TRIPOS>BOND
     1     1     2    2
     2     2     3    1
     3     3     4    1
     4     4     5    1
     5     5     6    1
     6     6     7    1
     7     7     8   ar
     8     8     9   ar
     9     9    10   ar
    10    10    11    1
    11    10    12   ar
    12    12    13   ar
    13     7    13   ar
    14     2    14    1
    15    14    15   ar
    16    15    16   ar
    17    16    17    2
    18    16    18   ar
    19    18    19   ar
    20    19    20   ar
    21    20    21   ar
    22    21    22   ar
    23    22    23   ar
    24    23    24   ar
    25    14    24   ar
    26    19    24   ar
    27     4    25    1
    28     4    26    1
    29     5    27    1
    30     5    28    1
    31    18    29    1
    32     8    30    1
    33     9    31    1
    34    12    32    1
    35    13    33    1
    36    15    34    1
    37    20    35    1
    38    21    36    1
    39    22    37    1
    40    23    38    1
@<TRIPOS>MOLECULE
mol27_1_4
 38 40 0 0 0
SMALL
USER_CHARGES
****
VDW energy = -36.23
@<TRIPOS>ATOM
   1 O1       -6.6029     8.5284    -2.0234  O.2     1  <O>11      -0.2449
   2 C1       -6.3562     8.4196    -3.2153  C.2     1  <O>11       0.3401
   3 O2       -7.2140     8.9270    -4.1340  O.3     1  <O>11      -0.4577
   4 C2       -8.3130     9.5300    -3.4720  C.3     1  <O>11       0.1267
   5 C3       -9.2750    10.0990    -4.5030  C.3     1  <O>11       0.1236
   6 O3      -10.3740    10.7030    -3.8410  O.3     1  <O>11      -0.4886
   7 C4      -11.2450    11.2180    -4.7740  C.ar    1  <O>11       0.1208
   8 C5      -12.4200    11.8700    -4.3630  C.ar    1  <O>11      -0.0172
   9 C6      -13.3110    12.3830    -5.3120  C.ar    1  <O>11      -0.0230
  10 C7      -13.0370    12.2530    -6.6760  C.ar    1  <O>11       0.1236
  11 F1      -13.9070    12.7510    -7.6110  F       1  <O>11      -0.2055
  12 C8      -11.8640    11.6090    -7.0850  C.ar    1  <O>11      -0.0230
  13 C9      -10.9670    11.0960    -6.1460  C.ar    1  <O>11      -0.0172
  14 C10      -5.1480     7.7490    -3.6460  C.ar    1  <O>11       0.0732
  15 C11      -5.1593     6.3795    -3.8789  C.ar    1  <O>11       0.0173
  16 C12      -3.9867     5.7730    -4.2974  C.ar    1  <O>11       0.2500
  17 O4       -4.0188     4.3847    -4.5329  O.2     1  <O>11      -0.2679
  18 N1       -2.8376     6.4632    -4.4813  N.ar    1  <O>11      -0.3221
  19 C13      -2.8099     7.7881    -4.2394  C.ar    1  <O>11       0.0500
  20 C14      -1.6371     8.5329    -4.4025  C.ar    1  <O>11      -0.0377
  21 C15      -1.6134     9.9217    -4.2203  C.ar    1  <O>11      -0.0598
  22 C16      -2.7624    10.5903    -3.8174  C.ar    1  <O>11      -0.0611
  23 C17      -3.9360     9.8697    -3.6130  C.ar    1  <O>11      -0.0518
  24 C18      -3.9681     8.4805    -3.8273  C.ar    1  <O>11       0.0125
  25 H1       -7.9540    10.3330    -2.8280  H       1  <O>11       0.0732
  26 H2       -8.8280     8.7830    -2.8680  H       1  <O>11       0.0732
  27 H3       -9.6340     9.2960    -5.1460  H       1  <O>11       0.0731
  28 H4       -8.7600    10.8460    -5.1070  H       1  <O>11       0.0731
  29 H5       -1.9919     6.0111    -4.7980  H       1  <O>11       0.1689
  30 H6      -12.6266    11.9709    -3.3569  H       1  <O>11       0.0655
  31 H7      -14.1732    12.8589    -5.0036  H       1  <O>11       0.0647
  32 H8      -11.6596    11.5121    -8.0919  H       1  <O>11       0.0647
  33 H9      -10.1019    10.6283    -6.4588  H       1  <O>11       0.0655
  34 H10      -6.0206     5.8275    -3.7434  H       1  <O>11       0.0680
  35 H11      -0.7656     8.0460    -4.6642  H       1  <O>11       0.0638
  36 H12      -0.7415    10.4486    -4.3856  H       1  <O>11       0.0618
  37 H13      -2.7462    11.6117    -3.6708  H       1  <O>11       0.0618
  38 H14      -4.7895    10.3593    -3.3017  H       1  <O>11       0.0624
@<TRIPOS>BOND
     1     1     2    2
     2     2     3    1
     3     3     4    1
     4     4     5    1
     5     5     6    1
     6     6     7    1
     7     7     8   ar
     8     8     9   ar
     9     9    10   ar
    10    10    11    1
    11    10    12   ar
    12    12    13   ar
    13     7    13   ar
    14     2    14    1
    15    14    15   ar
    16    15    16   ar
    17    16    17    2
    18    16    18   ar
    19    18    19   ar
    20    19    20   ar
    21    20    21   ar
    22    21    22   ar
    23    22    23   ar
    24    23    24   ar
    25    14    24   ar
    26    19    24   ar
    27     4    25    1
    28     4    26    1
    29     5    27    1
    30     5    28    1
    31    18    29    1
    32     8    30    1
    33     9    31    1
    34    12    32    1
    35    13    33    1
    36    15    34    1
    37    20    35    1
    38    21    36    1
    39    22    37    1
    40    23    38    1
@<TRIPOS>MOLECULE
mol27_1_5
 38 40 0 0 0
SMALL
USER_CHARGES
****
VDW energy = -36.22
@<TRIPOS>ATOM
   1 O1       -6.6029     8.5284    -2.0234  O.2     1  <O>11      -0.2449
   2 C1       -6.3562     8.4196    -3.2153  C.2     1  <O>11       0.3401
   3 O2       -7.2140     8.9270    -4.1340  O.3     1  <O>11      -0.4577
   4 C2       -8.3130     9.5300    -3.4720  C.3     1  <O>11       0.1267
   5 C3       -9.2750    10.0990    -4.5030  C.3     1  <O>11       0.1236
   6 O3      -10.3740    10.7030    -3.8410  O.3     1  <O>11      -0.4886
   7 C4      -11.2450    11.2180    -4.7740  C.ar    1  <O>11       0.1208
   8 C5      -12.4200    11.8700    -4.3630  C.ar    1  <O>11      -0.0172
   9 C6      -13.3110    12.3830    -5.3120  C.ar    1  <O>11      -0.0230
  10 C7      -13.0370    12.2530    -6.6760  C.ar    1  <O>11       0.1236
  11 F1      -13.9070    12.7510    -7.6110  F       1  <O>11      -0.2055
  12 C8      -11.8640    11.6090    -7.0850  C.ar    1  <O>11      -0.0230
  13 C9      -10.9670    11.0960    -6.1460  C.ar    1  <O>11      -0.0172
  14 C10      -5.1480     7.7490    -3.6460  C.ar    1  <O>11       0.0732
  15 C11      -3.9775     8.4750    -3.8263  C.ar    1  <O>11       0.0173
  16 C12      -2.8389     7.7988    -4.2317  C.ar    1  <O>11       0.2500
  17 O4       -1.6607     8.5509    -4.4048  O.2     1  <O>11      -0.2679
  18 N1       -2.8291     6.4654    -4.4610  N.ar    1  <O>11      -0.3221
  19 C13      -3.9632     5.7546    -4.3084  C.ar    1  <O>11       0.0500
  20 C14      -3.9966     4.3774    -4.5515  C.ar    1  <O>11      -0.0377
  21 C15      -5.1521     3.6167    -4.3303  C.ar    1  <O>11      -0.0598
  22 C16      -6.3216     4.2350    -3.9067  C.ar    1  <O>11      -0.0611
  23 C17      -6.3277     5.6104    -3.6905  C.ar    1  <O>11      -0.0518
  24 C18      -5.1593     6.3689    -3.8813  C.ar    1  <O>11       0.0125
  25 H1       -7.9540    10.3330    -2.8280  H       1  <O>11       0.0732
  26 H2       -8.8280     8.7830    -2.8680  H       1  <O>11       0.0732
  27 H3       -9.6340     9.2960    -5.1460  H       1  <O>11       0.0731
  28 H4       -8.7600    10.8460    -5.1070  H       1  <O>11       0.0731
  29 H5       -1.9893     5.9819    -4.7451  H       1  <O>11       0.1689
  30 H6      -12.6266    11.9709    -3.3569  H       1  <O>11       0.0655
  31 H7      -14.1732    12.8589    -5.0036  H       1  <O>11       0.0647
  32 H8      -11.6596    11.5121    -8.0919  H       1  <O>11       0.0647
  33 H9      -10.1019    10.6283    -6.4588  H       1  <O>11       0.0655
  34 H10      -3.9568     9.4936    -3.6622  H       1  <O>11       0.0680
  35 H11      -3.1470     3.9090    -4.9033  H       1  <O>11       0.0638
  36 H12      -5.1343     2.5961    -4.4821  H       1  <O>11       0.0618
  37 H13      -7.1781     3.6800    -3.7537  H       1  <O>11       0.0618
  38 H14      -7.1969     6.0770    -3.3877  H       1  <O>11       0.0624
@<TRIPOS>BOND
     1     1     2    2
     2     2     3    1
     3     3     4    1
     4     4     5    1
     5     5     6    1
     6     6     7    1
     7     7     8   ar
     8     8     9   ar
     9     9    10   ar
    10    10    11    1
    11    10    12   ar
    12    12    13   ar
    13     7    13   ar
    14     2    14    1
    15    14    15   ar
    16    15    16   ar
    17    16    17    2
    18    16    18   ar
    19    18    19   ar
    20    19    20   ar
    21    20    21   ar
    22    21    22   ar
    23    22    23   ar
    24    23    24   ar
    25    14    24   ar
    26    19    24   ar
    27     4    25    1
    28     4    26    1
    29     5    27    1
    30     5    28    1
    31    18    29    1
    32     8    30    1
    33     9    31    1
    34    12    32    1
    35    13    33    1
    36    15    34    1
    37    20    35    1
    38    21    36    1
    39    22    37    1
    40    23    38    1
@<TRIPOS>MOLECULE
mol27_1_6
 38 40 0 0 0
SMALL
USER_CHARGES
****
VDW energy = -33.18
@<TRIPOS>ATOM
   1 O1       -6.6029     8.5284    -2.0234  O.2     1  <O>11      -0.2449
   2 C1       -6.3562     8.4196    -3.2153  C.2     1  <O>11       0.3401
   3 O2       -7.2140     8.9270    -4.1340  O.3     1  <O>11      -0.4577
   4 C2       -8.3130     9.5300    -3.4720  C.3     1  <O>11       0.1267
   5 C3       -9.2750    10.0990    -4.5030  C.3     1  <O>11       0.1236
   6 O3       -8.5385    10.6995    -5.5556  O.3     1  <O>11      -0.4886
   7 C4       -9.4091    11.2148    -6.4889  C.ar    1  <O>11       0.1208
   8 C5       -8.9178    11.8654    -7.6334  C.ar    1  <O>11      -0.0172
   9 C6       -9.8031    12.3994    -8.5760  C.ar    1  <O>11      -0.0230
  10 C7      -11.1831    12.2868    -8.3872  C.ar    1  <O>11       0.1236
  11 F1      -12.0560    12.8101    -9.3055  F       1  <O>11      -0.2055
  12 C8      -11.6721    11.6337    -7.2505  C.ar    1  <O>11      -0.0230
  13 C9      -10.7970    11.0949    -6.3052  C.ar    1  <O>11      -0.0172
  14 C10      -5.1480     7.7490    -3.6460  C.ar    1  <O>11       0.0732
  15 C11      -5.1593     6.3795    -3.8789  C.ar    1  <O>11       0.0173
  16 C12      -3.9867     5.7730    -4.2974  C.ar    1  <O>11       0.2500
  17 O4       -4.0188     4.3847    -4.5329  O.2     1  <O>11      -0.2679
  18 N1       -2.8376     6.4632    -4.4813  N.ar    1  <O>11      -0.3221
  19 C13      -2.8099     7.7881    -4.2394  C.ar    1  <O>11       0.0500
  20 C14      -1.6371     8.5329    -4.4025  C.ar    1  <O>11      -0.0377
  21 C15      -1.6134     9.9217    -4.2203  C.ar    1  <O>11      -0.0598
  22 C16      -2.7624    10.5903    -3.8174  C.ar    1  <O>11      -0.0611
  23 C17      -3.9360     9.8697    -3.6130  C.ar    1  <O>11      -0.0518
  24 C18      -3.9681     8.4805    -3.8273  C.ar    1  <O>11       0.0125
  25 H1       -7.9540    10.3330    -2.8280  H       1  <O>11       0.0732
  26 H2       -8.8280     8.7830    -2.8680  H       1  <O>11       0.0732
  27 H3       -9.9114    10.8470    -4.0312  H       1  <O>11       0.0731
  28 H4       -9.8934     9.2963    -4.9047  H       1  <O>11       0.0731
  29 H5       -1.9919     6.0111    -4.7980  H       1  <O>11       0.1689
  30 H6       -7.8996    11.9497    -7.7793  H       1  <O>11       0.0655
  31 H7       -9.4359    12.8779    -9.4134  H       1  <O>11       0.0647
  32 H8      -12.6909    11.5492    -7.1092  H       1  <O>11       0.0647
  33 H9      -11.1687    10.6099    -5.4735  H       1  <O>11       0.0655
  34 H10      -6.0206     5.8275    -3.7434  H       1  <O>11       0.0680
  35 H11      -0.7656     8.0460    -4.6642  H       1  <O>11       0.0638
  36 H12      -0.7415    10.4486    -4.3856  H       1  <O>11       0.0618
  37 H13      -2.7462    11.6117    -3.6708  H       1  <O>11       0.0618
  38 H14      -4.7895    10.3593    -3.3017  H       1  <O>11       0.0624
@<TRIPOS>BOND
     1     1     2    2
     2     2     3    1
     3     3     4    1
     4     4     5    1
     5     5     6    1
     6     6     7    1
     7     7     8   ar
     8     8     9   ar
     9     9    10   ar
    10    10    11    1
    11    10    12   ar
    12    12    13   ar
    13     7    13   ar
    14     2    14    1
    15    14    15   ar
    16    15    16   ar
    17    16    17    2
    18    16    18   ar
    19    18    19   ar
    20    19    20   ar
    21    20    21   ar
    22    21    22   ar
    23    22    23   ar
    24    23    24   ar
    25    14    24   ar
    26    19    24   ar
    27     4    25    1
    28     4    26    1
    29     5    27    1
    30     5    28    1
    31    18    29    1
    32     8    30    1
    33     9    31    1
    34    12    32    1
    35    13    33    1
    36    15    34    1
    37    20    35    1
    38    21    36    1
    39    22    37    1
    40    23    38    1
@<TRIPOS>MOLECULE
mol27_1_7
 38 40 0 0 0
SMALL
USER_CHARGES
****
VDW energy = -33.17
@<TRIPOS>ATOM
   1 O1       -6.6029     8.5284    -2.0234  O.2     1  <O>11      -0.2449
   2 C1       -6.3562     8.4196    -3.2153  C.2     1  <O>11       0.3401
   3 O2       -7.2140     8.9270    -4.1340  O.3     1  <O>11      -0.4577
   4 C2       -8.3130     9.5300    -3.4720  C.3     1  <O>11       0.1267
   5 C3       -9.2750    10.0990    -4.5030  C.3     1  <O>11       0.1236
   6 O3       -9.3846     9.1997    -5.5939  O.3     1  <O>11      -0.4886
   7 C4      -10.2552     9.7145    -6.5273  C.ar    1  <O>11       0.1208
   8 C5      -10.5309     9.0035    -7.7076  C.ar    1  <O>11      -0.0172
   9 C6      -11.4069     9.5328    -8.6617  C.ar    1  <O>11      -0.0230
  10 C7      -12.0163    10.7715    -8.4460  C.ar    1  <O>11       0.1236
  11 F1      -12.8735    11.2969    -9.3778  F       1  <O>11      -0.2055
  12 C8      -11.7463    11.4766    -7.2679  C.ar    1  <O>11      -0.0230
  13 C9      -10.8758    10.9561    -6.3083  C.ar    1  <O>11      -0.0172
  14 C10      -5.1480     7.7490    -3.6460  C.ar    1  <O>11       0.0732
  15 C11      -3.9775     8.4750    -3.8263  C.ar    1  <O>11       0.0173
  16 C12      -2.8389     7.7988    -4.2317  C.ar    1  <O>11       0.2500
  17 O4       -1.6607     8.5509    -4.4048  O.2     1  <O>11      -0.2679
  18 N1       -2.8291     6.4654    -4.4610  N.ar    1  <O>11      -0.3221
  19 C13      -3.9632     5.7546    -4.3084  C.ar    1  <O>11       0.0500
  20 C14      -3.9966     4.3774    -4.5515  C.ar    1  <O>11      -0.0377
  21 C15      -5.1521     3.6167    -4.3303  C.ar    1  <O>11      -0.0598
  22 C16      -6.3216     4.2350    -3.9067  C.ar    1  <O>11      -0.0611
  23 C17      -6.3277     5.6104    -3.6905  C.ar    1  <O>11      -0.0518
  24 C18      -5.1593     6.3689    -3.8813  C.ar    1  <O>11       0.0125
  25 H1       -7.9540    10.3330    -2.8280  H       1  <O>11       0.0732
  26 H2       -8.8280     8.7830    -2.8680  H       1  <O>11       0.0732
  27 H3       -8.8999    11.0583    -4.8584  H       1  <O>11       0.0731
  28 H4      -10.2554    10.2379    -4.0473  H       1  <O>11       0.0731
  29 H5       -1.9893     5.9819    -4.7451  H       1  <O>11       0.1689
  30 H6      -10.0854     8.0871    -7.8715  H       1  <O>11       0.0655
  31 H7      -11.6035     9.0065    -9.5274  H       1  <O>11       0.0647
  32 H8      -12.1955    12.3916    -7.1065  H       1  <O>11       0.0647
  33 H9      -10.6886    11.4819    -5.4403  H       1  <O>11       0.0655
  34 H10      -3.9568     9.4936    -3.6622  H       1  <O>11       0.0680
  35 H11      -3.1470     3.9090    -4.9033  H       1  <O>11       0.0638
  36 H12      -5.1343     2.5961    -4.4821  H       1  <O>11       0.0618
  37 H13      -7.1781     3.6800    -3.7537  H       1  <O>11       0.0618
  38 H14      -7.1969     6.0770    -3.3877  H       1  <O>11       0.0624
@<TRIPOS>BOND
     1     1     2    2
     2     2     3    1
     3     3     4    1
     4     4     5    1
     5     5     6    1
     6     6     7    1
     7     7     8   ar
     8     8     9   ar
     9     9    10   ar
    10    10    11    1
    11    10    12   ar
    12    12    13   ar
    13     7    13   ar
    14     2    14    1
    15    14    15   ar
    16    15    16   ar
    17    16    17    2
    18    16    18   ar
    19    18    19   ar
    20    19    20   ar
    21    20    21   ar
    22    21    22   ar
    23    22    23   ar
    24    23    24   ar
    25    14    24   ar
    26    19    24   ar
    27     4    25    1
    28     4    26    1
    29     5    27    1
    30     5    28    1
    31    18    29    1
    32     8    30    1
    33     9    31    1
    34    12    32    1
    35    13    33    1
    36    15    34    1
    37    20    35    1
    38    21    36    1
    39    22    37    1
    40    23    38    1
@<TRIPOS>MOLECULE
mol27_1_8
 38 40 0 0 0
SMALL
USER_CHARGES
****
VDW energy = -32.97
@<TRIPOS>ATOM
   1 O1       -6.6029     8.5284    -2.0234  O.2     1  <O>11      -0.2449
   2 C1       -6.3562     8.4196    -3.2153  C.2     1  <O>11       0.3401
   3 O2       -7.2140     8.9270    -4.1340  O.3     1  <O>11      -0.4577
   4 C2       -8.3130     9.5300    -3.4720  C.3     1  <O>11       0.1267
   5 C3       -9.2750    10.0990    -4.5030  C.3     1  <O>11       0.1236
   6 O3       -9.3846     9.1997    -5.5939  O.3     1  <O>11      -0.4886
   7 C4      -10.2552     9.7145    -6.5273  C.ar    1  <O>11       0.1208
   8 C5      -10.5309     9.0035    -7.7076  C.ar    1  <O>11      -0.0172
   9 C6      -11.4069     9.5328    -8.6617  C.ar    1  <O>11      -0.0230
  10 C7      -12.0163    10.7715    -8.4460  C.ar    1  <O>11       0.1236
  11 F1      -12.8735    11.2969    -9.3778  F       1  <O>11      -0.2055
  12 C8      -11.7463    11.4766    -7.2679  C.ar    1  <O>11      -0.0230
  13 C9      -10.8758    10.9561    -6.3083  C.ar    1  <O>11      -0.0172
  14 C10      -5.1480     7.7490    -3.6460  C.ar    1  <O>11       0.0732
  15 C11      -5.1593     6.3795    -3.8789  C.ar    1  <O>11       0.0173
  16 C12      -3.9867     5.7730    -4.2974  C.ar    1  <O>11       0.2500
  17 O4       -4.0188     4.3847    -4.5329  O.2     1  <O>11      -0.2679
  18 N1       -2.8376     6.4632    -4.4813  N.ar    1  <O>11      -0.3221
  19 C13      -2.8099     7.7881    -4.2394  C.ar    1  <O>11       0.0500
  20 C14      -1.6371     8.5329    -4.4025  C.ar    1  <O>11      -0.0377
  21 C15      -1.6134     9.9217    -4.2203  C.ar    1  <O>11      -0.0598
  22 C16      -2.7624    10.5903    -3.8174  C.ar    1  <O>11      -0.0611
  23 C17      -3.9360     9.8697    -3.6130  C.ar    1  <O>11      -0.0518
  24 C18      -3.9681     8.4805    -3.8273  C.ar    1  <O>11       0.0125
  25 H1       -7.9540    10.3330    -2.8280  H       1  <O>11       0.0732
  26 H2       -8.8280     8.7830    -2.8680  H       1  <O>11       0.0732
  27 H3       -8.8999    11.0583    -4.8584  H       1  <O>11       0.0731
  28 H4      -10.2554    10.2379    -4.0473  H       1  <O>11       0.0731
  29 H5       -1.9919     6.0111    -4.7980  H       1  <O>11       0.1689
  30 H6      -10.0854     8.0871    -7.8715  H       1  <O>11       0.0655
  31 H7      -11.6035     9.0065    -9.5274  H       1  <O>11       0.0647
  32 H8      -12.1955    12.3916    -7.1065  H       1  <O>11       0.0647
  33 H9      -10.6886    11.4819    -5.4403  H       1  <O>11       0.0655
  34 H10      -6.0206     5.8275    -3.7434  H       1  <O>11       0.0680
  35 H11      -0.7656     8.0460    -4.6642  H       1  <O>11       0.0638
  36 H12      -0.7415    10.4486    -4.3856  H       1  <O>11       0.0618
  37 H13      -2.7462    11.6117    -3.6708  H       1  <O>11       0.0618
  38 H14      -4.7895    10.3593    -3.3017  H       1  <O>11       0.0624
@<TRIPOS>BOND
     1     1     2    2
     2     2     3    1
     3     3     4    1
     4     4     5    1
     5     5     6    1
     6     6     7    1
     7     7     8   ar
     8     8     9   ar
     9     9    10   ar
    10    10    11    1
    11    10    12   ar
    12    12    13   ar
    13     7    13   ar
    14     2    14    1
    15    14    15   ar
    16    15    16   ar
    17    16    17    2
    18    16    18   ar
    19    18    19   ar
    20    19    20   ar
    21    20    21   ar
    22    21    22   ar
    23    22    23   ar
    24    23    24   ar
    25    14    24   ar
    26    19    24   ar
    27     4    25    1
    28     4    26    1
    29     5    27    1
    30     5    28    1
    31    18    29    1
    32     8    30    1
    33     9    31    1
    34    12    32    1
    35    13    33    1
    36    15    34    1
    37    20    35    1
    38    21    36    1
    39    22    37    1
    40    23    38    1
@<TRIPOS>MOLECULE
mol27_1_9
 38 40 0 0 0
SMALL
USER_CHARGES
****
VDW energy = -29.29
@<TRIPOS>ATOM
   1 O1       -6.6029     8.5284    -2.0234  O.2     1  <O>11      -0.2449
   2 C1       -6.3562     8.4196    -3.2153  C.2     1  <O>11       0.3401
   3 O2       -7.2140     8.9270    -4.1340  O.3     1  <O>11      -0.4577
   4 C2       -8.3130     9.5300    -3.4720  C.3     1  <O>11       0.1267
   5 C3       -9.2750    10.0990    -4.5030  C.3     1  <O>11       0.1236
   6 O3      -10.3740    10.7030    -3.8410  O.3     1  <O>11      -0.4886
   7 C4      -11.2450    11.2180    -4.7740  C.ar    1  <O>11       0.1208
   8 C5      -12.2900    10.4270    -5.2809  C.ar    1  <O>11      -0.0172
   9 C6      -13.1681    10.9471    -6.2381  C.ar    1  <O>11      -0.0230
  10 C7      -13.0136    12.2585    -6.6948  C.ar    1  <O>11       0.1236
  11 F1      -13.8687    12.7734    -7.6344  F       1  <O>11      -0.2055
  12 C8      -11.9766    13.0480    -6.1856  C.ar    1  <O>11      -0.0230
  13 C9      -11.0967    12.5395    -5.2282  C.ar    1  <O>11      -0.0172
  14 C10      -5.1480     7.7490    -3.6460  C.ar    1  <O>11       0.0732
  15 C11      -4.8680     7.6250    -5.0010  C.ar    1  <O>11       0.0173
  16 C12      -3.6990     6.9840    -5.3760  C.ar    1  <O>11       0.2500
  17 O4       -3.4300     6.8720    -6.7540  O.2     1  <O>11      -0.2679
  18 N1       -2.8290     6.4740    -4.4740  N.ar    1  <O>11      -0.3221
  19 C13      -3.1000     6.5710    -3.1580  C.ar    1  <O>11       0.0500
  20 C14      -2.2330     6.0420    -2.1960  C.ar    1  <O>11      -0.0377
  21 C15      -2.4700     6.1970    -0.8240  C.ar    1  <O>11      -0.0598
  22 C16      -3.6170     6.8460    -0.3850  C.ar    1  <O>11      -0.0611
  23 C17      -4.5160     7.3520    -1.3200  C.ar    1  <O>11      -0.0518
  24 C18      -4.2620     7.2250    -2.6970  C.ar    1  <O>11       0.0125
  25 H1       -7.9540    10.3330    -2.8280  H       1  <O>11       0.0732
  26 H2       -8.8280     8.7830    -2.8680  H       1  <O>11       0.0732
  27 H3       -9.6340     9.2960    -5.1460  H       1  <O>11       0.0731
  28 H4       -8.7600    10.8460    -5.1070  H       1  <O>11       0.0731
  29 H5       -1.9740     6.0190    -4.7600  H       1  <O>11       0.1689
  30 H6      -12.4103     9.4583    -4.9457  H       1  <O>11       0.0655
  31 H7      -13.9322    10.3602    -6.6078  H       1  <O>11       0.0647
  32 H8      -11.8608    14.0170    -6.5214  H       1  <O>11       0.0647
  33 H9      -10.3391    13.1326    -4.8550  H       1  <O>11       0.0655
  34 H10      -5.5154     8.0014    -5.7110  H       1  <O>11       0.0680
  35 H11      -1.3961     5.5235    -2.5054  H       1  <O>11       0.0638
  36 H12      -1.7918     5.8287    -0.1388  H       1  <O>11       0.0618
  37 H13      -3.8011     6.9521     0.6249  H       1  <O>11       0.0618
  38 H14      -5.3759     7.8242    -0.9997  H       1  <O>11       0.0624
@<TRIPOS>BOND
     1     1     2    2
     2     2     3    1
     3     3     4    1
     4     4     5    1
     5     5     6    1
     6     6     7    1
     7     7     8   ar
     8     8     9   ar
     9     9    10   ar
    10    10    11    1
    11    10    12   ar
    12    12    13   ar
    13     7    13   ar
    14     2    14    1
    15    14    15   ar
    16    15    16   ar
    17    16    17    2
    18    16    18   ar
    19    18    19   ar
    20    19    20   ar
    21    20    21   ar
    22    21    22   ar
    23    22    23   ar
    24    23    24   ar
    25    14    24   ar
    26    19    24   ar
    27     4    25    1
    28     4    26    1
    29     5    27    1
    30     5    28    1
    31    18    29    1
    32     8    30    1
    33     9    31    1
    34    12    32    1
    35    13    33    1
    36    15    34    1
    37    20    35    1
    38    21    36    1
    39    22    37    1
    40    23    38    1
@<TRIPOS>MOLECULE
mol27_1_10
 38 40 0 0 0
SMALL
USER_CHARGES
****
VDW energy = -29.28
@<TRIPOS>ATOM
   1 O1       -6.6029     8.5284    -2.0234  O.2     1  <O>11      -0.2449
   2 C1       -6.3562     8.4196    -3.2153  C.2     1  <O>11       0.3401
   3 O2       -7.2140     8.9270    -4.1340  O.3     1  <O>11      -0.4577
   4 C2       -8.3130     9.5300    -3.4720  C.3     1  <O>11       0.1267
   5 C3       -9.2750    10.0990    -4.5030  C.3     1  <O>11       0.1236
   6 O3      -10.3740    10.7030    -3.8410  O.3     1  <O>11      -0.4886
   7 C4      -11.2450    11.2180    -4.7740  C.ar    1  <O>11       0.1208
   8 C5      -11.0973    12.5395    -5.2283  C.ar    1  <O>11      -0.0172
   9 C6      -11.9900    13.0665    -6.1679  C.ar    1  <O>11      -0.0230
  10 C7      -13.0337    12.2808    -6.6637  C.ar    1  <O>11       0.1236
  11 F1      -13.9134    12.7918    -7.5825  F       1  <O>11      -0.2055
  12 C8      -13.1771    10.9630    -6.2157  C.ar    1  <O>11      -0.0230
  13 C9      -12.2900    10.4267    -5.2803  C.ar    1  <O>11      -0.0172
  14 C10      -5.1480     7.7490    -3.6460  C.ar    1  <O>11       0.0732
  15 C11      -4.8680     7.6250    -5.0010  C.ar    1  <O>11       0.0173
  16 C12      -3.6990     6.9840    -5.3760  C.ar    1  <O>11       0.2500
  17 O4       -3.4300     6.8720    -6.7540  O.2     1  <O>11      -0.2679
  18 N1       -2.8290     6.4740    -4.4740  N.ar    1  <O>11      -0.3221
  19 C13      -3.1000     6.5710    -3.1580  C.ar    1  <O>11       0.0500
  20 C14      -2.2330     6.0420    -2.1960  C.ar    1  <O>11      -0.0377
  21 C15      -2.4700     6.1970    -0.8240  C.ar    1  <O>11      -0.0598
  22 C16      -3.6170     6.8460    -0.3850  C.ar    1  <O>11      -0.0611
  23 C17      -4.5160     7.3520    -1.3200  C.ar    1  <O>11      -0.0518
  24 C18      -4.2620     7.2250    -2.6970  C.ar    1  <O>11       0.0125
  25 H1       -7.9540    10.3330    -2.8280  H       1  <O>11       0.0732
  26 H2       -8.8280     8.7830    -2.8680  H       1  <O>11       0.0732
  27 H3       -9.6340     9.2960    -5.1460  H       1  <O>11       0.0731
  28 H4       -8.7600    10.8460    -5.1070  H       1  <O>11       0.0731
  29 H5       -1.9740     6.0190    -4.7600  H       1  <O>11       0.1689
  30 H6      -10.3270    13.1239    -4.8673  H       1  <O>11       0.0655
  31 H7      -11.8772    14.0385    -6.4959  H       1  <O>11       0.0647
  32 H8      -13.9471    10.3809    -6.5808  H       1  <O>11       0.0647
  33 H9      -12.4015     9.4516    -4.9615  H       1  <O>11       0.0655
  34 H10      -5.5154     8.0014    -5.7110  H       1  <O>11       0.0680
  35 H11      -1.3961     5.5235    -2.5054  H       1  <O>11       0.0638
  36 H12      -1.7918     5.8287    -0.1388  H       1  <O>11       0.0618
  37 H13      -3.8011     6.9521     0.6249  H       1  <O>11       0.0618
  38 H14      -5.3759     7.8242    -0.9997  H       1  <O>11       0.0624
@<TRIPOS>BOND
     1     1     2    2
     2     2     3    1
     3     3     4    1
     4     4     5    1
     5     5     6    1
     6     6     7    1
     7     7     8   ar
     8     8     9   ar
     9     9    10   ar
    10    10    11    1
    11    10    12   ar
    12    12    13   ar
    13     7    13   ar
    14     2    14    1
    15    14    15   ar
    16    15    16   ar
    17    16    17    2
    18    16    18   ar
    19    18    19   ar
    20    19    20   ar
    21    20    21   ar
    22    21    22   ar
    23    22    23   ar
    24    23    24   ar
    25    14    24   ar
    26    19    24   ar
    27     4    25    1
    28     4    26    1
    29     5    27    1
    30     5    28    1
    31    18    29    1
    32     8    30    1
    33     9    31    1
    34    12    32    1
    35    13    33    1
    36    15    34    1
    37    20    35    1
    38    21    36    1
    39    22    37    1
    40    23    38    1
@<TRIPOS>MOLECULE
mol27_1_11
 38 40 0 0 0
SMALL
USER_CHARGES
****
VDW energy = -27.96
@<TRIPOS>ATOM
   1 O1       -6.6029     8.5284    -2.0234  O.2     1  <O>11      -0.2449
   2 C1       -6.3562     8.4196    -3.2153  C.2     1  <O>11       0.3401
   3 O2       -7.2140     8.9270    -4.1340  O.3     1  <O>11      -0.4577
   4 C2       -8.3130     9.5300    -3.4720  C.3     1  <O>11       0.1267
   5 C3       -9.2750    10.0990    -4.5030  C.3     1  <O>11       0.1236
   6 O3      -10.3740    10.7030    -3.8410  O.3     1  <O>11      -0.4886
   7 C4      -11.2450    11.2180    -4.7740  C.ar    1  <O>11       0.1208
   8 C5      -12.4200    11.8700    -4.3630  C.ar    1  <O>11      -0.0172
   9 C6      -13.3110    12.3830    -5.3120  C.ar    1  <O>11      -0.0230
  10 C7      -13.0370    12.2530    -6.6760  C.ar    1  <O>11       0.1236
  11 F1      -13.9070    12.7510    -7.6110  F       1  <O>11      -0.2055
  12 C8      -11.8640    11.6090    -7.0850  C.ar    1  <O>11      -0.0230
  13 C9      -10.9670    11.0960    -6.1460  C.ar    1  <O>11      -0.0172
  14 C10      -5.1480     7.7490    -3.6460  C.ar    1  <O>11       0.0732
  15 C11      -4.7153     6.6058    -2.9859  C.ar    1  <O>11       0.0173
  16 C12      -3.5592     5.9864    -3.4304  C.ar    1  <O>11       0.2500
  17 O4       -3.1388     4.8261    -2.7516  O.2     1  <O>11      -0.2679
  18 N1       -2.8394     6.4561    -4.4754  N.ar    1  <O>11      -0.3221
  19 C13      -3.2387     7.5750    -5.1104  C.ar    1  <O>11       0.0500
  20 C14      -2.5124     8.1003    -6.1844  C.ar    1  <O>11      -0.0377
  21 C15      -2.9547     9.2233    -6.8956  C.ar    1  <O>11      -0.0598
  22 C16      -4.1168     9.8785    -6.5087  C.ar    1  <O>11      -0.0611
  23 C17      -4.8418     9.3990    -5.4211  C.ar    1  <O>11      -0.0518
  24 C18      -4.4154     8.2528    -4.7275  C.ar    1  <O>11       0.0125
  25 H1       -7.9540    10.3330    -2.8280  H       1  <O>11       0.0732
  26 H2       -8.8280     8.7830    -2.8680  H       1  <O>11       0.0732
  27 H3       -9.6340     9.2960    -5.1460  H       1  <O>11       0.0731
  28 H4       -8.7600    10.8460    -5.1070  H       1  <O>11       0.0731
  29 H5       -2.0042     5.9885    -4.7973  H       1  <O>11       0.1689
  30 H6      -12.6266    11.9709    -3.3569  H       1  <O>11       0.0655
  31 H7      -14.1732    12.8589    -5.0036  H       1  <O>11       0.0647
  32 H8      -11.6596    11.5121    -8.0919  H       1  <O>11       0.0647
  33 H9      -10.1019    10.6283    -6.4588  H       1  <O>11       0.0655
  34 H10      -5.2426     6.2274    -2.1836  H       1  <O>11       0.0680
  35 H11      -1.6267     7.6482    -6.4604  H       1  <O>11       0.0638
  36 H12      -2.4166     9.5641    -7.7077  H       1  <O>11       0.0618
  37 H13      -4.4399    10.7131    -7.0228  H       1  <O>11       0.0618
  38 H14      -5.6992     9.8890    -5.1215  H       1  <O>11       0.0624
@<TRIPOS>BOND
     1     1     2    2
     2     2     3    1
     3     3     4    1
     4     4     5    1
     5     5     6    1
     6     6     7    1
     7     7     8   ar
     8     8     9   ar
     9     9    10   ar
    10    10    11    1
    11    10    12   ar
    12    12    13   ar
    13     7    13   ar
    14     2    14    1
    15    14    15   ar
    16    15    16   ar
    17    16    17    2
    18    16    18   ar
    19    18    19   ar
    20    19    20   ar
    21    20    21   ar
    22    21    22   ar
    23    22    23   ar
    24    23    24   ar
    25    14    24   ar
    26    19    24   ar
    27     4    25    1
    28     4    26    1
    29     5    27    1
    30     5    28    1
    31    18    29    1
    32     8    30    1
    33     9    31    1
    34    12    32    1
    35    13    33    1
    36    15    34    1
    37    20    35    1
    38    21    36    1
    39    22    37    1
    40    23    38    1
@<TRIPOS>MOLECULE
mol27_1_12
 38 40 0 0 0
SMALL
USER_CHARGES
****
VDW energy = -25.85
@<TRIPOS>ATOM
   1 O1       -6.6029     8.5284    -2.0234  O.2     1  <O>11      -0.2449
   2 C1       -6.3562     8.4196    -3.2153  C.2     1  <O>11       0.3401
   3 O2       -7.2140     8.9270    -4.1340  O.3     1  <O>11      -0.4577
   4 C2       -8.3130     9.5300    -3.4720  C.3     1  <O>11       0.1267
   5 C3       -9.2750    10.0990    -4.5030  C.3     1  <O>11       0.1236
   6 O3       -9.3846     9.1997    -5.5939  O.3     1  <O>11      -0.4886
   7 C4      -10.2552     9.7145    -6.5273  C.ar    1  <O>11       0.1208
   8 C5       -9.7797    10.5385    -7.5616  C.ar    1  <O>11      -0.0172
   9 C6      -10.6668    11.0713    -8.5034  C.ar    1  <O>11      -0.0230
  10 C7      -12.0321    10.7852    -8.4237  C.ar    1  <O>11       0.1236
  11 F1      -12.9069    11.3060    -9.3417  F       1  <O>11      -0.2055
  12 C8      -12.5046     9.9598    -7.3973  C.ar    1  <O>11      -0.0230
  13 C9      -11.6274     9.4209    -6.4541  C.ar    1  <O>11      -0.0172
  14 C10      -5.1480     7.7490    -3.6460  C.ar    1  <O>11       0.0732
  15 C11      -4.8680     7.6250    -5.0010  C.ar    1  <O>11       0.0173
  16 C12      -3.6990     6.9840    -5.3760  C.ar    1  <O>11       0.2500
  17 O4       -3.4300     6.8720    -6.7540  O.2     1  <O>11      -0.2679
  18 N1       -2.8290     6.4740    -4.4740  N.ar    1  <O>11      -0.3221
  19 C13      -3.1000     6.5710    -3.1580  C.ar    1  <O>11       0.0500
  20 C14      -2.2330     6.0420    -2.1960  C.ar    1  <O>11      -0.0377
  21 C15      -2.4700     6.1970    -0.8240  C.ar    1  <O>11      -0.0598
  22 C16      -3.6170     6.8460    -0.3850  C.ar    1  <O>11      -0.0611
  23 C17      -4.5160     7.3520    -1.3200  C.ar    1  <O>11      -0.0518
  24 C18      -4.2620     7.2250    -2.6970  C.ar    1  <O>11       0.0125
  25 H1       -7.9540    10.3330    -2.8280  H       1  <O>11       0.0732
  26 H2       -8.8280     8.7830    -2.8680  H       1  <O>11       0.0732
  27 H3       -8.8999    11.0583    -4.8584  H       1  <O>11       0.0731
  28 H4      -10.2554    10.2379    -4.0473  H       1  <O>11       0.0731
  29 H5       -1.9740     6.0190    -4.7600  H       1  <O>11       0.1689
  30 H6       -8.7720    10.7516    -7.6268  H       1  <O>11       0.0655
  31 H7      -10.3115    11.6774    -9.2593  H       1  <O>11       0.0647
  32 H8      -13.5126     9.7470    -7.3367  H       1  <O>11       0.0647
  33 H9      -11.9859     8.8085    -5.7049  H       1  <O>11       0.0655
  34 H10      -5.5154     8.0014    -5.7110  H       1  <O>11       0.0680
  35 H11      -1.3961     5.5235    -2.5054  H       1  <O>11       0.0638
  36 H12      -1.7918     5.8287    -0.1388  H       1  <O>11       0.0618
  37 H13      -3.8011     6.9521     0.6249  H       1  <O>11       0.0618
  38 H14      -5.3759     7.8242    -0.9997  H       1  <O>11       0.0624
@<TRIPOS>BOND
     1     1     2    2
     2     2     3    1
     3     3     4    1
     4     4     5    1
     5     5     6    1
     6     6     7    1
     7     7     8   ar
     8     8     9   ar
     9     9    10   ar
    10    10    11    1
    11    10    12   ar
    12    12    13   ar
    13     7    13   ar
    14     2    14    1
    15    14    15   ar
    16    15    16   ar
    17    16    17    2
    18    16    18   ar
    19    18    19   ar
    20    19    20   ar
    21    20    21   ar
    22    21    22   ar
    23    22    23   ar
    24    23    24   ar
    25    14    24   ar
    26    19    24   ar
    27     4    25    1
    28     4    26    1
    29     5    27    1
    30     5    28    1
    31    18    29    1
    32     8    30    1
    33     9    31    1
    34    12    32    1
    35    13    33    1
    36    15    34    1
    37    20    35    1
    38    21    36    1
    39    22    37    1
    40    23    38    1
@<TRIPOS>MOLECULE
mol27_1_13
 38 40 0 0 0
SMALL
USER_CHARGES
****
VDW energy = -25.85
@<TRIPOS>ATOM
   1 O1       -6.6029     8.5284    -2.0234  O.2     1  <O>11      -0.2449
   2 C1       -6.3562     8.4196    -3.2153  C.2     1  <O>11       0.3401
   3 O2       -7.2140     8.9270    -4.1340  O.3     1  <O>11      -0.4577
   4 C2       -8.3130     9.5300    -3.4720  C.3     1  <O>11       0.1267
   5 C3       -9.2750    10.0990    -4.5030  C.3     1  <O>11       0.1236
   6 O3       -8.5385    10.6995    -5.5556  O.3     1  <O>11      -0.4886
   7 C4       -9.4091    11.2148    -6.4889  C.ar    1  <O>11       0.1208
   8 C5       -9.8694    12.5375    -6.3747  C.ar    1  <O>11      -0.0172
   9 C6      -10.7636    13.0571    -7.3171  C.ar    1  <O>11      -0.0230
  10 C7      -11.2031    12.2647    -8.3807  C.ar    1  <O>11       0.1236
  11 F1      -12.0811    12.7668    -9.3060  F       1  <O>11      -0.2055
  12 C8      -10.7399    10.9495    -8.4976  C.ar    1  <O>11      -0.0230
  13 C9       -9.8455    10.4223    -7.5641  C.ar    1  <O>11      -0.0172
  14 C10      -5.1480     7.7490    -3.6460  C.ar    1  <O>11       0.0732
  15 C11      -4.8680     7.6250    -5.0010  C.ar    1  <O>11       0.0173
  16 C12      -3.6990     6.9840    -5.3760  C.ar    1  <O>11       0.2500
  17 O4       -3.4300     6.8720    -6.7540  O.2     1  <O>11      -0.2679
  18 N1       -2.8290     6.4740    -4.4740  N.ar    1  <O>11      -0.3221
  19 C13      -3.1000     6.5710    -3.1580  C.ar    1  <O>11       0.0500
  20 C14      -2.2330     6.0420    -2.1960  C.ar    1  <O>11      -0.0377
  21 C15      -2.4700     6.1970    -0.8240  C.ar    1  <O>11      -0.0598
  22 C16      -3.6170     6.8460    -0.3850  C.ar    1  <O>11      -0.0611
  23 C17      -4.5160     7.3520    -1.3200  C.ar    1  <O>11      -0.0518
  24 C18      -4.2620     7.2250    -2.6970  C.ar    1  <O>11       0.0125
  25 H1       -7.9540    10.3330    -2.8280  H       1  <O>11       0.0732
  26 H2       -8.8280     8.7830    -2.8680  H       1  <O>11       0.0732
  27 H3       -9.9114    10.8470    -4.0312  H       1  <O>11       0.0731
  28 H4       -9.8934     9.2963    -4.9047  H       1  <O>11       0.0731
  29 H5       -1.9740     6.0190    -4.7600  H       1  <O>11       0.1689
  30 H6       -9.5466    13.1282    -5.5924  H       1  <O>11       0.0655
  31 H7      -11.0995    14.0287    -7.2264  H       1  <O>11       0.0647
  32 H8      -11.0631    10.3626    -9.2825  H       1  <O>11       0.0647
  33 H9       -9.5056     9.4530    -7.6635  H       1  <O>11       0.0655
  34 H10      -5.5154     8.0014    -5.7110  H       1  <O>11       0.0680
  35 H11      -1.3961     5.5235    -2.5054  H       1  <O>11       0.0638
  36 H12      -1.7918     5.8287    -0.1388  H       1  <O>11       0.0618
  37 H13      -3.8011     6.9521     0.6249  H       1  <O>11       0.0618
  38 H14      -5.3759     7.8242    -0.9997  H       1  <O>11       0.0624
@<TRIPOS>BOND
     1     1     2    2
     2     2     3    1
     3     3     4    1
     4     4     5    1
     5     5     6    1
     6     6     7    1
     7     7     8   ar
     8     8     9   ar
     9     9    10   ar
    10    10    11    1
    11    10    12   ar
    12    12    13   ar
    13     7    13   ar
    14     2    14    1
    15    14    15   ar
    16    15    16   ar
    17    16    17    2
    18    16    18   ar
    19    18    19   ar
    20    19    20   ar
    21    20    21   ar
    22    21    22   ar
    23    22    23   ar
    24    23    24   ar
    25    14    24   ar
    26    19    24   ar
    27     4    25    1
    28     4    26    1
    29     5    27    1
    30     5    28    1
    31    18    29    1
    32     8    30    1
    33     9    31    1
    34    12    32    1
    35    13    33    1
    36    15    34    1
    37    20    35    1
    38    21    36    1
    39    22    37    1
    40    23    38    1
@<TRIPOS>MOLECULE
mol27_1_14
 38 40 0 0 0
SMALL
USER_CHARGES
****
VDW energy = -25.84
@<TRIPOS>ATOM
   1 O1       -6.6029     8.5284    -2.0234  O.2     1  <O>11      -0.2449
   2 C1       -6.3562     8.4196    -3.2153  C.2     1  <O>11       0.3401
   3 O2       -7.2140     8.9270    -4.1340  O.3     1  <O>11      -0.4577
   4 C2       -8.3130     9.5300    -3.4720  C.3     1  <O>11       0.1267
   5 C3       -9.2750    10.0990    -4.5030  C.3     1  <O>11       0.1236
   6 O3       -8.5385    10.6995    -5.5556  O.3     1  <O>11      -0.4886
   7 C4       -9.4091    11.2148    -6.4889  C.ar    1  <O>11       0.1208
   8 C5       -9.8455    10.4228    -7.5645  C.ar    1  <O>11      -0.0172
   9 C6      -10.7212    10.9507    -8.5195  C.ar    1  <O>11      -0.0230
  10 C7      -11.1704    12.2692    -8.4087  C.ar    1  <O>11       0.1236
  11 F1      -12.0264    12.7934    -9.3424  F       1  <O>11      -0.2055
  12 C8      -10.7405    13.0558    -7.3343  C.ar    1  <O>11      -0.0230
  13 C9       -9.8689    12.5376    -6.3744  C.ar    1  <O>11      -0.0172
  14 C10      -5.1480     7.7490    -3.6460  C.ar    1  <O>11       0.0732
  15 C11      -4.8680     7.6250    -5.0010  C.ar    1  <O>11       0.0173
  16 C12      -3.6990     6.9840    -5.3760  C.ar    1  <O>11       0.2500
  17 O4       -3.4300     6.8720    -6.7540  O.2     1  <O>11      -0.2679
  18 N1       -2.8290     6.4740    -4.4740  N.ar    1  <O>11      -0.3221
  19 C13      -3.1000     6.5710    -3.1580  C.ar    1  <O>11       0.0500
  20 C14      -2.2330     6.0420    -2.1960  C.ar    1  <O>11      -0.0377
  21 C15      -2.4700     6.1970    -0.8240  C.ar    1  <O>11      -0.0598
  22 C16      -3.6170     6.8460    -0.3850  C.ar    1  <O>11      -0.0611
  23 C17      -4.5160     7.3520    -1.3200  C.ar    1  <O>11      -0.0518
  24 C18      -4.2620     7.2250    -2.6970  C.ar    1  <O>11       0.0125
  25 H1       -7.9540    10.3330    -2.8280  H       1  <O>11       0.0732
  26 H2       -8.8280     8.7830    -2.8680  H       1  <O>11       0.0732
  27 H3       -9.9114    10.8470    -4.0312  H       1  <O>11       0.0731
  28 H4       -9.8934     9.2963    -4.9047  H       1  <O>11       0.0731
  29 H5       -1.9740     6.0190    -4.7600  H       1  <O>11       0.1689
  30 H6       -9.5188     9.4476    -7.6503  H       1  <O>11       0.0655
  31 H7      -11.0363    10.3645    -9.3082  H       1  <O>11       0.0647
  32 H8      -11.0712    14.0297    -7.2505  H       1  <O>11       0.0647
  33 H9       -9.5630    13.1248    -5.5828  H       1  <O>11       0.0655
  34 H10      -5.5154     8.0014    -5.7110  H       1  <O>11       0.0680
  35 H11      -1.3961     5.5235    -2.5054  H       1  <O>11       0.0638
  36 H12      -1.7918     5.8287    -0.1388  H       1  <O>11       0.0618
  37 H13      -3.8011     6.9521     0.6249  H       1  <O>11       0.0618
  38 H14      -5.3759     7.8242    -0.9997  H       1  <O>11       0.0624
@<TRIPOS>BOND
     1     1     2    2
     2     2     3    1
     3     3     4    1
     4     4     5    1
     5     5     6    1
     6     6     7    1
     7     7     8   ar
     8     8     9   ar
     9     9    10   ar
    10    10    11    1
    11    10    12   ar
    12    12    13   ar
    13     7    13   ar
    14     2    14    1
    15    14    15   ar
    16    15    16   ar
    17    16    17    2
    18    16    18   ar
    19    18    19   ar
    20    19    20   ar
    21    20    21   ar
    22    21    22   ar
    23    22    23   ar
    24    23    24   ar
    25    14    24   ar
    26    19    24   ar
    27     4    25    1
    28     4    26    1
    29     5    27    1
    30     5    28    1
    31    18    29    1
    32     8    30    1
    33     9    31    1
    34    12    32    1
    35    13    33    1
    36    15    34    1
    37    20    35    1
    38    21    36    1
    39    22    37    1
    40    23    38    1
@<TRIPOS>MOLECULE
mol27_1_15
 38 40 0 0 0
SMALL
USER_CHARGES
****
VDW energy = -25.15
@<TRIPOS>ATOM
   1 O1       -6.6029     8.5284    -2.0234  O.2     1  <O>11      -0.2449
   2 C1       -6.3562     8.4196    -3.2153  C.2     1  <O>11       0.3401
   3 O2       -7.2140     8.9270    -4.1340  O.3     1  <O>11      -0.4577
   4 C2       -8.3130     9.5300    -3.4720  C.3     1  <O>11       0.1267
   5 C3       -9.2750    10.0990    -4.5030  C.3     1  <O>11       0.1236
   6 O3       -8.5385    10.6995    -5.5556  O.3     1  <O>11      -0.4886
   7 C4       -9.4091    11.2148    -6.4889  C.ar    1  <O>11       0.1208
   8 C5       -8.9178    11.8654    -7.6334  C.ar    1  <O>11      -0.0172
   9 C6       -9.8031    12.3994    -8.5760  C.ar    1  <O>11      -0.0230
  10 C7      -11.1831    12.2868    -8.3872  C.ar    1  <O>11       0.1236
  11 F1      -12.0560    12.8101    -9.3055  F       1  <O>11      -0.2055
  12 C8      -11.6721    11.6337    -7.2505  C.ar    1  <O>11      -0.0230
  13 C9      -10.7970    11.0949    -6.3052  C.ar    1  <O>11      -0.0172
  14 C10      -5.1480     7.7490    -3.6460  C.ar    1  <O>11       0.0732
  15 C11      -4.7153     6.6058    -2.9859  C.ar    1  <O>11       0.0173
  16 C12      -3.5592     5.9864    -3.4304  C.ar    1  <O>11       0.2500
  17 O4       -3.1388     4.8261    -2.7516  O.2     1  <O>11      -0.2679
  18 N1       -2.8394     6.4561    -4.4754  N.ar    1  <O>11      -0.3221
  19 C13      -3.2387     7.5750    -5.1104  C.ar    1  <O>11       0.0500
  20 C14      -2.5124     8.1003    -6.1844  C.ar    1  <O>11      -0.0377
  21 C15      -2.9547     9.2233    -6.8956  C.ar    1  <O>11      -0.0598
  22 C16      -4.1168     9.8785    -6.5087  C.ar    1  <O>11      -0.0611
  23 C17      -4.8418     9.3990    -5.4211  C.ar    1  <O>11      -0.0518
  24 C18      -4.4154     8.2528    -4.7275  C.ar    1  <O>11       0.0125
  25 H1       -7.9540    10.3330    -2.8280  H       1  <O>11       0.0732
  26 H2       -8.8280     8.7830    -2.8680  H       1  <O>11       0.0732
  27 H3       -9.9114    10.8470    -4.0312  H       1  <O>11       0.0731
  28 H4       -9.8934     9.2963    -4.9047  H       1  <O>11       0.0731
  29 H5       -2.0042     5.9885    -4.7973  H       1  <O>11       0.1689
  30 H6       -7.8996    11.9497    -7.7793  H       1  <O>11       0.0655
  31 H7       -9.4359    12.8779    -9.4134  H       1  <O>11       0.0647
  32 H8      -12.6909    11.5492    -7.1092  H       1  <O>11       0.0647
  33 H9      -11.1687    10.6099    -5.4735  H       1  <O>11       0.0655
  34 H10      -5.2426     6.2274    -2.1836  H       1  <O>11       0.0680
  35 H11      -1.6267     7.6482    -6.4604  H       1  <O>11       0.0638
  36 H12      -2.4166     9.5641    -7.7077  H       1  <O>11       0.0618
  37 H13      -4.4399    10.7131    -7.0228  H       1  <O>11       0.0618
  38 H14      -5.6992     9.8890    -5.1215  H       1  <O>11       0.0624
@<TRIPOS>BOND
     1     1     2    2
     2     2     3    1
     3     3     4    1
     4     4     5    1
     5     5     6    1
     6     6     7    1
     7     7     8   ar
     8     8     9   ar
     9     9    10   ar
    10    10    11    1
    11    10    12   ar
    12    12    13   ar
    13     7    13   ar
    14     2    14    1
    15    14    15   ar
    16    15    16   ar
    17    16    17    2
    18    16    18   ar
    19    18    19   ar
    20    19    20   ar
    21    20    21   ar
    22    21    22   ar
    23    22    23   ar
    24    23    24   ar
    25    14    24   ar
    26    19    24   ar
    27     4    25    1
    28     4    26    1
    29     5    27    1
    30     5    28    1
    31    18    29    1
    32     8    30    1
    33     9    31    1
    34    12    32    1
    35    13    33    1
    36    15    34    1
    37    20    35    1
    38    21    36    1
    39    22    37    1
    40    23    38    1
@<TRIPOS>MOLECULE
mol27_1_16
 38 40 0 0 0
SMALL
USER_CHARGES
****
VDW energy = -23.14
@<TRIPOS>ATOM
   1 O1       -6.6029     8.5284    -2.0234  O.2     1  <O>11      -0.2449
   2 C1       -6.3562     8.4196    -3.2153  C.2     1  <O>11       0.3401
   3 O2       -7.2140     8.9270    -4.1340  O.3     1  <O>11      -0.4577
   4 C2       -6.7131     8.6777    -5.4365  C.3     1  <O>11       0.1267
   5 C3       -7.6757     9.2471    -6.4668  C.3     1  <O>11       0.1236
   6 O3       -7.1753     8.9971    -7.7698  O.3     1  <O>11      -0.4886
   7 C4       -8.0463     9.5126    -8.7025  C.ar    1  <O>11       0.1208
   8 C5       -7.7689     9.3914   -10.0748  C.ar    1  <O>11      -0.0172
   9 C6       -8.6487     9.9259   -11.0223  C.ar    1  <O>11      -0.0230
  10 C7       -9.8117    10.5818   -10.6105  C.ar    1  <O>11       0.1236
  11 F1      -10.6766    11.1100   -11.5336  F       1  <O>11      -0.2055
  12 C8      -10.0909    10.6971    -9.2442  C.ar    1  <O>11      -0.0230
  13 C9       -9.2208    10.1649    -8.2907  C.ar    1  <O>11      -0.0172
  14 C10      -5.1480     7.7490    -3.6460  C.ar    1  <O>11       0.0732
  15 C11      -5.1593     6.3795    -3.8789  C.ar    1  <O>11       0.0173
  16 C12      -3.9867     5.7730    -4.2974  C.ar    1  <O>11       0.2500
  17 O4       -4.0188     4.3847    -4.5329  O.2     1  <O>11      -0.2679
  18 N1       -2.8376     6.4632    -4.4813  N.ar    1  <O>11      -0.3221
  19 C13      -2.8099     7.7881    -4.2394  C.ar    1  <O>11       0.0500
  20 C14      -1.6371     8.5329    -4.4025  C.ar    1  <O>11      -0.0377
  21 C15      -1.6134     9.9217    -4.2203  C.ar    1  <O>11      -0.0598
  22 C16      -2.7624    10.5903    -3.8174  C.ar    1  <O>11      -0.0611
  23 C17      -3.9360     9.8697    -3.6130  C.ar    1  <O>11      -0.0518
  24 C18      -3.9681     8.4805    -3.8273  C.ar    1  <O>11       0.0125
  25 H1       -6.6126     7.6029    -5.5883  H       1  <O>11       0.0732
  26 H2       -5.7385     9.1528    -5.5484  H       1  <O>11       0.0732
  27 H3       -7.7754    10.3215    -6.3151  H       1  <O>11       0.0731
  28 H4       -8.6503     8.7720    -6.3549  H       1  <O>11       0.0731
  29 H5       -1.9919     6.0111    -4.7980  H       1  <O>11       0.1689
  30 H6       -6.9125     8.9061   -10.3849  H       1  <O>11       0.0655
  31 H7       -8.4381     9.8353   -12.0285  H       1  <O>11       0.0647
  32 H8      -10.9494    11.1810    -8.9379  H       1  <O>11       0.0647
  33 H9       -9.4397    10.2504    -7.2858  H       1  <O>11       0.0655
  34 H10      -6.0206     5.8275    -3.7434  H       1  <O>11       0.0680
  35 H11      -0.7656     8.0460    -4.6642  H       1  <O>11       0.0638
  36 H12      -0.7415    10.4486    -4.3856  H       1  <O>11       0.0618
  37 H13      -2.7462    11.6117    -3.6708  H       1  <O>11       0.0618
  38 H14      -4.7895    10.3593    -3.3017  H       1  <O>11       0.0624
@<TRIPOS>BOND
     1     1     2    2
     2     2     3    1
     3     3     4    1
     4     4     5    1
     5     5     6    1
     6     6     7    1
     7     7     8   ar
     8     8     9   ar
     9     9    10   ar
    10    10    11    1
    11    10    12   ar
    12    12    13   ar
    13     7    13   ar
    14     2    14    1
    15    14    15   ar
    16    15    16   ar
    17    16    17    2
    18    16    18   ar
    19    18    19   ar
    20    19    20   ar
    21    20    21   ar
    22    21    22   ar
    23    22    23   ar
    24    23    24   ar
    25    14    24   ar
    26    19    24   ar
    27     4    25    1
    28     4    26    1
    29     5    27    1
    30     5    28    1
    31    18    29    1
    32     8    30    1
    33     9    31    1
    34    12    32    1
    35    13    33    1
    36    15    34    1
    37    20    35    1
    38    21    36    1
    39    22    37    1
    40    23    38    1
@<TRIPOS>MOLECULE
mol27_1_17
 38 40 0 0 0
SMALL
USER_CHARGES
****
VDW energy = -18.72
@<TRIPOS>ATOM
   1 O1       -6.6029     8.5284    -2.0234  O.2     1  <O>11      -0.2449
   2 C1       -6.3562     8.4196    -3.2153  C.2     1  <O>11       0.3401
   3 O2       -7.2140     8.9270    -4.1340  O.3     1  <O>11      -0.4577
   4 C2       -8.3130     9.5300    -3.4720  C.3     1  <O>11       0.1267
   5 C3       -9.2750    10.0990    -4.5030  C.3     1  <O>11       0.1236
   6 O3      -10.3740    10.7030    -3.8410  O.3     1  <O>11      -0.4886
   7 C4       -9.9195    11.7169    -3.0287  C.ar    1  <O>11       0.1208
   8 C5       -9.8045    13.0261    -3.5261  C.ar    1  <O>11      -0.0172
   9 C6       -9.3313    14.0542    -2.7034  C.ar    1  <O>11      -0.0230
  10 C7       -8.9722    13.7867    -1.3798  C.ar    1  <O>11       0.1236
  11 F1       -8.5054    14.7888    -0.5694  F       1  <O>11      -0.2055
  12 C8       -9.0924    12.4841    -0.8830  C.ar    1  <O>11      -0.0230
  13 C9       -9.5662    11.4516    -1.6948  C.ar    1  <O>11      -0.0172
  14 C10      -5.1480     7.7490    -3.6460  C.ar    1  <O>11       0.0732
  15 C11      -4.8680     7.6250    -5.0010  C.ar    1  <O>11       0.0173
  16 C12      -3.6990     6.9840    -5.3760  C.ar    1  <O>11       0.2500
  17 O4       -3.4300     6.8720    -6.7540  O.2     1  <O>11      -0.2679
  18 N1       -2.8290     6.4740    -4.4740  N.ar    1  <O>11      -0.3221
  19 C13      -3.1000     6.5710    -3.1580  C.ar    1  <O>11       0.0500
  20 C14      -2.2330     6.0420    -2.1960  C.ar    1  <O>11      -0.0377
  21 C15      -2.4700     6.1970    -0.8240  C.ar    1  <O>11      -0.0598
  22 C16      -3.6170     6.8460    -0.3850  C.ar    1  <O>11      -0.0611
  23 C17      -4.5160     7.3520    -1.3200  C.ar    1  <O>11      -0.0518
  24 C18      -4.2620     7.2250    -2.6970  C.ar    1  <O>11       0.0125
  25 H1       -7.9540    10.3330    -2.8280  H       1  <O>11       0.0732
  26 H2       -8.8280     8.7830    -2.8680  H       1  <O>11       0.0732
  27 H3       -9.6340     9.2960    -5.1460  H       1  <O>11       0.0731
  28 H4       -8.7600    10.8460    -5.1070  H       1  <O>11       0.0731
  29 H5       -1.9740     6.0190    -4.7600  H       1  <O>11       0.1689
  30 H6      -10.0702    13.2302    -4.5022  H       1  <O>11       0.0655
  31 H7       -9.2472    15.0132    -3.0754  H       1  <O>11       0.0647
  32 H8       -8.8280    12.2843     0.0943  H       1  <O>11       0.0647
  33 H9       -9.6566    10.4959    -1.3161  H       1  <O>11       0.0655
  34 H10      -5.5154     8.0014    -5.7110  H       1  <O>11       0.0680
  35 H11      -1.3961     5.5235    -2.5054  H       1  <O>11       0.0638
  36 H12      -1.7918     5.8287    -0.1388  H       1  <O>11       0.0618
  37 H13      -3.8011     6.9521     0.6249  H       1  <O>11       0.0618
  38 H14      -5.3759     7.8242    -0.9997  H       1  <O>11       0.0624
@<TRIPOS>BOND
     1     1     2    2
     2     2     3    1
     3     3     4    1
     4     4     5    1
     5     5     6    1
     6     6     7    1
     7     7     8   ar
     8     8     9   ar
     9     9    10   ar
    10    10    11    1
    11    10    12   ar
    12    12    13   ar
    13     7    13   ar
    14     2    14    1
    15    14    15   ar
    16    15    16   ar
    17    16    17    2
    18    16    18   ar
    19    18    19   ar
    20    19    20   ar
    21    20    21   ar
    22    21    22   ar
    23    22    23   ar
    24    23    24   ar
    25    14    24   ar
    26    19    24   ar
    27     4    25    1
    28     4    26    1
    29     5    27    1
    30     5    28    1
    31    18    29    1
    32     8    30    1
    33     9    31    1
    34    12    32    1
    35    13    33    1
    36    15    34    1
    37    20    35    1
    38    21    36    1
    39    22    37    1
    40    23    38    1
@<TRIPOS>MOLECULE
mol27_1_18
 38 40 0 0 0
SMALL
USER_CHARGES
****
VDW energy = -18.67
@<TRIPOS>ATOM
   1 O1       -6.6029     8.5284    -2.0234  O.2     1  <O>11      -0.2449
   2 C1       -6.3562     8.4196    -3.2153  C.2     1  <O>11       0.3401
   3 O2       -7.2140     8.9270    -4.1340  O.3     1  <O>11      -0.4577
   4 C2       -8.3130     9.5300    -3.4720  C.3     1  <O>11       0.1267
   5 C3       -9.2750    10.0990    -4.5030  C.3     1  <O>11       0.1236
   6 O3      -10.3740    10.7030    -3.8410  O.3     1  <O>11      -0.4886
   7 C4       -9.9195    11.7169    -3.0287  C.ar    1  <O>11       0.1208
   8 C5       -9.5663    11.4522    -1.6946  C.ar    1  <O>11      -0.0172
   9 C6       -9.1156    12.4854    -0.8658  C.ar    1  <O>11      -0.0230
  10 C7       -9.0106    13.7881    -1.3601  C.ar    1  <O>11       0.1236
  11 F1       -8.5722    14.8055    -0.5527  F       1  <O>11      -0.2055
  12 C8       -9.3567    14.0505    -2.6903  C.ar    1  <O>11      -0.0230
  13 C9       -9.8050    13.0260    -3.5264  C.ar    1  <O>11      -0.0172
  14 C10      -5.1480     7.7490    -3.6460  C.ar    1  <O>11       0.0732
  15 C11      -4.8680     7.6250    -5.0010  C.ar    1  <O>11       0.0173
  16 C12      -3.6990     6.9840    -5.3760  C.ar    1  <O>11       0.2500
  17 O4       -3.4300     6.8720    -6.7540  O.2     1  <O>11      -0.2679
  18 N1       -2.8290     6.4740    -4.4740  N.ar    1  <O>11      -0.3221
  19 C13      -3.1000     6.5710    -3.1580  C.ar    1  <O>11       0.0500
  20 C14      -2.2330     6.0420    -2.1960  C.ar    1  <O>11      -0.0377
  21 C15      -2.4700     6.1970    -0.8240  C.ar    1  <O>11      -0.0598
  22 C16      -3.6170     6.8460    -0.3850  C.ar    1  <O>11      -0.0611
  23 C17      -4.5160     7.3520    -1.3200  C.ar    1  <O>11      -0.0518
  24 C18      -4.2620     7.2250    -2.6970  C.ar    1  <O>11       0.0125
  25 H1       -7.9540    10.3330    -2.8280  H       1  <O>11       0.0732
  26 H2       -8.8280     8.7830    -2.8680  H       1  <O>11       0.0732
  27 H3       -9.6340     9.2960    -5.1460  H       1  <O>11       0.0731
  28 H4       -8.7600    10.8460    -5.1070  H       1  <O>11       0.0731
  29 H5       -1.9740     6.0190    -4.7600  H       1  <O>11       0.1689
  30 H6       -9.6397    10.4915    -1.3246  H       1  <O>11       0.0655
  31 H7       -8.8598    12.2847     0.1136  H       1  <O>11       0.0647
  32 H8       -9.2797    15.0119    -3.0575  H       1  <O>11       0.0647
  33 H9      -10.0517    13.2297    -4.5075  H       1  <O>11       0.0655
  34 H10      -5.5154     8.0014    -5.7110  H       1  <O>11       0.0680
  35 H11      -1.3961     5.5235    -2.5054  H       1  <O>11       0.0638
  36 H12      -1.7918     5.8287    -0.1388  H       1  <O>11       0.0618
  37 H13      -3.8011     6.9521     0.6249  H       1  <O>11       0.0618
  38 H14      -5.3759     7.8242    -0.9997  H       1  <O>11       0.0624
@<TRIPOS>BOND
     1     1     2    2
     2     2     3    1
     3     3     4    1
     4     4     5    1
     5     5     6    1
     6     6     7    1
     7     7     8   ar
     8     8     9   ar
     9     9    10   ar
    10    10    11    1
    11    10    12   ar
    12    12    13   ar
    13     7    13   ar
    14     2    14    1
    15    14    15   ar
    16    15    16   ar
    17    16    17    2
    18    16    18   ar
    19    18    19   ar
    20    19    20   ar
    21    20    21   ar
    22    21    22   ar
    23    22    23   ar
    24    23    24   ar
    25    14    24   ar
    26    19    24   ar
    27     4    25    1
    28     4    26    1
    29     5    27    1
    30     5    28    1
    31    18    29    1
    32     8    30    1
    33     9    31    1
    34    12    32    1
    35    13    33    1
    36    15    34    1
    37    20    35    1
    38    21    36    1
    39    22    37    1
    40    23    38    1
@<TRIPOS>MOLECULE
mol27_1_19
 38 40 0 0 0
SMALL
USER_CHARGES
****
VDW energy = -17.61
@<TRIPOS>ATOM
   1 O1       -6.6029     8.5284    -2.0234  O.2     1  <O>11      -0.2449
   2 C1       -6.3562     8.4196    -3.2153  C.2     1  <O>11       0.3401
   3 O2       -7.2140     8.9270    -4.1340  O.3     1  <O>11      -0.4577
   4 C2       -6.7131     8.6777    -5.4365  C.3     1  <O>11       0.1267
   5 C3       -7.6757     9.2471    -6.4668  C.3     1  <O>11       0.1236
   6 O3       -8.1636    10.4999    -6.0158  O.3     1  <O>11      -0.4886
   7 C4       -9.0350    11.0155    -6.9481  C.ar    1  <O>11       0.1208
   8 C5       -9.6558    12.2568    -6.7280  C.ar    1  <O>11      -0.0172
   9 C6      -10.5506    12.7751    -7.6705  C.ar    1  <O>11      -0.0230
  10 C7      -10.8312    12.0627    -8.8394  C.ar    1  <O>11       0.1236
  11 F1      -11.7090    12.5636    -9.7656  F       1  <O>11      -0.2055
  12 C8      -10.2085    10.8295    -9.0612  C.ar    1  <O>11      -0.0230
  13 C9       -9.3119    10.3048    -8.1283  C.ar    1  <O>11      -0.0172
  14 C10      -5.1480     7.7490    -3.6460  C.ar    1  <O>11       0.0732
  15 C11      -5.1593     6.3795    -3.8789  C.ar    1  <O>11       0.0173
  16 C12      -3.9867     5.7730    -4.2974  C.ar    1  <O>11       0.2500
  17 O4       -4.0188     4.3847    -4.5329  O.2     1  <O>11      -0.2679
  18 N1       -2.8376     6.4632    -4.4813  N.ar    1  <O>11      -0.3221
  19 C13      -2.8099     7.7881    -4.2394  C.ar    1  <O>11       0.0500
  20 C14      -1.6371     8.5329    -4.4025  C.ar    1  <O>11      -0.0377
  21 C15      -1.6134     9.9217    -4.2203  C.ar    1  <O>11      -0.0598
  22 C16      -2.7624    10.5903    -3.8174  C.ar    1  <O>11      -0.0611
  23 C17      -3.9360     9.8697    -3.6130  C.ar    1  <O>11      -0.0518
  24 C18      -3.9681     8.4805    -3.8273  C.ar    1  <O>11       0.0125
  25 H1       -6.6126     7.6029    -5.5883  H       1  <O>11       0.0732
  26 H2       -5.7385     9.1528    -5.5484  H       1  <O>11       0.0732
  27 H3       -8.5097     8.5593    -6.6029  H       1  <O>11       0.0731
  28 H4       -7.1555     9.3803    -7.4153  H       1  <O>11       0.0731
  29 H5       -1.9919     6.0111    -4.7980  H       1  <O>11       0.1689
  30 H6       -9.4507    12.7885    -5.8675  H       1  <O>11       0.0655
  31 H7      -11.0047    13.6863    -7.5018  H       1  <O>11       0.0647
  32 H8      -10.4142    10.3018    -9.9239  H       1  <O>11       0.0647
  33 H9       -8.8537     9.3972    -8.3050  H       1  <O>11       0.0655
  34 H10      -6.0206     5.8275    -3.7434  H       1  <O>11       0.0680
  35 H11      -0.7656     8.0460    -4.6642  H       1  <O>11       0.0638
  36 H12      -0.7415    10.4486    -4.3856  H       1  <O>11       0.0618
  37 H13      -2.7462    11.6117    -3.6708  H       1  <O>11       0.0618
  38 H14      -4.7895    10.3593    -3.3017  H       1  <O>11       0.0624
@<TRIPOS>BOND
     1     1     2    2
     2     2     3    1
     3     3     4    1
     4     4     5    1
     5     5     6    1
     6     6     7    1
     7     7     8   ar
     8     8     9   ar
     9     9    10   ar
    10    10    11    1
    11    10    12   ar
    12    12    13   ar
    13     7    13   ar
    14     2    14    1
    15    14    15   ar
    16    15    16   ar
    17    16    17    2
    18    16    18   ar
    19    18    19   ar
    20    19    20   ar
    21    20    21   ar
    22    21    22   ar
    23    22    23   ar
    24    23    24   ar
    25    14    24   ar
    26    19    24   ar
    27     4    25    1
    28     4    26    1
    29     5    27    1
    30     5    28    1
    31    18    29    1
    32     8    30    1
    33     9    31    1
    34    12    32    1
    35    13    33    1
    36    15    34    1
    37    20    35    1
    38    21    36    1
    39    22    37    1
    40    23    38    1
@<TRIPOS>MOLECULE
mol27_1_20
 38 40 0 0 0
SMALL
USER_CHARGES
****
VDW energy = -14.24
@<TRIPOS>ATOM
   1 O1       -6.6029     8.5284    -2.0234  O.2     1  <O>11      -0.2449
   2 C1       -6.3562     8.4196    -3.2153  C.2     1  <O>11       0.3401
   3 O2       -7.2140     8.9270    -4.1340  O.3     1  <O>11      -0.4577
   4 C2       -8.3130     9.5300    -3.4720  C.3     1  <O>11       0.1267
   5 C3       -9.2750    10.0990    -4.5030  C.3     1  <O>11       0.1236
   6 O3      -10.3740    10.7030    -3.8410  O.3     1  <O>11      -0.4886
   7 C4      -11.2450    11.2180    -4.7740  C.ar    1  <O>11       0.1208
   8 C5      -12.4200    11.8700    -4.3630  C.ar    1  <O>11      -0.0172
   9 C6      -13.3110    12.3830    -5.3120  C.ar    1  <O>11      -0.0230
  10 C7      -13.0370    12.2530    -6.6760  C.ar    1  <O>11       0.1236
  11 F1      -13.9070    12.7510    -7.6110  F       1  <O>11      -0.2055
  12 C8      -11.8640    11.6090    -7.0850  C.ar    1  <O>11      -0.0230
  13 C9      -10.9670    11.0960    -6.1460  C.ar    1  <O>11      -0.0172
  14 C10      -5.1480     7.7490    -3.6460  C.ar    1  <O>11       0.0732
  15 C11      -4.8680     7.6250    -5.0010  C.ar    1  <O>11       0.0173
  16 C12      -3.6990     6.9840    -5.3760  C.ar    1  <O>11       0.2500
  17 O4       -3.4300     6.8720    -6.7540  O.2     1  <O>11      -0.2679
  18 N1       -2.8290     6.4740    -4.4740  N.ar    1  <O>11      -0.3221
  19 C13      -3.1000     6.5710    -3.1580  C.ar    1  <O>11       0.0500
  20 C14      -2.2330     6.0420    -2.1960  C.ar    1  <O>11      -0.0377
  21 C15      -2.4700     6.1970    -0.8240  C.ar    1  <O>11      -0.0598
  22 C16      -3.6170     6.8460    -0.3850  C.ar    1  <O>11      -0.0611
  23 C17      -4.5160     7.3520    -1.3200  C.ar    1  <O>11      -0.0518
  24 C18      -4.2620     7.2250    -2.6970  C.ar    1  <O>11       0.0125
  25 H1       -7.9540    10.3330    -2.8280  H       1  <O>11       0.0732
  26 H2       -8.8280     8.7830    -2.8680  H       1  <O>11       0.0732
  27 H3       -9.6340     9.2960    -5.1460  H       1  <O>11       0.0731
  28 H4       -8.7600    10.8460    -5.1070  H       1  <O>11       0.0731
  29 H5       -1.9740     6.0190    -4.7600  H       1  <O>11       0.1689
  30 H6      -12.6266    11.9709    -3.3569  H       1  <O>11       0.0655
  31 H7      -14.1732    12.8589    -5.0036  H       1  <O>11       0.0647
  32 H8      -11.6596    11.5121    -8.0919  H       1  <O>11       0.0647
  33 H9      -10.1019    10.6283    -6.4588  H       1  <O>11       0.0655
  34 H10      -5.5154     8.0014    -5.7110  H       1  <O>11       0.0680
  35 H11      -1.3961     5.5235    -2.5054  H       1  <O>11       0.0638
  36 H12      -1.7918     5.8287    -0.1388  H       1  <O>11       0.0618
  37 H13      -3.8011     6.9521     0.6249  H       1  <O>11       0.0618
  38 H14      -5.3759     7.8242    -0.9997  H       1  <O>11       0.0624
@<TRIPOS>BOND
     1     1     2    2
     2     2     3    1
     3     3     4    1
     4     4     5    1
     5     5     6    1
     6     6     7    1
     7     7     8   ar
     8     8     9   ar
     9     9    10   ar
    10    10    11    1
    11    10    12   ar
    12    12    13   ar
    13     7    13   ar
    14     2    14    1
    15    14    15   ar
    16    15    16   ar
    17    16    17    2
    18    16    18   ar
    19    18    19   ar
    20    19    20   ar
    21    20    21   ar
    22    21    22   ar
    23    22    23   ar
    24    23    24   ar
    25    14    24   ar
    26    19    24   ar
    27     4    25    1
    28     4    26    1
    29     5    27    1
    30     5    28    1
    31    18    29    1
    32     8    30    1
    33     9    31    1
    34    12    32    1
    35    13    33    1
    36    15    34    1
    37    20    35    1
    38    21    36    1
    39    22    37    1
    40    23    38    1
@<TRIPOS>MOLECULE
mol27_1_21
 38 40 0 0 0
SMALL
USER_CHARGES
****
VDW energy = -13.34
@<TRIPOS>ATOM
   1 O1       -6.6029     8.5284    -2.0234  O.2     1  <O>11      -0.2449
   2 C1       -6.3562     8.4196    -3.2153  C.2     1  <O>11       0.3401
   3 O2       -7.2140     8.9270    -4.1340  O.3     1  <O>11      -0.4577
   4 C2       -8.3130     9.5300    -3.4720  C.3     1  <O>11       0.1267
   5 C3       -8.8976     8.5508    -2.4663  C.3     1  <O>11       0.1236
   6 O3       -9.9975     9.1534    -1.8045  O.3     1  <O>11      -0.4886
   7 C4      -10.5268     8.2674    -0.8940  C.ar    1  <O>11       0.1208
   8 C5       -9.7346     7.7713     0.1553  C.ar    1  <O>11      -0.0172
   9 C6      -10.2696     6.8614     1.0738  C.ar    1  <O>11      -0.0230
  10 C7      -11.5971     6.4417     0.9557  C.ar    1  <O>11       0.1236
  11 F1      -12.1267     5.5485     1.8506  F       1  <O>11      -0.2055
  12 C8      -12.3876     6.9403    -0.0857  C.ar    1  <O>11      -0.0230
  13 C9      -11.8641     7.8507    -1.0059  C.ar    1  <O>11      -0.0172
  14 C10      -5.1480     7.7490    -3.6460  C.ar    1  <O>11       0.0732
  15 C11      -5.1593     6.3795    -3.8789  C.ar    1  <O>11       0.0173
  16 C12      -3.9867     5.7730    -4.2974  C.ar    1  <O>11       0.2500
  17 O4       -4.0188     4.3847    -4.5329  O.2     1  <O>11      -0.2679
  18 N1       -2.8376     6.4632    -4.4813  N.ar    1  <O>11      -0.3221
  19 C13      -2.8099     7.7881    -4.2394  C.ar    1  <O>11       0.0500
  20 C14      -1.6371     8.5329    -4.4025  C.ar    1  <O>11      -0.0377
  21 C15      -1.6134     9.9217    -4.2203  C.ar    1  <O>11      -0.0598
  22 C16      -2.7624    10.5903    -3.8174  C.ar    1  <O>11      -0.0611
  23 C17      -3.9360     9.8697    -3.6130  C.ar    1  <O>11      -0.0518
  24 C18      -3.9681     8.4805    -3.8273  C.ar    1  <O>11       0.0125
  25 H1       -9.0757     9.7984    -4.2032  H       1  <O>11       0.0732
  26 H2       -7.9767    10.4271    -2.9522  H       1  <O>11       0.0732
  27 H3       -8.1352     8.2833    -1.7353  H       1  <O>11       0.0731
  28 H4       -9.2339     7.6537    -2.9860  H       1  <O>11       0.0731
  29 H5       -1.9919     6.0111    -4.7980  H       1  <O>11       0.1689
  30 H6       -8.7541     8.0794     0.2489  H       1  <O>11       0.0655
  31 H7       -9.6819     6.4993     1.8409  H       1  <O>11       0.0647
  32 H8      -13.3683     6.6318    -0.1747  H       1  <O>11       0.0647
  33 H9      -12.4579     8.2167    -1.7665  H       1  <O>11       0.0655
  34 H10      -6.0206     5.8275    -3.7434  H       1  <O>11       0.0680
  35 H11      -0.7656     8.0460    -4.6642  H       1  <O>11       0.0638
  36 H12      -0.7415    10.4486    -4.3856  H       1  <O>11       0.0618
  37 H13      -2.7462    11.6117    -3.6708  H       1  <O>11       0.0618
  38 H14      -4.7895    10.3593    -3.3017  H       1  <O>11       0.0624
@<TRIPOS>BOND
     1     1     2    2
     2     2     3    1
     3     3     4    1
     4     4     5    1
     5     5     6    1
     6     6     7    1
     7     7     8   ar
     8     8     9   ar
     9     9    10   ar
    10    10    11    1
    11    10    12   ar
    12    12    13   ar
    13     7    13   ar
    14     2    14    1
    15    14    15   ar
    16    15    16   ar
    17    16    17    2
    18    16    18   ar
    19    18    19   ar
    20    19    20   ar
    21    20    21   ar
    22    21    22   ar
    23    22    23   ar
    24    23    24   ar
    25    14    24   ar
    26    19    24   ar
    27     4    25    1
    28     4    26    1
    29     5    27    1
    30     5    28    1
    31    18    29    1
    32     8    30    1
    33     9    31    1
    34    12    32    1
    35    13    33    1
    36    15    34    1
    37    20    35    1
    38    21    36    1
    39    22    37    1
    40    23    38    1
@<TRIPOS>MOLECULE
mol27_1_22
 38 40 0 0 0
SMALL
USER_CHARGES
****
VDW energy = -13.19
@<TRIPOS>ATOM
   1 O1       -6.6029     8.5284    -2.0234  O.2     1  <O>11      -0.2449
   2 C1       -6.3562     8.4196    -3.2153  C.2     1  <O>11       0.3401
   3 O2       -7.2140     8.9270    -4.1340  O.3     1  <O>11      -0.4577
   4 C2       -8.3130     9.5300    -3.4720  C.3     1  <O>11       0.1267
   5 C3       -7.7999    10.4968    -2.4164  C.3     1  <O>11       0.1236
   6 O3       -6.6792    11.2009    -2.9255  O.3     1  <O>11      -0.4886
   7 C4       -6.2144    12.0760    -1.9702  C.ar    1  <O>11       0.1208
   8 C5       -5.1023    12.8922    -2.2376  C.ar    1  <O>11      -0.0172
   9 C6       -4.6229    13.7732    -1.2620  C.ar    1  <O>11      -0.0230
  10 C7       -5.2490    13.8495    -0.0151  C.ar    1  <O>11       0.1236
  11 F1       -4.7828    14.7086     0.9461  F       1  <O>11      -0.2055
  12 C8       -6.3601    13.0410     0.2488  C.ar    1  <O>11      -0.0230
  13 C9       -6.8480    12.1606    -0.7188  C.ar    1  <O>11      -0.0172
  14 C10      -5.1480     7.7490    -3.6460  C.ar    1  <O>11       0.0732
  15 C11      -3.9775     8.4750    -3.8263  C.ar    1  <O>11       0.0173
  16 C12      -2.8389     7.7988    -4.2317  C.ar    1  <O>11       0.2500
  17 O4       -1.6607     8.5509    -4.4048  O.2     1  <O>11      -0.2679
  18 N1       -2.8291     6.4654    -4.4610  N.ar    1  <O>11      -0.3221
  19 C13      -3.9632     5.7546    -4.3084  C.ar    1  <O>11       0.0500
  20 C14      -3.9966     4.3774    -4.5515  C.ar    1  <O>11      -0.0377
  21 C15      -5.1521     3.6167    -4.3303  C.ar    1  <O>11      -0.0598
  22 C16      -6.3216     4.2350    -3.9067  C.ar    1  <O>11      -0.0611
  23 C17      -6.3277     5.6104    -3.6905  C.ar    1  <O>11      -0.0518
  24 C18      -5.1593     6.3689    -3.8813  C.ar    1  <O>11       0.0125
  25 H1       -8.9182     8.7589    -2.9949  H       1  <O>11       0.0732
  26 H2       -8.9208    10.0721    -4.1963  H       1  <O>11       0.0732
  27 H3       -7.5066     9.9402    -1.5269  H       1  <O>11       0.0731
  28 H4       -8.5873    11.2052    -2.1592  H       1  <O>11       0.0731
  29 H5       -1.9893     5.9819    -4.7451  H       1  <O>11       0.1689
  30 H6       -4.6371    12.8417    -3.1575  H       1  <O>11       0.0655
  31 H7       -3.8044    14.3684    -1.4639  H       1  <O>11       0.0647
  32 H8       -6.8241    13.0960     1.1690  H       1  <O>11       0.0647
  33 H9       -7.6719    11.5734    -0.5155  H       1  <O>11       0.0655
  34 H10      -3.9568     9.4936    -3.6622  H       1  <O>11       0.0680
  35 H11      -3.1470     3.9090    -4.9033  H       1  <O>11       0.0638
  36 H12      -5.1343     2.5961    -4.4821  H       1  <O>11       0.0618
  37 H13      -7.1781     3.6800    -3.7537  H       1  <O>11       0.0618
  38 H14      -7.1969     6.0770    -3.3877  H       1  <O>11       0.0624
@<TRIPOS>BOND
     1     1     2    2
     2     2     3    1
     3     3     4    1
     4     4     5    1
     5     5     6    1
     6     6     7    1
     7     7     8   ar
     8     8     9   ar
     9     9    10   ar
    10    10    11    1
    11    10    12   ar
    12    12    13   ar
    13     7    13   ar
    14     2    14    1
    15    14    15   ar
    16    15    16   ar
    17    16    17    2
    18    16    18   ar
    19    18    19   ar
    20    19    20   ar
    21    20    21   ar
    22    21    22   ar
    23    22    23   ar
    24    23    24   ar
    25    14    24   ar
    26    19    24   ar
    27     4    25    1
    28     4    26    1
    29     5    27    1
    30     5    28    1
    31    18    29    1
    32     8    30    1
    33     9    31    1
    34    12    32    1
    35    13    33    1
    36    15    34    1
    37    20    35    1
    38    21    36    1
    39    22    37    1
    40    23    38    1
@<TRIPOS>MOLECULE
mol27_1_23
 38 40 0 0 0
SMALL
USER_CHARGES
****
VDW energy = -13.17
@<TRIPOS>ATOM
   1 O1       -6.6029     8.5284    -2.0234  O.2     1  <O>11      -0.2449
   2 C1       -6.3562     8.4196    -3.2153  C.2     1  <O>11       0.3401
   3 O2       -7.2140     8.9270    -4.1340  O.3     1  <O>11      -0.4577
   4 C2       -8.3130     9.5300    -3.4720  C.3     1  <O>11       0.1267
   5 C3       -8.8976     8.5508    -2.4663  C.3     1  <O>11       0.1236
   6 O3       -8.9089     7.2482    -3.0267  O.3     1  <O>11      -0.4886
   7 C4       -9.4381     6.3617    -2.1166  C.ar    1  <O>11       0.1208
   8 C5       -9.5569     4.9995    -2.4405  C.ar    1  <O>11      -0.0172
   9 C6      -10.1059     4.1006    -1.5195  C.ar    1  <O>11      -0.0230
  10 C7      -10.5375     4.5511    -0.2691  C.ar    1  <O>11       0.1236
  11 F1      -11.0787     3.6761     0.6368  F       1  <O>11      -0.2055
  12 C8      -10.4136     5.9065     0.0555  C.ar    1  <O>11      -0.0230
  13 C9       -9.8647     6.8112    -0.8554  C.ar    1  <O>11      -0.0172
  14 C10      -5.1480     7.7490    -3.6460  C.ar    1  <O>11       0.0732
  15 C11      -5.1593     6.3795    -3.8789  C.ar    1  <O>11       0.0173
  16 C12      -3.9867     5.7730    -4.2974  C.ar    1  <O>11       0.2500
  17 O4       -4.0188     4.3847    -4.5329  O.2     1  <O>11      -0.2679
  18 N1       -2.8376     6.4632    -4.4813  N.ar    1  <O>11      -0.3221
  19 C13      -2.8099     7.7881    -4.2394  C.ar    1  <O>11       0.0500
  20 C14      -1.6371     8.5329    -4.4025  C.ar    1  <O>11      -0.0377
  21 C15      -1.6134     9.9217    -4.2203  C.ar    1  <O>11      -0.0598
  22 C16      -2.7624    10.5903    -3.8174  C.ar    1  <O>11      -0.0611
  23 C17      -3.9360     9.8697    -3.6130  C.ar    1  <O>11      -0.0518
  24 C18      -3.9681     8.4805    -3.8273  C.ar    1  <O>11       0.0125
  25 H1       -9.0757     9.7984    -4.2032  H       1  <O>11       0.0732
  26 H2       -7.9767    10.4271    -2.9522  H       1  <O>11       0.0732
  27 H3       -9.9158     8.8495    -2.2191  H       1  <O>11       0.0731
  28 H4       -8.2886     8.5516    -1.5623  H       1  <O>11       0.0731
  29 H5       -1.9919     6.0111    -4.7980  H       1  <O>11       0.1689
  30 H6       -9.2379     4.6606    -3.3616  H       1  <O>11       0.0655
  31 H7      -10.1923     3.1018    -1.7643  H       1  <O>11       0.0647
  32 H8      -10.7316     6.2412     0.9785  H       1  <O>11       0.0647
  33 H9       -9.7725     7.8076    -0.6031  H       1  <O>11       0.0655
  34 H10      -6.0206     5.8275    -3.7434  H       1  <O>11       0.0680
  35 H11      -0.7656     8.0460    -4.6642  H       1  <O>11       0.0638
  36 H12      -0.7415    10.4486    -4.3856  H       1  <O>11       0.0618
  37 H13      -2.7462    11.6117    -3.6708  H       1  <O>11       0.0618
  38 H14      -4.7895    10.3593    -3.3017  H       1  <O>11       0.0624
@<TRIPOS>BOND
     1     1     2    2
     2     2     3    1
     3     3     4    1
     4     4     5    1
     5     5     6    1
     6     6     7    1
     7     7     8   ar
     8     8     9   ar
     9     9    10   ar
    10    10    11    1
    11    10    12   ar
    12    12    13   ar
    13     7    13   ar
    14     2    14    1
    15    14    15   ar
    16    15    16   ar
    17    16    17    2
    18    16    18   ar
    19    18    19   ar
    20    19    20   ar
    21    20    21   ar
    22    21    22   ar
    23    22    23   ar
    24    23    24   ar
    25    14    24   ar
    26    19    24   ar
    27     4    25    1
    28     4    26    1
    29     5    27    1
    30     5    28    1
    31    18    29    1
    32     8    30    1
    33     9    31    1
    34    12    32    1
    35    13    33    1
    36    15    34    1
    37    20    35    1
    38    21    36    1
    39    22    37    1
    40    23    38    1
@<TRIPOS>MOLECULE
mol27_1_24
 38 40 0 0 0
SMALL
USER_CHARGES
****
VDW energy = -10.85
@<TRIPOS>ATOM
   1 O1       -6.6029     8.5284    -2.0234  O.2     1  <O>11      -0.2449
   2 C1       -6.3562     8.4196    -3.2153  C.2     1  <O>11       0.3401
   3 O2       -7.2140     8.9270    -4.1340  O.3     1  <O>11      -0.4577
   4 C2       -8.3130     9.5300    -3.4720  C.3     1  <O>11       0.1267
   5 C3       -9.2750    10.0990    -4.5030  C.3     1  <O>11       0.1236
   6 O3       -9.3846     9.1997    -5.5939  O.3     1  <O>11      -0.4886
   7 C4      -10.2552     9.7145    -6.5273  C.ar    1  <O>11       0.1208
   8 C5      -10.5309     9.0035    -7.7076  C.ar    1  <O>11      -0.0172
   9 C6      -11.4069     9.5328    -8.6617  C.ar    1  <O>11      -0.0230
  10 C7      -12.0163    10.7715    -8.4460  C.ar    1  <O>11       0.1236
  11 F1      -12.8735    11.2969    -9.3778  F       1  <O>11      -0.2055
  12 C8      -11.7463    11.4766    -7.2679  C.ar    1  <O>11      -0.0230
  13 C9      -10.8758    10.9561    -6.3083  C.ar    1  <O>11      -0.0172
  14 C10      -5.1480     7.7490    -3.6460  C.ar    1  <O>11       0.0732
  15 C11      -4.8680     7.6250    -5.0010  C.ar    1  <O>11       0.0173
  16 C12      -3.6990     6.9840    -5.3760  C.ar    1  <O>11       0.2500
  17 O4       -3.4300     6.8720    -6.7540  O.2     1  <O>11      -0.2679
  18 N1       -2.8290     6.4740    -4.4740  N.ar    1  <O>11      -0.3221
  19 C13      -3.1000     6.5710    -3.1580  C.ar    1  <O>11       0.0500
  20 C14      -2.2330     6.0420    -2.1960  C.ar    1  <O>11      -0.0377
  21 C15      -2.4700     6.1970    -0.8240  C.ar    1  <O>11      -0.0598
  22 C16      -3.6170     6.8460    -0.3850  C.ar    1  <O>11      -0.0611
  23 C17      -4.5160     7.3520    -1.3200  C.ar    1  <O>11      -0.0518
  24 C18      -4.2620     7.2250    -2.6970  C.ar    1  <O>11       0.0125
  25 H1       -7.9540    10.3330    -2.8280  H       1  <O>11       0.0732
  26 H2       -8.8280     8.7830    -2.8680  H       1  <O>11       0.0732
  27 H3       -8.8999    11.0583    -4.8584  H       1  <O>11       0.0731
  28 H4      -10.2554    10.2379    -4.0473  H       1  <O>11       0.0731
  29 H5       -1.9740     6.0190    -4.7600  H       1  <O>11       0.1689
  30 H6      -10.0854     8.0871    -7.8715  H       1  <O>11       0.0655
  31 H7      -11.6035     9.0065    -9.5274  H       1  <O>11       0.0647
  32 H8      -12.1955    12.3916    -7.1065  H       1  <O>11       0.0647
  33 H9      -10.6886    11.4819    -5.4403  H       1  <O>11       0.0655
  34 H10      -5.5154     8.0014    -5.7110  H       1  <O>11       0.0680
  35 H11      -1.3961     5.5235    -2.5054  H       1  <O>11       0.0638
  36 H12      -1.7918     5.8287    -0.1388  H       1  <O>11       0.0618
  37 H13      -3.8011     6.9521     0.6249  H       1  <O>11       0.0618
  38 H14      -5.3759     7.8242    -0.9997  H       1  <O>11       0.0624
@<TRIPOS>BOND
     1     1     2    2
     2     2     3    1
     3     3     4    1
     4     4     5    1
     5     5     6    1
     6     6     7    1
     7     7     8   ar
     8     8     9   ar
     9     9    10   ar
    10    10    11    1
    11    10    12   ar
    12    12    13   ar
    13     7    13   ar
    14     2    14    1
    15    14    15   ar
    16    15    16   ar
    17    16    17    2
    18    16    18   ar
    19    18    19   ar
    20    19    20   ar
    21    20    21   ar
    22    21    22   ar
    23    22    23   ar
    24    23    24   ar
    25    14    24   ar
    26    19    24   ar
    27     4    25    1
    28     4    26    1
    29     5    27    1
    30     5    28    1
    31    18    29    1
    32     8    30    1
    33     9    31    1
    34    12    32    1
    35    13    33    1
    36    15    34    1
    37    20    35    1
    38    21    36    1
    39    22    37    1
    40    23    38    1
@<TRIPOS>MOLECULE
mol27_1_25
 38 40 0 0 0
SMALL
USER_CHARGES
****
VDW energy = -10.85
@<TRIPOS>ATOM
   1 O1       -6.6029     8.5284    -2.0234  O.2     1  <O>11      -0.2449
   2 C1       -6.3562     8.4196    -3.2153  C.2     1  <O>11       0.3401
   3 O2       -7.2140     8.9270    -4.1340  O.3     1  <O>11      -0.4577
   4 C2       -8.3130     9.5300    -3.4720  C.3     1  <O>11       0.1267
   5 C3       -9.2750    10.0990    -4.5030  C.3     1  <O>11       0.1236
   6 O3       -8.5385    10.6995    -5.5556  O.3     1  <O>11      -0.4886
   7 C4       -9.4091    11.2148    -6.4889  C.ar    1  <O>11       0.1208
   8 C5       -8.9178    11.8645    -7.6339  C.ar    1  <O>11      -0.0172
   9 C6       -9.8031    12.3985    -8.5765  C.ar    1  <O>11      -0.0230
  10 C7      -11.1830    12.2868    -8.3872  C.ar    1  <O>11       0.1236
  11 F1      -12.0559    12.8101    -9.3055  F       1  <O>11      -0.2055
  12 C8      -11.6721    11.6346    -7.2500  C.ar    1  <O>11      -0.0230
  13 C9      -10.7970    11.0958    -6.3047  C.ar    1  <O>11      -0.0172
  14 C10      -5.1480     7.7490    -3.6460  C.ar    1  <O>11       0.0732
  15 C11      -4.8680     7.6250    -5.0010  C.ar    1  <O>11       0.0173
  16 C12      -3.6990     6.9840    -5.3760  C.ar    1  <O>11       0.2500
  17 O4       -3.4300     6.8720    -6.7540  O.2     1  <O>11      -0.2679
  18 N1       -2.8290     6.4740    -4.4740  N.ar    1  <O>11      -0.3221
  19 C13      -3.1000     6.5710    -3.1580  C.ar    1  <O>11       0.0500
  20 C14      -2.2330     6.0420    -2.1960  C.ar    1  <O>11      -0.0377
  21 C15      -2.4700     6.1970    -0.8240  C.ar    1  <O>11      -0.0598
  22 C16      -3.6170     6.8460    -0.3850  C.ar    1  <O>11      -0.0611
  23 C17      -4.5160     7.3520    -1.3200  C.ar    1  <O>11      -0.0518
  24 C18      -4.2620     7.2250    -2.6970  C.ar    1  <O>11       0.0125
  25 H1       -7.9540    10.3330    -2.8280  H       1  <O>11       0.0732
  26 H2       -8.8280     8.7830    -2.8680  H       1  <O>11       0.0732
  27 H3       -9.9114    10.8470    -4.0312  H       1  <O>11       0.0731
  28 H4       -9.8934     9.2963    -4.9047  H       1  <O>11       0.0731
  29 H5       -1.9740     6.0190    -4.7600  H       1  <O>11       0.1689
  30 H6       -7.8996    11.9481    -7.7801  H       1  <O>11       0.0655
  31 H7       -9.4359    12.8764    -9.4143  H       1  <O>11       0.0647
  32 H8      -12.6909    11.5508    -7.1083  H       1  <O>11       0.0647
  33 H9      -11.1687    10.6115    -5.4727  H       1  <O>11       0.0655
  34 H10      -5.5154     8.0014    -5.7110  H       1  <O>11       0.0680
  35 H11      -1.3961     5.5235    -2.5054  H       1  <O>11       0.0638
  36 H12      -1.7918     5.8287    -0.1388  H       1  <O>11       0.0618
  37 H13      -3.8011     6.9521     0.6249  H       1  <O>11       0.0618
  38 H14      -5.3759     7.8242    -0.9997  H       1  <O>11       0.0624
@<TRIPOS>BOND
     1     1     2    2
     2     2     3    1
     3     3     4    1
     4     4     5    1
     5     5     6    1
     6     6     7    1
     7     7     8   ar
     8     8     9   ar
     9     9    10   ar
    10    10    11    1
    11    10    12   ar
    12    12    13   ar
    13     7    13   ar
    14     2    14    1
    15    14    15   ar
    16    15    16   ar
    17    16    17    2
    18    16    18   ar
    19    18    19   ar
    20    19    20   ar
    21    20    21   ar
    22    21    22   ar
    23    22    23   ar
    24    23    24   ar
    25    14    24   ar
    26    19    24   ar
    27     4    25    1
    28     4    26    1
    29     5    27    1
    30     5    28    1
    31    18    29    1
    32     8    30    1
    33     9    31    1
    34    12    32    1
    35    13    33    1
    36    15    34    1
    37    20    35    1
    38    21    36    1
    39    22    37    1
    40    23    38    1
@<TRIPOS>MOLECULE
mol27_1_26
 38 40 0 0 0
SMALL
USER_CHARGES
****
VDW energy = -7.84
@<TRIPOS>ATOM
   1 O1       -6.6029     8.5284    -2.0234  O.2     1  <O>11      -0.2449
   2 C1       -6.3562     8.4196    -3.2153  C.2     1  <O>11       0.3401
   3 O2       -7.2140     8.9270    -4.1340  O.3     1  <O>11      -0.4577
   4 C2       -8.3130     9.5300    -3.4720  C.3     1  <O>11       0.1267
   5 C3       -8.8976     8.5508    -2.4663  C.3     1  <O>11       0.1236
   6 O3       -9.9975     9.1534    -1.8045  O.3     1  <O>11      -0.4886
   7 C4      -10.5268     8.2674    -0.8940  C.ar    1  <O>11       0.1208
   8 C5      -11.5478     7.3815    -1.2780  C.ar    1  <O>11      -0.0172
   9 C6      -12.0938     6.4890    -0.3490  C.ar    1  <O>11      -0.0230
  10 C7      -11.6252     6.4703     0.9673  C.ar    1  <O>11       0.1236
  11 F1      -12.1575     5.6003     1.8831  F       1  <O>11      -0.2055
  12 C8      -10.6043     7.3484     1.3479  C.ar    1  <O>11      -0.0230
  13 C9      -10.0509     8.2410     0.4279  C.ar    1  <O>11      -0.0172
  14 C10      -5.1480     7.7490    -3.6460  C.ar    1  <O>11       0.0732
  15 C11      -4.7153     6.6058    -2.9859  C.ar    1  <O>11       0.0173
  16 C12      -3.5592     5.9864    -3.4304  C.ar    1  <O>11       0.2500
  17 O4       -3.1388     4.8261    -2.7516  O.2     1  <O>11      -0.2679
  18 N1       -2.8394     6.4561    -4.4754  N.ar    1  <O>11      -0.3221
  19 C13      -3.2387     7.5750    -5.1104  C.ar    1  <O>11       0.0500
  20 C14      -2.5124     8.1003    -6.1844  C.ar    1  <O>11      -0.0377
  21 C15      -2.9547     9.2233    -6.8956  C.ar    1  <O>11      -0.0598
  22 C16      -4.1168     9.8785    -6.5087  C.ar    1  <O>11      -0.0611
  23 C17      -4.8418     9.3990    -5.4211  C.ar    1  <O>11      -0.0518
  24 C18      -4.4154     8.2528    -4.7275  C.ar    1  <O>11       0.0125
  25 H1       -9.0757     9.7984    -4.2032  H       1  <O>11       0.0732
  26 H2       -7.9767    10.4271    -2.9522  H       1  <O>11       0.0732
  27 H3       -8.1352     8.2833    -1.7353  H       1  <O>11       0.0731
  28 H4       -9.2339     7.6537    -2.9860  H       1  <O>11       0.0731
  29 H5       -2.0042     5.9885    -4.7973  H       1  <O>11       0.1689
  30 H6      -11.8965     7.3893    -2.2493  H       1  <O>11       0.0655
  31 H7      -12.8449     5.8425    -0.6368  H       1  <O>11       0.0647
  32 H8      -10.2566     7.3360     2.3195  H       1  <O>11       0.0647
  33 H9       -9.2941     8.8799     0.7179  H       1  <O>11       0.0655
  34 H10      -5.2426     6.2274    -2.1836  H       1  <O>11       0.0680
  35 H11      -1.6267     7.6482    -6.4604  H       1  <O>11       0.0638
  36 H12      -2.4166     9.5641    -7.7077  H       1  <O>11       0.0618
  37 H13      -4.4399    10.7131    -7.0228  H       1  <O>11       0.0618
  38 H14      -5.6992     9.8890    -5.1215  H       1  <O>11       0.0624
@<TRIPOS>BOND
     1     1     2    2
     2     2     3    1
     3     3     4    1
     4     4     5    1
     5     5     6    1
     6     6     7    1
     7     7     8   ar
     8     8     9   ar
     9     9    10   ar
    10    10    11    1
    11    10    12   ar
    12    12    13   ar
    13     7    13   ar
    14     2    14    1
    15    14    15   ar
    16    15    16   ar
    17    16    17    2
    18    16    18   ar
    19    18    19   ar
    20    19    20   ar
    21    20    21   ar
    22    21    22   ar
    23    22    23   ar
    24    23    24   ar
    25    14    24   ar
    26    19    24   ar
    27     4    25    1
    28     4    26    1
    29     5    27    1
    30     5    28    1
    31    18    29    1
    32     8    30    1
    33     9    31    1
    34    12    32    1
    35    13    33    1
    36    15    34    1
    37    20    35    1
    38    21    36    1
    39    22    37    1
    40    23    38    1
@<TRIPOS>MOLECULE
mol27_1_27
 38 40 0 0 0
SMALL
USER_CHARGES
****
VDW energy = -6.51
@<TRIPOS>ATOM
   1 O1       -6.6029     8.5284    -2.0234  O.2     1  <O>11      -0.2449
   2 C1       -6.3562     8.4196    -3.2153  C.2     1  <O>11       0.3401
   3 O2       -7.2140     8.9270    -4.1340  O.3     1  <O>11      -0.4577
   4 C2       -8.3130     9.5300    -3.4720  C.3     1  <O>11       0.1267
   5 C3       -7.7999    10.4968    -2.4164  C.3     1  <O>11       0.1236
   6 O3       -6.6792    11.2009    -2.9255  O.3     1  <O>11      -0.4886
   7 C4       -6.2144    12.0760    -1.9702  C.ar    1  <O>11       0.1208
   8 C5       -5.2378    11.6648    -1.0473  C.ar    1  <O>11      -0.0172
   9 C6       -4.7742    12.5510    -0.0689  C.ar    1  <O>11      -0.0230
  10 C7       -5.2774    13.8530    -0.0045  C.ar    1  <O>11       0.1236
  11 F1       -4.8294    14.7255     0.9533  F       1  <O>11      -0.2055
  12 C8       -6.2456    14.2641    -0.9273  C.ar    1  <O>11      -0.0230
  13 C9       -6.7128    13.3884    -1.9092  C.ar    1  <O>11      -0.0172
  14 C10      -5.1480     7.7490    -3.6460  C.ar    1  <O>11       0.0732
  15 C11      -4.8680     7.6250    -5.0010  C.ar    1  <O>11       0.0173
  16 C12      -3.6990     6.9840    -5.3760  C.ar    1  <O>11       0.2500
  17 O4       -3.4300     6.8720    -6.7540  O.2     1  <O>11      -0.2679
  18 N1       -2.8290     6.4740    -4.4740  N.ar    1  <O>11      -0.3221
  19 C13      -3.1000     6.5710    -3.1580  C.ar    1  <O>11       0.0500
  20 C14      -2.2330     6.0420    -2.1960  C.ar    1  <O>11      -0.0377
  21 C15      -2.4700     6.1970    -0.8240  C.ar    1  <O>11      -0.0598
  22 C16      -3.6170     6.8460    -0.3850  C.ar    1  <O>11      -0.0611
  23 C17      -4.5160     7.3520    -1.3200  C.ar    1  <O>11      -0.0518
  24 C18      -4.2620     7.2250    -2.6970  C.ar    1  <O>11       0.0125
  25 H1       -8.9182     8.7589    -2.9949  H       1  <O>11       0.0732
  26 H2       -8.9208    10.0721    -4.1963  H       1  <O>11       0.0732
  27 H3       -7.5066     9.9402    -1.5269  H       1  <O>11       0.0731
  28 H4       -8.5873    11.2052    -2.1592  H       1  <O>11       0.0731
  29 H5       -1.9740     6.0190    -4.7600  H       1  <O>11       0.1689
  30 H6       -4.8609    10.7050    -1.0914  H       1  <O>11       0.0655
  31 H7       -4.0584    12.2422     0.6072  H       1  <O>11       0.0647
  32 H8       -6.6184    15.2253    -0.8816  H       1  <O>11       0.0647
  33 H9       -7.4226    13.7041    -2.5886  H       1  <O>11       0.0655
  34 H10      -5.5154     8.0014    -5.7110  H       1  <O>11       0.0680
  35 H11      -1.3961     5.5235    -2.5054  H       1  <O>11       0.0638
  36 H12      -1.7918     5.8287    -0.1388  H       1  <O>11       0.0618
  37 H13      -3.8011     6.9521     0.6249  H       1  <O>11       0.0618
  38 H14      -5.3759     7.8242    -0.9997  H       1  <O>11       0.0624
@<TRIPOS>BOND
     1     1     2    2
     2     2     3    1
     3     3     4    1
     4     4     5    1
     5     5     6    1
     6     6     7    1
     7     7     8   ar
     8     8     9   ar
     9     9    10   ar
    10    10    11    1
    11    10    12   ar
    12    12    13   ar
    13     7    13   ar
    14     2    14    1
    15    14    15   ar
    16    15    16   ar
    17    16    17    2
    18    16    18   ar
    19    18    19   ar
    20    19    20   ar
    21    20    21   ar
    22    21    22   ar
    23    22    23   ar
    24    23    24   ar
    25    14    24   ar
    26    19    24   ar
    27     4    25    1
    28     4    26    1
    29     5    27    1
    30     5    28    1
    31    18    29    1
    32     8    30    1
    33     9    31    1
    34    12    32    1
    35    13    33    1
    36    15    34    1
    37    20    35    1
    38    21    36    1
    39    22    37    1
    40    23    38    1
@<TRIPOS>MOLECULE
mol27_1_28
 38 40 0 0 0
SMALL
USER_CHARGES
****
VDW energy = -5.20
@<TRIPOS>ATOM
   1 O1       -6.6029     8.5284    -2.0234  O.2     1  <O>11      -0.2449
   2 C1       -6.3562     8.4196    -3.2153  C.2     1  <O>11       0.3401
   3 O2       -7.2140     8.9270    -4.1340  O.3     1  <O>11      -0.4577
   4 C2       -8.3130     9.5300    -3.4720  C.3     1  <O>11       0.1267
   5 C3       -8.8976     8.5508    -2.4663  C.3     1  <O>11       0.1236
   6 O3       -9.9975     9.1534    -1.8045  O.3     1  <O>11      -0.4886
   7 C4      -10.5268     8.2674    -0.8940  C.ar    1  <O>11       0.1208
   8 C5       -9.7346     7.7713     0.1553  C.ar    1  <O>11      -0.0172
   9 C6      -10.2696     6.8614     1.0738  C.ar    1  <O>11      -0.0230
  10 C7      -11.5971     6.4417     0.9557  C.ar    1  <O>11       0.1236
  11 F1      -12.1267     5.5485     1.8506  F       1  <O>11      -0.2055
  12 C8      -12.3876     6.9403    -0.0857  C.ar    1  <O>11      -0.0230
  13 C9      -11.8641     7.8507    -1.0059  C.ar    1  <O>11      -0.0172
  14 C10      -5.1480     7.7490    -3.6460  C.ar    1  <O>11       0.0732
  15 C11      -3.9604     7.9444    -2.9523  C.ar    1  <O>11       0.0173
  16 C12      -2.8260     7.2804    -3.3885  C.ar    1  <O>11       0.2500
  17 O4       -1.6325     7.4874    -2.6698  O.2     1  <O>11      -0.2679
  18 N1       -2.8340     6.4575    -4.4624  N.ar    1  <O>11      -0.3221
  19 C13      -3.9754     6.2761    -5.1545  C.ar    1  <O>11       0.0500
  20 C14      -4.0196     5.4458    -6.2796  C.ar    1  <O>11      -0.0377
  21 C15      -5.2151     5.1959    -6.9658  C.ar    1  <O>11      -0.0598
  22 C16      -6.3904     5.8190    -6.5658  C.ar    1  <O>11      -0.0611
  23 C17      -6.3695     6.6783    -5.4705  C.ar    1  <O>11      -0.0518
  24 C18      -5.1763     6.9040    -4.7619  C.ar    1  <O>11       0.0125
  25 H1       -9.0757     9.7984    -4.2032  H       1  <O>11       0.0732
  26 H2       -7.9767    10.4271    -2.9522  H       1  <O>11       0.0732
  27 H3       -8.1352     8.2833    -1.7353  H       1  <O>11       0.0731
  28 H4       -9.2339     7.6537    -2.9860  H       1  <O>11       0.0731
  29 H5       -2.0025     5.9699    -4.7635  H       1  <O>11       0.1689
  30 H6       -8.7541     8.0794     0.2489  H       1  <O>11       0.0655
  31 H7       -9.6819     6.4993     1.8409  H       1  <O>11       0.0647
  32 H8      -13.3683     6.6318    -0.1747  H       1  <O>11       0.0647
  33 H9      -12.4579     8.2167    -1.7665  H       1  <O>11       0.0655
  34 H10      -3.9243     8.5691    -2.1318  H       1  <O>11       0.0680
  35 H11      -3.1479     5.0056    -6.6131  H       1  <O>11       0.0638
  36 H12      -5.2226     4.5482    -7.7693  H       1  <O>11       0.0618
  37 H13      -7.2709     5.6465    -7.0757  H       1  <O>11       0.0618
  38 H14      -7.2370     7.1536    -5.1764  H       1  <O>11       0.0624
@<TRIPOS>BOND
     1     1     2    2
     2     2     3    1
     3     3     4    1
     4     4     5    1
     5     5     6    1
     6     6     7    1
     7     7     8   ar
     8     8     9   ar
     9     9    10   ar
    10    10    11    1
    11    10    12   ar
    12    12    13   ar
    13     7    13   ar
    14     2    14    1
    15    14    15   ar
    16    15    16   ar
    17    16    17    2
    18    16    18   ar
    19    18    19   ar
    20    19    20   ar
    21    20    21   ar
    22    21    22   ar
    23    22    23   ar
    24    23    24   ar
    25    14    24   ar
    26    19    24   ar
    27     4    25    1
    28     4    26    1
    29     5    27    1
    30     5    28    1
    31    18    29    1
    32     8    30    1
    33     9    31    1
    34    12    32    1
    35    13    33    1
    36    15    34    1
    37    20    35    1
    38    21    36    1
    39    22    37    1
    40    23    38    1
@<TRIPOS>MOLECULE
mol27_1_29
 38 40 0 0 0
SMALL
USER_CHARGES
****
VDW energy = -4.93
@<TRIPOS>ATOM
   1 O1       -6.6029     8.5284    -2.0234  O.2     1  <O>11      -0.2449
   2 C1       -6.3562     8.4196    -3.2153  C.2     1  <O>11       0.3401
   3 O2       -7.2140     8.9270    -4.1340  O.3     1  <O>11      -0.4577
   4 C2       -8.3130     9.5300    -3.4720  C.3     1  <O>11       0.1267
   5 C3       -8.8976     8.5508    -2.4663  C.3     1  <O>11       0.1236
   6 O3       -9.9975     9.1534    -1.8045  O.3     1  <O>11      -0.4886
   7 C4      -10.5268     8.2674    -0.8940  C.ar    1  <O>11       0.1208
   8 C5       -9.7346     7.7713     0.1553  C.ar    1  <O>11      -0.0172
   9 C6      -10.2696     6.8614     1.0738  C.ar    1  <O>11      -0.0230
  10 C7      -11.5971     6.4417     0.9557  C.ar    1  <O>11       0.1236
  11 F1      -12.1267     5.5485     1.8506  F       1  <O>11      -0.2055
  12 C8      -12.3876     6.9403    -0.0857  C.ar    1  <O>11      -0.0230
  13 C9      -11.8641     7.8507    -1.0059  C.ar    1  <O>11      -0.0172
  14 C10      -5.1480     7.7490    -3.6460  C.ar    1  <O>11       0.0732
  15 C11      -4.7153     6.6058    -2.9859  C.ar    1  <O>11       0.0173
  16 C12      -3.5592     5.9864    -3.4304  C.ar    1  <O>11       0.2500
  17 O4       -3.1388     4.8261    -2.7516  O.2     1  <O>11      -0.2679
  18 N1       -2.8394     6.4561    -4.4754  N.ar    1  <O>11      -0.3221
  19 C13      -3.2387     7.5750    -5.1104  C.ar    1  <O>11       0.0500
  20 C14      -2.5124     8.1003    -6.1844  C.ar    1  <O>11      -0.0377
  21 C15      -2.9547     9.2233    -6.8956  C.ar    1  <O>11      -0.0598
  22 C16      -4.1168     9.8785    -6.5087  C.ar    1  <O>11      -0.0611
  23 C17      -4.8418     9.3990    -5.4211  C.ar    1  <O>11      -0.0518
  24 C18      -4.4154     8.2528    -4.7275  C.ar    1  <O>11       0.0125
  25 H1       -9.0757     9.7984    -4.2032  H       1  <O>11       0.0732
  26 H2       -7.9767    10.4271    -2.9522  H       1  <O>11       0.0732
  27 H3       -8.1352     8.2833    -1.7353  H       1  <O>11       0.0731
  28 H4       -9.2339     7.6537    -2.9860  H       1  <O>11       0.0731
  29 H5       -2.0042     5.9885    -4.7973  H       1  <O>11       0.1689
  30 H6       -8.7541     8.0794     0.2489  H       1  <O>11       0.0655
  31 H7       -9.6819     6.4993     1.8409  H       1  <O>11       0.0647
  32 H8      -13.3683     6.6318    -0.1747  H       1  <O>11       0.0647
  33 H9      -12.4579     8.2167    -1.7665  H       1  <O>11       0.0655
  34 H10      -5.2426     6.2274    -2.1836  H       1  <O>11       0.0680
  35 H11      -1.6267     7.6482    -6.4604  H       1  <O>11       0.0638
  36 H12      -2.4166     9.5641    -7.7077  H       1  <O>11       0.0618
  37 H13      -4.4399    10.7131    -7.0228  H       1  <O>11       0.0618
  38 H14      -5.6992     9.8890    -5.1215  H       1  <O>11       0.0624
@<TRIPOS>BOND
     1     1     2    2
     2     2     3    1
     3     3     4    1
     4     4     5    1
     5     5     6    1
     6     6     7    1
     7     7     8   ar
     8     8     9   ar
     9     9    10   ar
    10    10    11    1
    11    10    12   ar
    12    12    13   ar
    13     7    13   ar
    14     2    14    1
    15    14    15   ar
    16    15    16   ar
    17    16    17    2
    18    16    18   ar
    19    18    19   ar
    20    19    20   ar
    21    20    21   ar
    22    21    22   ar
    23    22    23   ar
    24    23    24   ar
    25    14    24   ar
    26    19    24   ar
    27     4    25    1
    28     4    26    1
    29     5    27    1
    30     5    28    1
    31    18    29    1
    32     8    30    1
    33     9    31    1
    34    12    32    1
    35    13    33    1
    36    15    34    1
    37    20    35    1
    38    21    36    1
    39    22    37    1
    40    23    38    1
@<TRIPOS>MOLECULE
mol27_1_30
 38 40 0 0 0
SMALL
USER_CHARGES
****
VDW energy = -1.32
@<TRIPOS>ATOM
   1 O1       -6.6029     8.5284    -2.0234  O.2     1  <O>11      -0.2449
   2 C1       -6.3562     8.4196    -3.2153  C.2     1  <O>11       0.3401
   3 O2       -7.2140     8.9270    -4.1340  O.3     1  <O>11      -0.4577
   4 C2       -8.3130     9.5300    -3.4720  C.3     1  <O>11       0.1267
   5 C3       -7.7999    10.4968    -2.4164  C.3     1  <O>11       0.1236
   6 O3       -8.8990    11.0994    -1.7535  O.3     1  <O>11      -0.4886
   7 C4       -8.4349    11.9747    -0.7981  C.ar    1  <O>11       0.1208
   8 C5       -9.3380    12.7004    -0.0029  C.ar    1  <O>11      -0.0172
   9 C6       -8.8657    13.5988     0.9602  C.ar    1  <O>11      -0.0230
  10 C7       -7.4918    13.7787     1.1400  C.ar    1  <O>11       0.1236
  11 F1       -7.0225    14.6593     2.0800  F       1  <O>11      -0.2055
  12 C8       -6.5926    13.0516     0.3522  C.ar    1  <O>11      -0.0230
  13 C9       -7.0535    12.1506    -0.6097  C.ar    1  <O>11      -0.0172
  14 C10      -5.1480     7.7490    -3.6460  C.ar    1  <O>11       0.0732
  15 C11      -3.9775     8.4750    -3.8263  C.ar    1  <O>11       0.0173
  16 C12      -2.8389     7.7988    -4.2317  C.ar    1  <O>11       0.2500
  17 O4       -1.6607     8.5509    -4.4048  O.2     1  <O>11      -0.2679
  18 N1       -2.8291     6.4654    -4.4610  N.ar    1  <O>11      -0.3221
  19 C13      -3.9632     5.7546    -4.3084  C.ar    1  <O>11       0.0500
  20 C14      -3.9966     4.3774    -4.5515  C.ar    1  <O>11      -0.0377
  21 C15      -5.1521     3.6167    -4.3303  C.ar    1  <O>11      -0.0598
  22 C16      -6.3216     4.2350    -3.9067  C.ar    1  <O>11      -0.0611
  23 C17      -6.3277     5.6104    -3.6905  C.ar    1  <O>11      -0.0518
  24 C18      -5.1593     6.3689    -3.8813  C.ar    1  <O>11       0.0125
  25 H1       -8.9182     8.7589    -2.9949  H       1  <O>11       0.0732
  26 H2       -8.9208    10.0721    -4.1963  H       1  <O>11       0.0732
  27 H3       -7.1956    11.2676    -2.8938  H       1  <O>11       0.0731
  28 H4       -7.1921     9.9546    -1.6921  H       1  <O>11       0.0731
  29 H5       -1.9893     5.9819    -4.7451  H       1  <O>11       0.1689
  30 H6      -10.3539    12.5701    -0.1297  H       1  <O>11       0.0655
  31 H7       -9.5343    14.1302     1.5395  H       1  <O>11       0.0647
  32 H8       -5.5774    13.1828     0.4835  H       1  <O>11       0.0647
  33 H9       -6.3813    11.6150    -1.1810  H       1  <O>11       0.0655
  34 H10      -3.9568     9.4936    -3.6622  H       1  <O>11       0.0680
  35 H11      -3.1470     3.9090    -4.9033  H       1  <O>11       0.0638
  36 H12      -5.1343     2.5961    -4.4821  H       1  <O>11       0.0618
  37 H13      -7.1781     3.6800    -3.7537  H       1  <O>11       0.0618
  38 H14      -7.1969     6.0770    -3.3877  H       1  <O>11       0.0624
@<TRIPOS>BOND
     1     1     2    2
     2     2     3    1
     3     3     4    1
     4     4     5    1
     5     5     6    1
     6     6     7    1
     7     7     8   ar
     8     8     9   ar
     9     9    10   ar
    10    10    11    1
    11    10    12   ar
    12    12    13   ar
    13     7    13   ar
    14     2    14    1
    15    14    15   ar
    16    15    16   ar
    17    16    17    2
    18    16    18   ar
    19    18    19   ar
    20    19    20   ar
    21    20    21   ar
    22    21    22   ar
    23    22    23   ar
    24    23    24   ar
    25    14    24   ar
    26    19    24   ar
    27     4    25    1
    28     4    26    1
    29     5    27    1
    30     5    28    1
    31    18    29    1
    32     8    30    1
    33     9    31    1
    34    12    32    1
    35    13    33    1
    36    15    34    1
    37    20    35    1
    38    21    36    1
    39    22    37    1
    40    23    38    1
