@<TRIPOS>MOLECULE
mol26_1_1
 32 33 0 0 0
SMALL
USER_CHARGES
****
VDW energy = -163.73
@<TRIPOS>ATOM
   1 N1        3.6845    -8.8982    -5.7123  N.3     1  <O>11      -0.2035
   2 S1        3.1567    -9.7375    -4.3909  S.O2    1  <O>11       0.0578
   3 O1        4.0563   -11.1232    -4.2196  O.2     1  <O>11      -0.1532
   4 O2        3.3259    -8.7960    -3.0330  O.2     1  <O>11      -0.1532
   5 C1        1.4620   -10.1610    -4.6040  C.ar    1  <O>11       0.1272
   6 C2        0.8015    -9.7717    -5.7723  C.ar    1  <O>11      -0.0335
   7 C3       -0.5488   -10.0948    -5.9425  C.ar    1  <O>11      -0.0598
   8 C4       -1.2334   -10.8048    -4.9529  C.ar    1  <O>11      -0.0599
   9 C5       -0.5569   -11.1926    -3.7914  C.ar    1  <O>11      -0.0374
  10 C6        0.7906   -10.8773    -3.6123  C.ar    1  <O>11       0.0743
  11 N2        1.4899   -11.2836    -2.4193  N.pl3   1  <O>11      -0.2142
  12 S2        0.6963   -12.1320    -1.2452  S.O2    1  <O>11       0.0781
  13 O3        0.1272   -13.5561    -1.8798  O.2     1  <O>11      -0.1498
  14 O4       -0.5775   -11.2306    -0.6753  O.2     1  <O>11      -0.1498
  15 C7        1.8111   -12.4833     0.0848  C.ar    1  <O>11       0.1843
  16 C8        2.9750   -13.2364    -0.1461  C.ar    1  <O>11       0.1907
  17 F1        3.2520   -13.6921    -1.4093  F       1  <O>11      -0.2002
  18 C9        3.8485   -13.5251     0.9094  C.ar    1  <O>11       0.1983
  19 F2        4.9766   -14.2654     0.6754  F       1  <O>11      -0.1993
  20 C10       3.5723   -13.0590     2.1980  C.ar    1  <O>11       0.1992
  21 F3        4.4252   -13.3388     3.2358  F       1  <O>11      -0.1993
  22 C11       2.4168   -12.3036     2.4262  C.ar    1  <O>11       0.1983
  23 F4        2.1520   -11.8500     3.6911  F       1  <O>11      -0.1993
  24 C12       1.5392   -12.0101     1.3797  C.ar    1  <O>11       0.1907
  25 F5        0.4125   -11.2631     1.6010  F       1  <O>11      -0.2002
  26 H1        3.1320    -8.0472    -5.8175  H       1  <O>11       0.1442
  27 H2        3.5805    -9.4763    -6.5461  H       1  <O>11       0.1442
  28 H3        2.4751   -11.0468    -2.3004  H       1  <O>11       0.1737
  29 H4        1.3067    -9.2491    -6.5049  H       1  <O>11       0.0638
  30 H5       -1.0414    -9.8075    -6.8027  H       1  <O>11       0.0618
  31 H6       -2.2302   -11.0411    -5.0778  H       1  <O>11       0.0618
  32 H7       -1.0599   -11.7176    -3.0591  H       1  <O>11       0.0637
@<TRIPOS>BOND
     1     1     2    1
     2     2     3    2
     3     2     4    2
     4     2     5    1
     5     5     6   ar
     6     6     7   ar
     7     7     8   ar
     8     8     9   ar
     9     9    10   ar
    10     5    10   ar
    11    10    11    1
    12    11    12    1
    13    12    13    2
    14    12    14    2
    15    12    15    1
    16    15    16   ar
    17    16    17    1
    18    16    18   ar
    19    18    19    1
    20    18    20   ar
    21    20    21    1
    22    20    22   ar
    23    22    23    1
    24    22    24   ar
    25    15    24   ar
    26    24    25    1
    27     1    26    1
    28     1    27    1
    29    11    28    1
    30     6    29    1
    31     7    30    1
    32     8    31    1
    33     9    32    1
@<TRIPOS>MOLECULE
mol26_1_2
 32 33 0 0 0
SMALL
USER_CHARGES
****
VDW energy = -163.69
@<TRIPOS>ATOM
   1 N1        3.6845    -8.8982    -5.7123  N.3     1  <O>11      -0.2035
   2 S1        3.1567    -9.7375    -4.3909  S.O2    1  <O>11       0.0578
   3 O1        4.0563   -11.1232    -4.2196  O.2     1  <O>11      -0.1532
   4 O2        3.3259    -8.7960    -3.0330  O.2     1  <O>11      -0.1532
   5 C1        1.4620   -10.1610    -4.6040  C.ar    1  <O>11       0.1272
   6 C2        0.8015    -9.7717    -5.7723  C.ar    1  <O>11      -0.0335
   7 C3       -0.5488   -10.0948    -5.9425  C.ar    1  <O>11      -0.0598
   8 C4       -1.2334   -10.8048    -4.9529  C.ar    1  <O>11      -0.0599
   9 C5       -0.5569   -11.1926    -3.7914  C.ar    1  <O>11      -0.0374
  10 C6        0.7906   -10.8773    -3.6123  C.ar    1  <O>11       0.0743
  11 N2        1.4899   -11.2836    -2.4193  N.pl3   1  <O>11      -0.2142
  12 S2        0.6963   -12.1320    -1.2452  S.O2    1  <O>11       0.0781
  13 O3        0.1272   -13.5561    -1.8798  O.2     1  <O>11      -0.1498
  14 O4       -0.5775   -11.2306    -0.6753  O.2     1  <O>11      -0.1498
  15 C7        1.8111   -12.4833     0.0848  C.ar    1  <O>11       0.1843
  16 C8        2.4288   -11.4346     0.7875  C.ar    1  <O>11       0.1907
  17 F1        2.1585   -10.1342     0.4468  F       1  <O>11      -0.2002
  18 C9        3.3209   -11.7141     1.8299  C.ar    1  <O>11       0.1983
  19 F2        3.9228   -10.6852     2.5042  F       1  <O>11      -0.1993
  20 C10       3.5962   -13.0382     2.1835  C.ar    1  <O>11       0.1992
  21 F3        4.4693   -13.3176     3.2045  F       1  <O>11      -0.1993
  22 C11       2.9759   -14.0819     1.4880  C.ar    1  <O>11       0.1983
  23 F4        3.2500   -15.3770     1.8394  F       1  <O>11      -0.1993
  24 C12       2.0843   -13.8133     0.4466  C.ar    1  <O>11       0.1907
  25 F5        1.4700   -14.8347    -0.2286  F       1  <O>11      -0.2002
  26 H1        3.1320    -8.0472    -5.8175  H       1  <O>11       0.1442
  27 H2        3.5805    -9.4763    -6.5461  H       1  <O>11       0.1442
  28 H3        2.4751   -11.0468    -2.3004  H       1  <O>11       0.1737
  29 H4        1.3067    -9.2491    -6.5049  H       1  <O>11       0.0638
  30 H5       -1.0414    -9.8075    -6.8027  H       1  <O>11       0.0618
  31 H6       -2.2302   -11.0411    -5.0778  H       1  <O>11       0.0618
  32 H7       -1.0599   -11.7176    -3.0591  H       1  <O>11       0.0637
@<TRIPOS>BOND
     1     1     2    1
     2     2     3    2
     3     2     4    2
     4     2     5    1
     5     5     6   ar
     6     6     7   ar
     7     7     8   ar
     8     8     9   ar
     9     9    10   ar
    10     5    10   ar
    11    10    11    1
    12    11    12    1
    13    12    13    2
    14    12    14    2
    15    12    15    1
    16    15    16   ar
    17    16    17    1
    18    16    18   ar
    19    18    19    1
    20    18    20   ar
    21    20    21    1
    22    20    22   ar
    23    22    23    1
    24    22    24   ar
    25    15    24   ar
    26    24    25    1
    27     1    26    1
    28     1    27    1
    29    11    28    1
    30     6    29    1
    31     7    30    1
    32     8    31    1
    33     9    32    1
@<TRIPOS>MOLECULE
mol26_1_3
 32 33 0 0 0
SMALL
USER_CHARGES
****
VDW energy = -163.64
@<TRIPOS>ATOM
   1 N1        3.6845    -8.8982    -5.7123  N.3     1  <O>11      -0.2035
   2 S1        3.1567    -9.7375    -4.3909  S.O2    1  <O>11       0.0578
   3 O1        4.0563   -11.1232    -4.2196  O.2     1  <O>11      -0.1532
   4 O2        3.3259    -8.7960    -3.0330  O.2     1  <O>11      -0.1532
   5 C1        1.4620   -10.1610    -4.6040  C.ar    1  <O>11       0.1272
   6 C2        0.8015    -9.7717    -5.7723  C.ar    1  <O>11      -0.0335
   7 C3       -0.5488   -10.0948    -5.9425  C.ar    1  <O>11      -0.0598
   8 C4       -1.2334   -10.8048    -4.9529  C.ar    1  <O>11      -0.0599
   9 C5       -0.5569   -11.1926    -3.7914  C.ar    1  <O>11      -0.0374
  10 C6        0.7906   -10.8773    -3.6123  C.ar    1  <O>11       0.0743
  11 N2        1.4899   -11.2836    -2.4193  N.pl3   1  <O>11      -0.2142
  12 S2        0.6963   -12.1320    -1.2452  S.O2    1  <O>11       0.0781
  13 O3        0.1272   -13.5561    -1.8798  O.2     1  <O>11      -0.1498
  14 O4       -0.5775   -11.2306    -0.6753  O.2     1  <O>11      -0.1498
  15 C7        1.8111   -12.4833     0.0848  C.ar    1  <O>11       0.1843
  16 C8        2.8694   -11.6047     0.3733  C.ar    1  <O>11       0.1907
  17 F1        3.0322   -10.4661    -0.3732  F       1  <O>11      -0.2002
  18 C9        3.7585   -11.8909     1.4165  C.ar    1  <O>11       0.1983
  19 F2        4.7905   -11.0318     1.6854  F       1  <O>11      -0.1993
  20 C10       3.5939   -13.0483     2.1828  C.ar    1  <O>11       0.1992
  21 F3        4.4620   -13.3332     3.2065  F       1  <O>11      -0.1993
  22 C11       2.5361   -13.9194     1.8995  C.ar    1  <O>11       0.1983
  23 F4        2.3804   -15.0518     2.6541  F       1  <O>11      -0.1993
  24 C12       1.6437   -13.6427     0.8610  C.ar    1  <O>11       0.1907
  25 F5        0.6029   -14.4906     0.5891  F       1  <O>11      -0.2002
  26 H1        3.1320    -8.0472    -5.8175  H       1  <O>11       0.1442
  27 H2        3.5805    -9.4763    -6.5461  H       1  <O>11       0.1442
  28 H3        2.4751   -11.0468    -2.3004  H       1  <O>11       0.1737
  29 H4        1.3067    -9.2491    -6.5049  H       1  <O>11       0.0638
  30 H5       -1.0414    -9.8075    -6.8027  H       1  <O>11       0.0618
  31 H6       -2.2302   -11.0411    -5.0778  H       1  <O>11       0.0618
  32 H7       -1.0599   -11.7176    -3.0591  H       1  <O>11       0.0637
@<TRIPOS>BOND
     1     1     2    1
     2     2     3    2
     3     2     4    2
     4     2     5    1
     5     5     6   ar
     6     6     7   ar
     7     7     8   ar
     8     8     9   ar
     9     9    10   ar
    10     5    10   ar
    11    10    11    1
    12    11    12    1
    13    12    13    2
    14    12    14    2
    15    12    15    1
    16    15    16   ar
    17    16    17    1
    18    16    18   ar
    19    18    19    1
    20    18    20   ar
    21    20    21    1
    22    20    22   ar
    23    22    23    1
    24    22    24   ar
    25    15    24   ar
    26    24    25    1
    27     1    26    1
    28     1    27    1
    29    11    28    1
    30     6    29    1
    31     7    30    1
    32     8    31    1
    33     9    32    1
@<TRIPOS>MOLECULE
mol26_1_4
 32 33 0 0 0
SMALL
USER_CHARGES
****
VDW energy = -160.74
@<TRIPOS>ATOM
   1 N1        3.6845    -8.8982    -5.7123  N.3     1  <O>11      -0.2035
   2 S1        3.1567    -9.7375    -4.3909  S.O2    1  <O>11       0.0578
   3 O1        4.0563   -11.1232    -4.2196  O.2     1  <O>11      -0.1532
   4 O2        3.3259    -8.7960    -3.0330  O.2     1  <O>11      -0.1532
   5 C1        1.4620   -10.1610    -4.6040  C.ar    1  <O>11       0.1272
   6 C2        0.6376    -9.3233    -5.3599  C.ar    1  <O>11      -0.0335
   7 C3       -0.7132    -9.6480    -5.5232  C.ar    1  <O>11      -0.0598
   8 C4       -1.2356   -10.8038    -4.9371  C.ar    1  <O>11      -0.0599
   9 C5       -0.3964   -11.6354    -4.1881  C.ar    1  <O>11      -0.0374
  10 C6        0.9531   -11.3221    -4.0207  C.ar    1  <O>11       0.0743
  11 N2        1.8198   -12.1828    -3.2556  N.pl3   1  <O>11      -0.2142
  12 S2        1.2186   -13.5576    -2.5652  S.O2    1  <O>11       0.0781
  13 O3        0.6107   -14.5510    -3.7477  O.2     1  <O>11      -0.1498
  14 O4        0.0080   -13.1588    -1.4995  O.2     1  <O>11      -0.1498
  15 C7        2.5136   -14.3976    -1.6980  C.ar    1  <O>11       0.1843
  16 C8        3.1900   -13.7603    -0.6437  C.ar    1  <O>11       0.1907
  17 F1        2.8376   -12.4861    -0.2799  F       1  <O>11      -0.2002
  18 C9        4.2233   -14.4207     0.0320  C.ar    1  <O>11       0.1983
  19 F2        4.8807   -13.7886     1.0537  F       1  <O>11      -0.1993
  20 C10       4.5831   -15.7213    -0.3326  C.ar    1  <O>11       0.1992
  21 F3        5.5948   -16.3731     0.3266  F       1  <O>11      -0.1993
  22 C11       3.9050   -16.3579    -1.3780  C.ar    1  <O>11       0.1983
  23 F4        4.2625   -17.6323    -1.7304  F       1  <O>11      -0.1993
  24 C12       2.8727   -15.7076    -2.0582  C.ar    1  <O>11       0.1907
  25 F5        2.2026   -16.3338    -3.0757  F       1  <O>11      -0.2002
  26 H1        3.1320    -8.0472    -5.8175  H       1  <O>11       0.1442
  27 H2        3.5805    -9.4763    -6.5461  H       1  <O>11       0.1442
  28 H3        2.8046   -11.9425    -3.1405  H       1  <O>11       0.1737
  29 H4        1.0229    -8.4706    -5.7950  H       1  <O>11       0.0638
  30 H5       -1.3264    -9.0313    -6.0787  H       1  <O>11       0.0618
  31 H6       -2.2327   -11.0420    -5.0559  H       1  <O>11       0.0618
  32 H7       -0.7795   -12.4900    -3.7546  H       1  <O>11       0.0637
@<TRIPOS>BOND
     1     1     2    1
     2     2     3    2
     3     2     4    2
     4     2     5    1
     5     5     6   ar
     6     6     7   ar
     7     7     8   ar
     8     8     9   ar
     9     9    10   ar
    10     5    10   ar
    11    10    11    1
    12    11    12    1
    13    12    13    2
    14    12    14    2
    15    12    15    1
    16    15    16   ar
    17    16    17    1
    18    16    18   ar
    19    18    19    1
    20    18    20   ar
    21    20    21    1
    22    20    22   ar
    23    22    23    1
    24    22    24   ar
    25    15    24   ar
    26    24    25    1
    27     1    26    1
    28     1    27    1
    29    11    28    1
    30     6    29    1
    31     7    30    1
    32     8    31    1
    33     9    32    1
@<TRIPOS>MOLECULE
mol26_1_5
 32 33 0 0 0
SMALL
USER_CHARGES
****
VDW energy = -160.62
@<TRIPOS>ATOM
   1 N1        3.6845    -8.8982    -5.7123  N.3     1  <O>11      -0.2035
   2 S1        3.1567    -9.7375    -4.3909  S.O2    1  <O>11       0.0578
   3 O1        4.0563   -11.1232    -4.2196  O.2     1  <O>11      -0.1532
   4 O2        3.3259    -8.7960    -3.0330  O.2     1  <O>11      -0.1532
   5 C1        1.4620   -10.1610    -4.6040  C.ar    1  <O>11       0.1272
   6 C2        0.6376    -9.3233    -5.3599  C.ar    1  <O>11      -0.0335
   7 C3       -0.7132    -9.6480    -5.5232  C.ar    1  <O>11      -0.0598
   8 C4       -1.2356   -10.8038    -4.9371  C.ar    1  <O>11      -0.0599
   9 C5       -0.3964   -11.6354    -4.1881  C.ar    1  <O>11      -0.0374
  10 C6        0.9531   -11.3221    -4.0207  C.ar    1  <O>11       0.0743
  11 N2        1.8198   -12.1828    -3.2556  N.pl3   1  <O>11      -0.2142
  12 S2        1.2186   -13.5576    -2.5652  S.O2    1  <O>11       0.0781
  13 O3        0.6107   -14.5510    -3.7477  O.2     1  <O>11      -0.1498
  14 O4        0.0080   -13.1588    -1.4995  O.2     1  <O>11      -0.1498
  15 C7        2.5136   -14.3976    -1.6980  C.ar    1  <O>11       0.1843
  16 C8        3.5750   -13.6708    -1.1319  C.ar    1  <O>11       0.1907
  17 F1        3.6011   -12.3045    -1.2442  F       1  <O>11      -0.2002
  18 C9        4.6057   -14.3376    -0.4585  C.ar    1  <O>11       0.1983
  19 F2        5.6389   -13.6208     0.0839  F       1  <O>11      -0.1993
  20 C10       4.5810   -15.7301    -0.3379  C.ar    1  <O>11       0.1992
  21 F3        5.5883   -16.3884     0.3214  F       1  <O>11      -0.1993
  22 C11       3.5207   -16.4528    -0.8959  C.ar    1  <O>11       0.1983
  23 F4        3.5025   -17.8169    -0.7743  F       1  <O>11      -0.1993
  24 C12       2.4877   -15.7967    -1.5695  C.ar    1  <O>11       0.1907
  25 F5        1.4449   -16.5031    -2.1082  F       1  <O>11      -0.2002
  26 H1        3.1320    -8.0472    -5.8175  H       1  <O>11       0.1442
  27 H2        3.5805    -9.4763    -6.5461  H       1  <O>11       0.1442
  28 H3        2.8046   -11.9425    -3.1405  H       1  <O>11       0.1737
  29 H4        1.0229    -8.4706    -5.7950  H       1  <O>11       0.0638
  30 H5       -1.3264    -9.0313    -6.0787  H       1  <O>11       0.0618
  31 H6       -2.2327   -11.0420    -5.0559  H       1  <O>11       0.0618
  32 H7       -0.7795   -12.4900    -3.7546  H       1  <O>11       0.0637
@<TRIPOS>BOND
     1     1     2    1
     2     2     3    2
     3     2     4    2
     4     2     5    1
     5     5     6   ar
     6     6     7   ar
     7     7     8   ar
     8     8     9   ar
     9     9    10   ar
    10     5    10   ar
    11    10    11    1
    12    11    12    1
    13    12    13    2
    14    12    14    2
    15    12    15    1
    16    15    16   ar
    17    16    17    1
    18    16    18   ar
    19    18    19    1
    20    18    20   ar
    21    20    21    1
    22    20    22   ar
    23    22    23    1
    24    22    24   ar
    25    15    24   ar
    26    24    25    1
    27     1    26    1
    28     1    27    1
    29    11    28    1
    30     6    29    1
    31     7    30    1
    32     8    31    1
    33     9    32    1
@<TRIPOS>MOLECULE
mol26_1_6
 32 33 0 0 0
SMALL
USER_CHARGES
****
VDW energy = -160.51
@<TRIPOS>ATOM
   1 N1        3.6845    -8.8982    -5.7123  N.3     1  <O>11      -0.2035
   2 S1        3.1567    -9.7375    -4.3909  S.O2    1  <O>11       0.0578
   3 O1        4.0563   -11.1232    -4.2196  O.2     1  <O>11      -0.1532
   4 O2        3.3259    -8.7960    -3.0330  O.2     1  <O>11      -0.1532
   5 C1        1.4620   -10.1610    -4.6040  C.ar    1  <O>11       0.1272
   6 C2        0.6376    -9.3233    -5.3599  C.ar    1  <O>11      -0.0335
   7 C3       -0.7132    -9.6480    -5.5232  C.ar    1  <O>11      -0.0598
   8 C4       -1.2356   -10.8038    -4.9371  C.ar    1  <O>11      -0.0599
   9 C5       -0.3964   -11.6354    -4.1881  C.ar    1  <O>11      -0.0374
  10 C6        0.9531   -11.3221    -4.0207  C.ar    1  <O>11       0.0743
  11 N2        1.8198   -12.1828    -3.2556  N.pl3   1  <O>11      -0.2142
  12 S2        1.2186   -13.5576    -2.5652  S.O2    1  <O>11       0.0781
  13 O3        0.6107   -14.5510    -3.7477  O.2     1  <O>11      -0.1498
  14 O4        0.0080   -13.1588    -1.4995  O.2     1  <O>11      -0.1498
  15 C7        2.5136   -14.3976    -1.6980  C.ar    1  <O>11       0.1843
  16 C8        3.6571   -14.8388    -2.3859  C.ar    1  <O>11       0.1907
  17 F1        3.7731   -14.6083    -3.7325  F       1  <O>11      -0.2002
  18 C9        4.6741   -15.5152    -1.7013  C.ar    1  <O>11       0.1983
  19 F2        5.7813   -15.9469    -2.3819  F       1  <O>11      -0.1993
  20 C10       4.5621   -15.7487    -0.3276  C.ar    1  <O>11       0.1992
  21 F3        5.5560   -16.4107     0.3481  F       1  <O>11      -0.1993
  22 C11       3.4265   -15.3034     0.3581  C.ar    1  <O>11       0.1983
  23 F4        3.3228   -15.5354     1.7040  F       1  <O>11      -0.1993
  24 C12       2.4065   -14.6275    -0.3158  C.ar    1  <O>11       0.1907
  25 F5        1.2988   -14.1836     0.3568  F       1  <O>11      -0.2002
  26 H1        3.1320    -8.0472    -5.8175  H       1  <O>11       0.1442
  27 H2        3.5805    -9.4763    -6.5461  H       1  <O>11       0.1442
  28 H3        2.8046   -11.9425    -3.1405  H       1  <O>11       0.1737
  29 H4        1.0229    -8.4706    -5.7950  H       1  <O>11       0.0638
  30 H5       -1.3264    -9.0313    -6.0787  H       1  <O>11       0.0618
  31 H6       -2.2327   -11.0420    -5.0559  H       1  <O>11       0.0618
  32 H7       -0.7795   -12.4900    -3.7546  H       1  <O>11       0.0637
@<TRIPOS>BOND
     1     1     2    1
     2     2     3    2
     3     2     4    2
     4     2     5    1
     5     5     6   ar
     6     6     7   ar
     7     7     8   ar
     8     8     9   ar
     9     9    10   ar
    10     5    10   ar
    11    10    11    1
    12    11    12    1
    13    12    13    2
    14    12    14    2
    15    12    15    1
    16    15    16   ar
    17    16    17    1
    18    16    18   ar
    19    18    19    1
    20    18    20   ar
    21    20    21    1
    22    20    22   ar
    23    22    23    1
    24    22    24   ar
    25    15    24   ar
    26    24    25    1
    27     1    26    1
    28     1    27    1
    29    11    28    1
    30     6    29    1
    31     7    30    1
    32     8    31    1
    33     9    32    1
@<TRIPOS>MOLECULE
mol26_1_7
 32 33 0 0 0
SMALL
USER_CHARGES
****
VDW energy = -160.47
@<TRIPOS>ATOM
   1 N1        3.6845    -8.8982    -5.7123  N.3     1  <O>11      -0.2035
   2 S1        3.1567    -9.7375    -4.3909  S.O2    1  <O>11       0.0578
   3 O1        4.0563   -11.1232    -4.2196  O.2     1  <O>11      -0.1532
   4 O2        3.3259    -8.7960    -3.0330  O.2     1  <O>11      -0.1532
   5 C1        1.4620   -10.1610    -4.6040  C.ar    1  <O>11       0.1272
   6 C2        0.6376    -9.3233    -5.3599  C.ar    1  <O>11      -0.0335
   7 C3       -0.7132    -9.6480    -5.5232  C.ar    1  <O>11      -0.0598
   8 C4       -1.2356   -10.8038    -4.9371  C.ar    1  <O>11      -0.0599
   9 C5       -0.3964   -11.6354    -4.1881  C.ar    1  <O>11      -0.0374
  10 C6        0.9531   -11.3221    -4.0207  C.ar    1  <O>11       0.0743
  11 N2        1.8198   -12.1828    -3.2556  N.pl3   1  <O>11      -0.2142
  12 S2        1.2186   -13.5576    -2.5652  S.O2    1  <O>11       0.0781
  13 O3        0.6107   -14.5510    -3.7477  O.2     1  <O>11      -0.1498
  14 O4        0.0080   -13.1588    -1.4995  O.2     1  <O>11      -0.1498
  15 C7        2.5136   -14.3976    -1.6980  C.ar    1  <O>11       0.1843
  16 C8        2.4891   -15.7969    -1.5698  C.ar    1  <O>11       0.1907
  17 F1        1.4623   -16.5141    -2.1276  F       1  <O>11      -0.2002
  18 C9        3.5067   -16.4586    -0.8717  C.ar    1  <O>11       0.1983
  19 F2        3.4703   -17.8218    -0.7467  F       1  <O>11      -0.1993
  20 C10       4.5578   -15.7319    -0.3050  C.ar    1  <O>11       0.1992
  21 F3        5.5577   -16.3754     0.3797  F       1  <O>11      -0.1993
  22 C11       4.5853   -14.3393    -0.4386  C.ar    1  <O>11       0.1983
  23 F4        5.6179   -13.6331     0.1191  F       1  <O>11      -0.1993
  24 C12       3.5749   -13.6700    -1.1332  C.ar    1  <O>11       0.1907
  25 F5        3.6062   -12.3075    -1.2719  F       1  <O>11      -0.2002
  26 H1        3.1320    -8.0472    -5.8175  H       1  <O>11       0.1442
  27 H2        3.5805    -9.4763    -6.5461  H       1  <O>11       0.1442
  28 H3        2.8046   -11.9425    -3.1405  H       1  <O>11       0.1737
  29 H4        1.0229    -8.4706    -5.7950  H       1  <O>11       0.0638
  30 H5       -1.3264    -9.0313    -6.0787  H       1  <O>11       0.0618
  31 H6       -2.2327   -11.0420    -5.0559  H       1  <O>11       0.0618
  32 H7       -0.7795   -12.4900    -3.7546  H       1  <O>11       0.0637
@<TRIPOS>BOND
     1     1     2    1
     2     2     3    2
     3     2     4    2
     4     2     5    1
     5     5     6   ar
     6     6     7   ar
     7     7     8   ar
     8     8     9   ar
     9     9    10   ar
    10     5    10   ar
    11    10    11    1
    12    11    12    1
    13    12    13    2
    14    12    14    2
    15    12    15    1
    16    15    16   ar
    17    16    17    1
    18    16    18   ar
    19    18    19    1
    20    18    20   ar
    21    20    21    1
    22    20    22   ar
    23    22    23    1
    24    22    24   ar
    25    15    24   ar
    26    24    25    1
    27     1    26    1
    28     1    27    1
    29    11    28    1
    30     6    29    1
    31     7    30    1
    32     8    31    1
    33     9    32    1
@<TRIPOS>MOLECULE
mol26_1_8
 32 33 0 0 0
SMALL
USER_CHARGES
****
VDW energy = -159.87
@<TRIPOS>ATOM
   1 N1        3.6845    -8.8982    -5.7123  N.3     1  <O>11      -0.2035
   2 S1        3.1567    -9.7375    -4.3909  S.O2    1  <O>11       0.0578
   3 O1        4.0563   -11.1232    -4.2196  O.2     1  <O>11      -0.1532
   4 O2        3.3259    -8.7960    -3.0330  O.2     1  <O>11      -0.1532
   5 C1        1.4620   -10.1610    -4.6040  C.ar    1  <O>11       0.1272
   6 C2        0.6376    -9.3233    -5.3599  C.ar    1  <O>11      -0.0335
   7 C3       -0.7132    -9.6480    -5.5232  C.ar    1  <O>11      -0.0598
   8 C4       -1.2356   -10.8038    -4.9371  C.ar    1  <O>11      -0.0599
   9 C5       -0.3964   -11.6354    -4.1881  C.ar    1  <O>11      -0.0374
  10 C6        0.9531   -11.3221    -4.0207  C.ar    1  <O>11       0.0743
  11 N2        1.8198   -12.1828    -3.2556  N.pl3   1  <O>11      -0.2142
  12 S2        1.9994   -11.9414    -1.6315  S.O2    1  <O>11       0.0781
  13 O3        0.5255   -12.0904    -0.8831  O.2     1  <O>11      -0.1498
  14 O4        2.6071   -10.4189    -1.3615  O.2     1  <O>11      -0.1498
  15 C7        3.1180   -13.1470    -0.9757  C.ar    1  <O>11       0.1843
  16 C8        3.4348   -13.1492     0.3936  C.ar    1  <O>11       0.1907
  17 F1        2.8667   -12.2190     1.2256  F       1  <O>11      -0.2002
  18 C9        4.3303   -14.0945     0.9082  C.ar    1  <O>11       0.1983
  19 F2        4.6376   -14.0841     2.2427  F       1  <O>11      -0.1993
  20 C10       4.9086   -15.0473     0.0645  C.ar    1  <O>11       0.1992
  21 F3        5.7865   -15.9761     0.5638  F       1  <O>11      -0.1993
  22 C11       4.5878   -15.0489    -1.2975  C.ar    1  <O>11       0.1983
  23 F4        5.1579   -15.9851    -2.1188  F       1  <O>11      -0.1993
  24 C12       3.6954   -14.1101    -1.8205  C.ar    1  <O>11       0.1907
  25 F5        3.3743   -14.1170    -3.1522  F       1  <O>11      -0.2002
  26 H1        3.1320    -8.0472    -5.8175  H       1  <O>11       0.1442
  27 H2        3.5805    -9.4763    -6.5461  H       1  <O>11       0.1442
  28 H3        2.3223   -12.9410    -3.7175  H       1  <O>11       0.1737
  29 H4        1.0229    -8.4706    -5.7950  H       1  <O>11       0.0638
  30 H5       -1.3264    -9.0313    -6.0787  H       1  <O>11       0.0618
  31 H6       -2.2327   -11.0420    -5.0559  H       1  <O>11       0.0618
  32 H7       -0.7795   -12.4900    -3.7546  H       1  <O>11       0.0637
@<TRIPOS>BOND
     1     1     2    1
     2     2     3    2
     3     2     4    2
     4     2     5    1
     5     5     6   ar
     6     6     7   ar
     7     7     8   ar
     8     8     9   ar
     9     9    10   ar
    10     5    10   ar
    11    10    11    1
    12    11    12    1
    13    12    13    2
    14    12    14    2
    15    12    15    1
    16    15    16   ar
    17    16    17    1
    18    16    18   ar
    19    18    19    1
    20    18    20   ar
    21    20    21    1
    22    20    22   ar
    23    22    23    1
    24    22    24   ar
    25    15    24   ar
    26    24    25    1
    27     1    26    1
    28     1    27    1
    29    11    28    1
    30     6    29    1
    31     7    30    1
    32     8    31    1
    33     9    32    1
@<TRIPOS>MOLECULE
mol26_1_9
 32 33 0 0 0
SMALL
USER_CHARGES
****
VDW energy = -159.10
@<TRIPOS>ATOM
   1 N1        3.6845    -8.8982    -5.7123  N.3     1  <O>11      -0.2035
   2 S1        3.1567    -9.7375    -4.3909  S.O2    1  <O>11       0.0578
   3 O1        4.0563   -11.1232    -4.2196  O.2     1  <O>11      -0.1532
   4 O2        3.3259    -8.7960    -3.0330  O.2     1  <O>11      -0.1532
   5 C1        1.4620   -10.1610    -4.6040  C.ar    1  <O>11       0.1272
   6 C2        0.6376    -9.3233    -5.3599  C.ar    1  <O>11      -0.0335
   7 C3       -0.7132    -9.6480    -5.5232  C.ar    1  <O>11      -0.0598
   8 C4       -1.2356   -10.8038    -4.9371  C.ar    1  <O>11      -0.0599
   9 C5       -0.3964   -11.6354    -4.1881  C.ar    1  <O>11      -0.0374
  10 C6        0.9531   -11.3221    -4.0207  C.ar    1  <O>11       0.0743
  11 N2        1.8198   -12.1828    -3.2556  N.pl3   1  <O>11      -0.2142
  12 S2        1.2186   -13.5576    -2.5652  S.O2    1  <O>11       0.0781
  13 O3        0.0082   -13.1596    -1.5016  O.2     1  <O>11      -0.1498
  14 O4        2.4339   -14.3467    -1.7524  O.2     1  <O>11      -0.1498
  15 C7        0.5697   -14.6166    -3.8270  C.ar    1  <O>11       0.1843
  16 C8        1.1221   -14.6003    -5.1193  C.ar    1  <O>11       0.1907
  17 F1        2.1744   -13.7672    -5.3997  F       1  <O>11      -0.2002
  18 C9        0.5988   -15.4282    -6.1199  C.ar    1  <O>11       0.1983
  19 F2        1.1398   -15.4002    -7.3776  F       1  <O>11      -0.1993
  20 C10      -0.4712   -16.2822    -5.8374  C.ar    1  <O>11       0.1992
  21 F3       -0.9875   -17.0959    -6.8142  F       1  <O>11      -0.1993
  22 C11      -1.0167   -16.3029    -4.5490  C.ar    1  <O>11       0.1983
  23 F4       -2.0650   -17.1419    -4.2788  F       1  <O>11      -0.1993
  24 C12      -0.5015   -15.4809    -3.5438  C.ar    1  <O>11       0.1907
  25 F5       -1.0294   -15.5074    -2.2801  F       1  <O>11      -0.2002
  26 H1        3.1320    -8.0472    -5.8175  H       1  <O>11       0.1442
  27 H2        3.5805    -9.4763    -6.5461  H       1  <O>11       0.1442
  28 H3        2.8046   -11.9425    -3.1405  H       1  <O>11       0.1737
  29 H4        1.0229    -8.4706    -5.7950  H       1  <O>11       0.0638
  30 H5       -1.3264    -9.0313    -6.0787  H       1  <O>11       0.0618
  31 H6       -2.2327   -11.0420    -5.0559  H       1  <O>11       0.0618
  32 H7       -0.7795   -12.4900    -3.7546  H       1  <O>11       0.0637
@<TRIPOS>BOND
     1     1     2    1
     2     2     3    2
     3     2     4    2
     4     2     5    1
     5     5     6   ar
     6     6     7   ar
     7     7     8   ar
     8     8     9   ar
     9     9    10   ar
    10     5    10   ar
    11    10    11    1
    12    11    12    1
    13    12    13    2
    14    12    14    2
    15    12    15    1
    16    15    16   ar
    17    16    17    1
    18    16    18   ar
    19    18    19    1
    20    18    20   ar
    21    20    21    1
    22    20    22   ar
    23    22    23    1
    24    22    24   ar
    25    15    24   ar
    26    24    25    1
    27     1    26    1
    28     1    27    1
    29    11    28    1
    30     6    29    1
    31     7    30    1
    32     8    31    1
    33     9    32    1
@<TRIPOS>MOLECULE
mol26_1_10
 32 33 0 0 0
SMALL
USER_CHARGES
****
VDW energy = -158.62
@<TRIPOS>ATOM
   1 N1        3.6845    -8.8982    -5.7123  N.3     1  <O>11      -0.2035
   2 S1        3.1567    -9.7375    -4.3909  S.O2    1  <O>11       0.0578
   3 O1        4.0563   -11.1232    -4.2196  O.2     1  <O>11      -0.1532
   4 O2        3.3259    -8.7960    -3.0330  O.2     1  <O>11      -0.1532
   5 C1        1.4620   -10.1610    -4.6040  C.ar    1  <O>11       0.1272
   6 C2        0.6376    -9.3233    -5.3599  C.ar    1  <O>11      -0.0335
   7 C3       -0.7132    -9.6480    -5.5232  C.ar    1  <O>11      -0.0598
   8 C4       -1.2356   -10.8038    -4.9371  C.ar    1  <O>11      -0.0599
   9 C5       -0.3964   -11.6354    -4.1881  C.ar    1  <O>11      -0.0374
  10 C6        0.9531   -11.3221    -4.0207  C.ar    1  <O>11       0.0743
  11 N2        1.8198   -12.1828    -3.2556  N.pl3   1  <O>11      -0.2142
  12 S2        1.9994   -11.9414    -1.6315  S.O2    1  <O>11       0.0781
  13 O3        0.5255   -12.0904    -0.8831  O.2     1  <O>11      -0.1498
  14 O4        2.6071   -10.4189    -1.3615  O.2     1  <O>11      -0.1498
  15 C7        3.1180   -13.1470    -0.9757  C.ar    1  <O>11       0.1843
  16 C8        4.4380   -13.2222    -1.4522  C.ar    1  <O>11       0.1907
  17 F1        4.8628   -12.3511    -2.4221  F       1  <O>11      -0.2002
  18 C9        5.3174   -14.1853    -0.9425  C.ar    1  <O>11       0.1983
  19 F2        6.5997   -14.2548    -1.4181  F       1  <O>11      -0.1993
  20 C10       4.8900   -15.0727     0.0495  C.ar    1  <O>11       0.1992
  21 F3        5.7479   -16.0180     0.5526  F       1  <O>11      -0.1993
  22 C11       3.5777   -14.9931     0.5283  C.ar    1  <O>11       0.1983
  23 F4        3.1652   -15.8655     1.5002  F       1  <O>11      -0.1993
  24 C12       2.6928   -14.0357     0.0264  C.ar    1  <O>11       0.1907
  25 F5        1.4107   -13.9517     0.5012  F       1  <O>11      -0.2002
  26 H1        3.1320    -8.0472    -5.8175  H       1  <O>11       0.1442
  27 H2        3.5805    -9.4763    -6.5461  H       1  <O>11       0.1442
  28 H3        2.3223   -12.9410    -3.7175  H       1  <O>11       0.1737
  29 H4        1.0229    -8.4706    -5.7950  H       1  <O>11       0.0638
  30 H5       -1.3264    -9.0313    -6.0787  H       1  <O>11       0.0618
  31 H6       -2.2327   -11.0420    -5.0559  H       1  <O>11       0.0618
  32 H7       -0.7795   -12.4900    -3.7546  H       1  <O>11       0.0637
@<TRIPOS>BOND
     1     1     2    1
     2     2     3    2
     3     2     4    2
     4     2     5    1
     5     5     6   ar
     6     6     7   ar
     7     7     8   ar
     8     8     9   ar
     9     9    10   ar
    10     5    10   ar
    11    10    11    1
    12    11    12    1
    13    12    13    2
    14    12    14    2
    15    12    15    1
    16    15    16   ar
    17    16    17    1
    18    16    18   ar
    19    18    19    1
    20    18    20   ar
    21    20    21    1
    22    20    22   ar
    23    22    23    1
    24    22    24   ar
    25    15    24   ar
    26    24    25    1
    27     1    26    1
    28     1    27    1
    29    11    28    1
    30     6    29    1
    31     7    30    1
    32     8    31    1
    33     9    32    1
@<TRIPOS>MOLECULE
mol26_1_11
 32 33 0 0 0
SMALL
USER_CHARGES
****
VDW energy = -155.92
@<TRIPOS>ATOM
   1 N1        3.6845    -8.8982    -5.7123  N.3     1  <O>11      -0.2035
   2 S1        3.1567    -9.7375    -4.3909  S.O2    1  <O>11       0.0578
   3 O1        4.0563   -11.1232    -4.2196  O.2     1  <O>11      -0.1532
   4 O2        3.3259    -8.7960    -3.0330  O.2     1  <O>11      -0.1532
   5 C1        1.4620   -10.1610    -4.6040  C.ar    1  <O>11       0.1272
   6 C2        1.0887   -11.5076    -4.6064  C.ar    1  <O>11      -0.0335
   7 C3       -0.2551   -11.8514    -4.7873  C.ar    1  <O>11      -0.0598
   8 C4       -1.2196   -10.8556    -4.9617  C.ar    1  <O>11      -0.0599
   9 C5       -0.8312    -9.5117    -4.9511  C.ar    1  <O>11      -0.0374
  10 C6        0.5063    -9.1577    -4.7693  C.ar    1  <O>11       0.0743
  11 N2        0.9057    -7.7729    -4.7504  N.pl3   1  <O>11      -0.2142
  12 S2       -0.2247    -6.5845    -4.9453  S.O2    1  <O>11       0.0781
  13 O3       -1.3550    -6.6913    -3.7347  O.2     1  <O>11      -0.1498
  14 O4       -0.9710    -6.7659    -6.4185  O.2     1  <O>11      -0.1498
  15 C7        0.5652    -5.0015    -4.8762  C.ar    1  <O>11       0.1843
  16 C8        1.8962    -4.8542    -5.3027  C.ar    1  <O>11       0.1907
  17 F1        2.5815    -5.9403    -5.7833  F       1  <O>11      -0.2002
  18 C9        2.5240    -3.6045    -5.2344  C.ar    1  <O>11       0.1983
  19 F2        3.8235    -3.4729    -5.6462  F       1  <O>11      -0.1993
  20 C10       1.8280    -2.4937    -4.7491  C.ar    1  <O>11       0.1992
  21 F3        2.4384    -1.2668    -4.6804  F       1  <O>11      -0.1993
  22 C11       0.5007    -2.6393    -4.3307  C.ar    1  <O>11       0.1983
  23 F4       -0.1758    -1.5469    -3.8562  F       1  <O>11      -0.1993
  24 C12      -0.1345    -3.8818    -4.3951  C.ar    1  <O>11       0.1907
  25 F5       -1.4367    -4.0228    -3.9940  F       1  <O>11      -0.2002
  26 H1        3.1320    -8.0472    -5.8175  H       1  <O>11       0.1442
  27 H2        3.5805    -9.4763    -6.5461  H       1  <O>11       0.1442
  28 H3        1.8868    -7.5272    -4.6167  H       1  <O>11       0.1737
  29 H4        1.7999   -12.2439    -4.4756  H       1  <O>11       0.0638
  30 H5       -0.5352   -12.8446    -4.7921  H       1  <O>11       0.0618
  31 H6       -2.2106   -11.1096    -5.0973  H       1  <O>11       0.0618
  32 H7       -1.5415    -8.7741    -5.0791  H       1  <O>11       0.0637
@<TRIPOS>BOND
     1     1     2    1
     2     2     3    2
     3     2     4    2
     4     2     5    1
     5     5     6   ar
     6     6     7   ar
     7     7     8   ar
     8     8     9   ar
     9     9    10   ar
    10     5    10   ar
    11    10    11    1
    12    11    12    1
    13    12    13    2
    14    12    14    2
    15    12    15    1
    16    15    16   ar
    17    16    17    1
    18    16    18   ar
    19    18    19    1
    20    18    20   ar
    21    20    21    1
    22    20    22   ar
    23    22    23    1
    24    22    24   ar
    25    15    24   ar
    26    24    25    1
    27     1    26    1
    28     1    27    1
    29    11    28    1
    30     6    29    1
    31     7    30    1
    32     8    31    1
    33     9    32    1
@<TRIPOS>MOLECULE
mol26_1_12
 32 33 0 0 0
SMALL
USER_CHARGES
****
VDW energy = -155.18
@<TRIPOS>ATOM
   1 N1        3.6845    -8.8982    -5.7123  N.3     1  <O>11      -0.2035
   2 S1        3.1567    -9.7375    -4.3909  S.O2    1  <O>11       0.0578
   3 O1        4.0563   -11.1232    -4.2196  O.2     1  <O>11      -0.1532
   4 O2        3.3259    -8.7960    -3.0330  O.2     1  <O>11      -0.1532
   5 C1        1.4620   -10.1610    -4.6040  C.ar    1  <O>11       0.1272
   6 C2        0.5200    -9.6970    -3.6820  C.ar    1  <O>11      -0.0335
   7 C3       -0.8270   -10.0400    -3.8390  C.ar    1  <O>11      -0.0598
   8 C4       -1.2300   -10.8390    -4.9120  C.ar    1  <O>11      -0.0599
   9 C5       -0.2760   -11.2910    -5.8300  C.ar    1  <O>11      -0.0374
  10 C6        1.0700   -10.9530    -5.6840  C.ar    1  <O>11       0.0743
  11 N2        2.0520   -11.4120    -6.6340  N.pl3   1  <O>11      -0.2142
  12 S2        1.5890   -12.3490    -7.9130  S.O2    1  <O>11       0.0781
  13 O3        0.8904   -13.7460    -7.3519  O.2     1  <O>11      -0.1498
  14 O4        2.9193   -12.7254    -8.8344  O.2     1  <O>11      -0.1498
  15 C7        0.4193   -11.4612    -8.9022  C.ar    1  <O>11       0.1843
  16 C8        0.4718   -10.0586    -8.9741  C.ar    1  <O>11       0.1907
  17 F1        1.4398    -9.3769    -8.2824  F       1  <O>11      -0.2002
  18 C9       -0.4625    -9.3570    -9.7457  C.ar    1  <O>11       0.1983
  19 F2       -0.4069    -7.9899    -9.8039  F       1  <O>11      -0.1993
  20 C10      -1.4484   -10.0481   -10.4559  C.ar    1  <O>11       0.1992
  21 F3       -2.3661    -9.3654   -11.2139  F       1  <O>11      -0.1993
  22 C11      -1.4963   -11.4449   -10.3894  C.ar    1  <O>11       0.1983
  23 F4       -2.4648   -12.1160   -11.0876  F       1  <O>11      -0.1993
  24 C12      -0.5686   -12.1540    -9.6225  C.ar    1  <O>11       0.1907
  25 F5       -0.6096   -13.5220    -9.5642  F       1  <O>11      -0.2002
  26 H1        3.1320    -8.0472    -5.8175  H       1  <O>11       0.1442
  27 H2        3.5805    -9.4763    -6.5461  H       1  <O>11       0.1442
  28 H3        3.0330   -11.1580    -6.5160  H       1  <O>11       0.1737
  29 H4        0.8162    -9.1050    -2.8903  H       1  <O>11       0.0638
  30 H5       -1.5260    -9.7015    -3.1594  H       1  <O>11       0.0618
  31 H6       -2.2235   -11.0937    -5.0264  H       1  <O>11       0.0618
  32 H7       -0.5709   -11.8808    -6.6238  H       1  <O>11       0.0637
@<TRIPOS>BOND
     1     1     2    1
     2     2     3    2
     3     2     4    2
     4     2     5    1
     5     5     6   ar
     6     6     7   ar
     7     7     8   ar
     8     8     9   ar
     9     9    10   ar
    10     5    10   ar
    11    10    11    1
    12    11    12    1
    13    12    13    2
    14    12    14    2
    15    12    15    1
    16    15    16   ar
    17    16    17    1
    18    16    18   ar
    19    18    19    1
    20    18    20   ar
    21    20    21    1
    22    20    22   ar
    23    22    23    1
    24    22    24   ar
    25    15    24   ar
    26    24    25    1
    27     1    26    1
    28     1    27    1
    29    11    28    1
    30     6    29    1
    31     7    30    1
    32     8    31    1
    33     9    32    1
@<TRIPOS>MOLECULE
mol26_1_13
 32 33 0 0 0
SMALL
USER_CHARGES
****
VDW energy = -155.11
@<TRIPOS>ATOM
   1 N1        3.6845    -8.8982    -5.7123  N.3     1  <O>11      -0.2035
   2 S1        3.1567    -9.7375    -4.3909  S.O2    1  <O>11       0.0578
   3 O1        4.0563   -11.1232    -4.2196  O.2     1  <O>11      -0.1532
   4 O2        3.3259    -8.7960    -3.0330  O.2     1  <O>11      -0.1532
   5 C1        1.4620   -10.1610    -4.6040  C.ar    1  <O>11       0.1272
   6 C2        0.5200    -9.6970    -3.6820  C.ar    1  <O>11      -0.0335
   7 C3       -0.8270   -10.0400    -3.8390  C.ar    1  <O>11      -0.0598
   8 C4       -1.2300   -10.8390    -4.9120  C.ar    1  <O>11      -0.0599
   9 C5       -0.2760   -11.2910    -5.8300  C.ar    1  <O>11      -0.0374
  10 C6        1.0700   -10.9530    -5.6840  C.ar    1  <O>11       0.0743
  11 N2        2.0520   -11.4120    -6.6340  N.pl3   1  <O>11      -0.2142
  12 S2        1.5890   -12.3490    -7.9130  S.O2    1  <O>11       0.0781
  13 O3        0.8904   -13.7460    -7.3519  O.2     1  <O>11      -0.1498
  14 O4        2.9193   -12.7254    -8.8344  O.2     1  <O>11      -0.1498
  15 C7        0.4193   -11.4612    -8.9022  C.ar    1  <O>11       0.1843
  16 C8       -0.5697   -12.1530    -9.6222  C.ar    1  <O>11       0.1907
  17 F1       -0.6338   -13.5208    -9.5495  F       1  <O>11      -0.2002
  18 C9       -1.4853   -11.4505   -10.4151  C.ar    1  <O>11       0.1983
  19 F2       -2.4411   -12.1343   -11.1181  F       1  <O>11      -0.1993
  20 C10      -1.4265   -10.0558   -10.4888  C.ar    1  <O>11       0.1992
  21 F3       -2.3216    -9.3625   -11.2640  F       1  <O>11      -0.1993
  22 C11      -0.4458    -9.3669    -9.7665  C.ar    1  <O>11       0.1983
  23 F4       -0.3935    -8.0004    -9.8431  F       1  <O>11      -0.1993
  24 C12       0.4721   -10.0587    -8.9726  C.ar    1  <O>11       0.1907
  25 F5        1.4267    -9.3841    -8.2583  F       1  <O>11      -0.2002
  26 H1        3.1320    -8.0472    -5.8175  H       1  <O>11       0.1442
  27 H2        3.5805    -9.4763    -6.5461  H       1  <O>11       0.1442
  28 H3        3.0330   -11.1580    -6.5160  H       1  <O>11       0.1737
  29 H4        0.8162    -9.1050    -2.8903  H       1  <O>11       0.0638
  30 H5       -1.5260    -9.7015    -3.1594  H       1  <O>11       0.0618
  31 H6       -2.2235   -11.0937    -5.0264  H       1  <O>11       0.0618
  32 H7       -0.5709   -11.8808    -6.6238  H       1  <O>11       0.0637
@<TRIPOS>BOND
     1     1     2    1
     2     2     3    2
     3     2     4    2
     4     2     5    1
     5     5     6   ar
     6     6     7   ar
     7     7     8   ar
     8     8     9   ar
     9     9    10   ar
    10     5    10   ar
    11    10    11    1
    12    11    12    1
    13    12    13    2
    14    12    14    2
    15    12    15    1
    16    15    16   ar
    17    16    17    1
    18    16    18   ar
    19    18    19    1
    20    18    20   ar
    21    20    21    1
    22    20    22   ar
    23    22    23    1
    24    22    24   ar
    25    15    24   ar
    26    24    25    1
    27     1    26    1
    28     1    27    1
    29    11    28    1
    30     6    29    1
    31     7    30    1
    32     8    31    1
    33     9    32    1
@<TRIPOS>MOLECULE
mol26_1_14
 32 33 0 0 0
SMALL
USER_CHARGES
****
VDW energy = -154.66
@<TRIPOS>ATOM
   1 N1        3.6845    -8.8982    -5.7123  N.3     1  <O>11      -0.2035
   2 S1        3.1567    -9.7375    -4.3909  S.O2    1  <O>11       0.0578
   3 O1        4.0563   -11.1232    -4.2196  O.2     1  <O>11      -0.1532
   4 O2        3.3259    -8.7960    -3.0330  O.2     1  <O>11      -0.1532
   5 C1        1.4620   -10.1610    -4.6040  C.ar    1  <O>11       0.1272
   6 C2        1.0887   -11.5076    -4.6064  C.ar    1  <O>11      -0.0335
   7 C3       -0.2551   -11.8514    -4.7873  C.ar    1  <O>11      -0.0598
   8 C4       -1.2196   -10.8556    -4.9617  C.ar    1  <O>11      -0.0599
   9 C5       -0.8312    -9.5117    -4.9511  C.ar    1  <O>11      -0.0374
  10 C6        0.5063    -9.1577    -4.7693  C.ar    1  <O>11       0.0743
  11 N2        0.9057    -7.7729    -4.7504  N.pl3   1  <O>11      -0.2142
  12 S2       -0.2247    -6.5845    -4.9453  S.O2    1  <O>11       0.0781
  13 O3       -1.3550    -6.6913    -3.7347  O.2     1  <O>11      -0.1498
  14 O4       -0.9710    -6.7659    -6.4185  O.2     1  <O>11      -0.1498
  15 C7        0.5652    -5.0015    -4.8762  C.ar    1  <O>11       0.1843
  16 C8        1.5667    -4.6679    -5.8040  C.ar    1  <O>11       0.1907
  17 F1        1.9256    -5.5698    -6.7725  F       1  <O>11      -0.2002
  18 C9        2.2003    -3.4209    -5.7394  C.ar    1  <O>11       0.1983
  19 F2        3.1796    -3.1081    -6.6441  F       1  <O>11      -0.1993
  20 C10       1.8346    -2.4967    -4.7565  C.ar    1  <O>11       0.1992
  21 F3        2.4520    -1.2732    -4.6891  F       1  <O>11      -0.1993
  22 C11       0.8328    -2.8266    -3.8370  C.ar    1  <O>11       0.1983
  23 F4        0.4793    -1.9166    -2.8763  F       1  <O>11      -0.1993
  24 C12       0.1947    -4.0680    -3.8932  C.ar    1  <O>11       0.1907
  25 F5       -0.7923    -4.3879    -2.9988  F       1  <O>11      -0.2002
  26 H1        3.1320    -8.0472    -5.8175  H       1  <O>11       0.1442
  27 H2        3.5805    -9.4763    -6.5461  H       1  <O>11       0.1442
  28 H3        1.8868    -7.5272    -4.6167  H       1  <O>11       0.1737
  29 H4        1.7999   -12.2439    -4.4756  H       1  <O>11       0.0638
  30 H5       -0.5352   -12.8446    -4.7921  H       1  <O>11       0.0618
  31 H6       -2.2106   -11.1096    -5.0973  H       1  <O>11       0.0618
  32 H7       -1.5415    -8.7741    -5.0791  H       1  <O>11       0.0637
@<TRIPOS>BOND
     1     1     2    1
     2     2     3    2
     3     2     4    2
     4     2     5    1
     5     5     6   ar
     6     6     7   ar
     7     7     8   ar
     8     8     9   ar
     9     9    10   ar
    10     5    10   ar
    11    10    11    1
    12    11    12    1
    13    12    13    2
    14    12    14    2
    15    12    15    1
    16    15    16   ar
    17    16    17    1
    18    16    18   ar
    19    18    19    1
    20    18    20   ar
    21    20    21    1
    22    20    22   ar
    23    22    23    1
    24    22    24   ar
    25    15    24   ar
    26    24    25    1
    27     1    26    1
    28     1    27    1
    29    11    28    1
    30     6    29    1
    31     7    30    1
    32     8    31    1
    33     9    32    1
@<TRIPOS>MOLECULE
mol26_1_15
 32 33 0 0 0
SMALL
USER_CHARGES
****
VDW energy = -154.06
@<TRIPOS>ATOM
   1 N1        3.6845    -8.8982    -5.7123  N.3     1  <O>11      -0.2035
   2 S1        3.1567    -9.7375    -4.3909  S.O2    1  <O>11       0.0578
   3 O1        4.0563   -11.1232    -4.2196  O.2     1  <O>11      -0.1532
   4 O2        3.3259    -8.7960    -3.0330  O.2     1  <O>11      -0.1532
   5 C1        1.4620   -10.1610    -4.6040  C.ar    1  <O>11       0.1272
   6 C2        0.5200    -9.6970    -3.6820  C.ar    1  <O>11      -0.0335
   7 C3       -0.8270   -10.0400    -3.8390  C.ar    1  <O>11      -0.0598
   8 C4       -1.2300   -10.8390    -4.9120  C.ar    1  <O>11      -0.0599
   9 C5       -0.2760   -11.2910    -5.8300  C.ar    1  <O>11      -0.0374
  10 C6        1.0700   -10.9530    -5.6840  C.ar    1  <O>11       0.0743
  11 N2        2.0520   -11.4120    -6.6340  N.pl3   1  <O>11      -0.2142
  12 S2        1.5890   -12.3490    -7.9130  S.O2    1  <O>11       0.0781
  13 O3        2.9180   -12.7264    -8.8328  O.2     1  <O>11      -0.1498
  14 O4        0.4906   -11.5166    -8.8408  O.2     1  <O>11      -0.1498
  15 C7        0.8444   -13.8394    -7.3138  C.ar    1  <O>11       0.1843
  16 C8        1.5769   -14.7199    -6.4993  C.ar    1  <O>11       0.1907
  17 F1        2.8705   -14.4172    -6.1602  F       1  <O>11      -0.2002
  18 C9        0.9911   -15.9049    -6.0376  C.ar    1  <O>11       0.1983
  19 F2        1.7155   -16.7596    -5.2500  F       1  <O>11      -0.1993
  20 C10      -0.3288   -16.2156    -6.3773  C.ar    1  <O>11       0.1992
  21 F3       -0.9076   -17.3754    -5.9273  F       1  <O>11      -0.1993
  22 C11      -1.0599   -15.3354    -7.1828  C.ar    1  <O>11       0.1983
  23 F4       -2.3526   -15.6457    -7.5121  F       1  <O>11      -0.1993
  24 C12      -0.4845   -14.1506    -7.6483  C.ar    1  <O>11       0.1907
  25 F5       -1.2028   -13.2845    -8.4294  F       1  <O>11      -0.2002
  26 H1        3.1320    -8.0472    -5.8175  H       1  <O>11       0.1442
  27 H2        3.5805    -9.4763    -6.5461  H       1  <O>11       0.1442
  28 H3        3.0330   -11.1580    -6.5160  H       1  <O>11       0.1737
  29 H4        0.8162    -9.1050    -2.8903  H       1  <O>11       0.0638
  30 H5       -1.5260    -9.7015    -3.1594  H       1  <O>11       0.0618
  31 H6       -2.2235   -11.0937    -5.0264  H       1  <O>11       0.0618
  32 H7       -0.5709   -11.8808    -6.6238  H       1  <O>11       0.0637
@<TRIPOS>BOND
     1     1     2    1
     2     2     3    2
     3     2     4    2
     4     2     5    1
     5     5     6   ar
     6     6     7   ar
     7     7     8   ar
     8     8     9   ar
     9     9    10   ar
    10     5    10   ar
    11    10    11    1
    12    11    12    1
    13    12    13    2
    14    12    14    2
    15    12    15    1
    16    15    16   ar
    17    16    17    1
    18    16    18   ar
    19    18    19    1
    20    18    20   ar
    21    20    21    1
    22    20    22   ar
    23    22    23    1
    24    22    24   ar
    25    15    24   ar
    26    24    25    1
    27     1    26    1
    28     1    27    1
    29    11    28    1
    30     6    29    1
    31     7    30    1
    32     8    31    1
    33     9    32    1
@<TRIPOS>MOLECULE
mol26_1_16
 32 33 0 0 0
SMALL
USER_CHARGES
****
VDW energy = -153.95
@<TRIPOS>ATOM
   1 N1        3.6845    -8.8982    -5.7123  N.3     1  <O>11      -0.2035
   2 S1        3.1567    -9.7375    -4.3909  S.O2    1  <O>11       0.0578
   3 O1        4.0563   -11.1232    -4.2196  O.2     1  <O>11      -0.1532
   4 O2        3.3259    -8.7960    -3.0330  O.2     1  <O>11      -0.1532
   5 C1        1.4620   -10.1610    -4.6040  C.ar    1  <O>11       0.1272
   6 C2        0.5200    -9.6970    -3.6820  C.ar    1  <O>11      -0.0335
   7 C3       -0.8270   -10.0400    -3.8390  C.ar    1  <O>11      -0.0598
   8 C4       -1.2300   -10.8390    -4.9120  C.ar    1  <O>11      -0.0599
   9 C5       -0.2760   -11.2910    -5.8300  C.ar    1  <O>11      -0.0374
  10 C6        1.0700   -10.9530    -5.6840  C.ar    1  <O>11       0.0743
  11 N2        2.0520   -11.4120    -6.6340  N.pl3   1  <O>11      -0.2142
  12 S2        1.5890   -12.3490    -7.9130  S.O2    1  <O>11       0.0781
  13 O3        0.4930   -11.5170    -8.8410  O.2     1  <O>11      -0.1498
  14 O4        0.8910   -13.7480    -7.3510  O.2     1  <O>11      -0.1498
  15 C7        3.0070   -12.7510    -8.8940  C.ar    1  <O>11       0.1843
  16 C8        3.7730   -11.7310    -9.4840  C.ar    1  <O>11       0.1907
  17 F1        3.4250   -10.4190    -9.2900  F       1  <O>11      -0.2002
  18 C9        4.8860   -12.0510   -10.2710  C.ar    1  <O>11       0.1983
  19 F2        5.6220   -11.0500   -10.8470  F       1  <O>11      -0.1993
  20 C10       5.2470   -13.3870   -10.4680  C.ar    1  <O>11       0.1992
  21 F3        6.3370   -13.7060   -11.2380  F       1  <O>11      -0.1993
  22 C11       4.4880   -14.4020    -9.8750  C.ar    1  <O>11       0.1983
  23 F4        4.8470   -15.7090   -10.0720  F       1  <O>11      -0.1993
  24 C12       3.3760   -14.0930    -9.0880  C.ar    1  <O>11       0.1907
  25 F5        2.6380   -15.0860    -8.5000  F       1  <O>11      -0.2002
  26 H1        3.1320    -8.0472    -5.8175  H       1  <O>11       0.1442
  27 H2        3.5805    -9.4763    -6.5461  H       1  <O>11       0.1442
  28 H3        3.0330   -11.1580    -6.5160  H       1  <O>11       0.1737
  29 H4        0.8162    -9.1050    -2.8903  H       1  <O>11       0.0638
  30 H5       -1.5260    -9.7015    -3.1594  H       1  <O>11       0.0618
  31 H6       -2.2235   -11.0937    -5.0264  H       1  <O>11       0.0618
  32 H7       -0.5709   -11.8808    -6.6238  H       1  <O>11       0.0637
@<TRIPOS>BOND
     1     1     2    1
     2     2     3    2
     3     2     4    2
     4     2     5    1
     5     5     6   ar
     6     6     7   ar
     7     7     8   ar
     8     8     9   ar
     9     9    10   ar
    10     5    10   ar
    11    10    11    1
    12    11    12    1
    13    12    13    2
    14    12    14    2
    15    12    15    1
    16    15    16   ar
    17    16    17    1
    18    16    18   ar
    19    18    19    1
    20    18    20   ar
    21    20    21    1
    22    20    22   ar
    23    22    23    1
    24    22    24   ar
    25    15    24   ar
    26    24    25    1
    27     1    26    1
    28     1    27    1
    29    11    28    1
    30     6    29    1
    31     7    30    1
    32     8    31    1
    33     9    32    1
@<TRIPOS>MOLECULE
mol26_1_17
 32 33 0 0 0
SMALL
USER_CHARGES
****
VDW energy = -152.40
@<TRIPOS>ATOM
   1 N1        3.6845    -8.8982    -5.7123  N.3     1  <O>11      -0.2035
   2 S1        3.1567    -9.7375    -4.3909  S.O2    1  <O>11       0.0578
   3 O1        4.0563   -11.1232    -4.2196  O.2     1  <O>11      -0.1532
   4 O2        3.3259    -8.7960    -3.0330  O.2     1  <O>11      -0.1532
   5 C1        1.4620   -10.1610    -4.6040  C.ar    1  <O>11       0.1272
   6 C2        1.0887   -11.5076    -4.6064  C.ar    1  <O>11      -0.0335
   7 C3       -0.2551   -11.8514    -4.7873  C.ar    1  <O>11      -0.0598
   8 C4       -1.2196   -10.8556    -4.9617  C.ar    1  <O>11      -0.0599
   9 C5       -0.8312    -9.5117    -4.9511  C.ar    1  <O>11      -0.0374
  10 C6        0.5063    -9.1577    -4.7693  C.ar    1  <O>11       0.0743
  11 N2        0.9057    -7.7729    -4.7504  N.pl3   1  <O>11      -0.2142
  12 S2       -0.2247    -6.5845    -4.9453  S.O2    1  <O>11       0.0781
  13 O3       -1.3550    -6.6913    -3.7347  O.2     1  <O>11      -0.1498
  14 O4       -0.9710    -6.7659    -6.4185  O.2     1  <O>11      -0.1498
  15 C7        0.5652    -5.0015    -4.8762  C.ar    1  <O>11       0.1843
  16 C8        1.2693    -4.6104    -3.7244  C.ar    1  <O>11       0.1907
  17 F1        1.3523    -5.4636    -2.6543  F       1  <O>11      -0.2002
  18 C9        1.8817    -3.3526    -3.6659  C.ar    1  <O>11       0.1983
  19 F2        2.5599    -2.9783    -2.5366  F       1  <O>11      -0.1993
  20 C10       1.8034    -2.4812    -4.7561  C.ar    1  <O>11       0.1992
  21 F3        2.4021    -1.2476    -4.7041  F       1  <O>11      -0.1993
  22 C11       1.1079    -2.8735    -5.9051  C.ar    1  <O>11       0.1983
  23 F4        1.0348    -2.0150    -6.9698  F       1  <O>11      -0.1993
  24 C12       0.4937    -4.1263    -5.9733  C.ar    1  <O>11       0.1907
  25 F5       -0.1797    -4.5143    -7.1013  F       1  <O>11      -0.2002
  26 H1        3.1320    -8.0472    -5.8175  H       1  <O>11       0.1442
  27 H2        3.5805    -9.4763    -6.5461  H       1  <O>11       0.1442
  28 H3        1.8868    -7.5272    -4.6167  H       1  <O>11       0.1737
  29 H4        1.7999   -12.2439    -4.4756  H       1  <O>11       0.0638
  30 H5       -0.5352   -12.8446    -4.7921  H       1  <O>11       0.0618
  31 H6       -2.2106   -11.1096    -5.0973  H       1  <O>11       0.0618
  32 H7       -1.5415    -8.7741    -5.0791  H       1  <O>11       0.0637
@<TRIPOS>BOND
     1     1     2    1
     2     2     3    2
     3     2     4    2
     4     2     5    1
     5     5     6   ar
     6     6     7   ar
     7     7     8   ar
     8     8     9   ar
     9     9    10   ar
    10     5    10   ar
    11    10    11    1
    12    11    12    1
    13    12    13    2
    14    12    14    2
    15    12    15    1
    16    15    16   ar
    17    16    17    1
    18    16    18   ar
    19    18    19    1
    20    18    20   ar
    21    20    21    1
    22    20    22   ar
    23    22    23    1
    24    22    24   ar
    25    15    24   ar
    26    24    25    1
    27     1    26    1
    28     1    27    1
    29    11    28    1
    30     6    29    1
    31     7    30    1
    32     8    31    1
    33     9    32    1
@<TRIPOS>MOLECULE
mol26_1_18
 32 33 0 0 0
SMALL
USER_CHARGES
****
VDW energy = -152.15
@<TRIPOS>ATOM
   1 N1        3.6845    -8.8982    -5.7123  N.3     1  <O>11      -0.2035
   2 S1        3.1567    -9.7375    -4.3909  S.O2    1  <O>11       0.0578
   3 O1        4.0563   -11.1232    -4.2196  O.2     1  <O>11      -0.1532
   4 O2        3.3259    -8.7960    -3.0330  O.2     1  <O>11      -0.1532
   5 C1        1.4620   -10.1610    -4.6040  C.ar    1  <O>11       0.1272
   6 C2        0.5200    -9.6970    -3.6820  C.ar    1  <O>11      -0.0335
   7 C3       -0.8270   -10.0400    -3.8390  C.ar    1  <O>11      -0.0598
   8 C4       -1.2300   -10.8390    -4.9120  C.ar    1  <O>11      -0.0599
   9 C5       -0.2760   -11.2910    -5.8300  C.ar    1  <O>11      -0.0374
  10 C6        1.0700   -10.9530    -5.6840  C.ar    1  <O>11       0.0743
  11 N2        2.0520   -11.4120    -6.6340  N.pl3   1  <O>11      -0.2142
  12 S2        1.5890   -12.3490    -7.9130  S.O2    1  <O>11       0.0781
  13 O3        0.4930   -11.5170    -8.8410  O.2     1  <O>11      -0.1498
  14 O4        0.8910   -13.7480    -7.3510  O.2     1  <O>11      -0.1498
  15 C7        3.0070   -12.7510    -8.8940  C.ar    1  <O>11       0.1843
  16 C8        4.2740   -12.8629    -8.2961  C.ar    1  <O>11       0.1907
  17 F1        4.4091   -12.6691    -6.9454  F       1  <O>11      -0.2002
  18 C9        5.3967   -13.1671    -9.0754  C.ar    1  <O>11       0.1983
  19 F2        6.6280   -13.2674    -8.4843  F       1  <O>11      -0.1993
  20 C10       5.2629   -13.3697   -10.4521  C.ar    1  <O>11       0.1992
  21 F3        6.3599   -13.6685   -11.2203  F       1  <O>11      -0.1993
  22 C11       4.0003   -13.2647   -11.0460  C.ar    1  <O>11       0.1983
  23 F4        3.8761   -13.4642   -12.3953  F       1  <O>11      -0.1993
  24 C12       2.8741   -12.9617   -10.2770  C.ar    1  <O>11       0.1907
  25 F5        1.6365   -12.8677   -10.8566  F       1  <O>11      -0.2002
  26 H1        3.1320    -8.0472    -5.8175  H       1  <O>11       0.1442
  27 H2        3.5805    -9.4763    -6.5461  H       1  <O>11       0.1442
  28 H3        3.0330   -11.1580    -6.5160  H       1  <O>11       0.1737
  29 H4        0.8162    -9.1050    -2.8903  H       1  <O>11       0.0638
  30 H5       -1.5260    -9.7015    -3.1594  H       1  <O>11       0.0618
  31 H6       -2.2235   -11.0937    -5.0264  H       1  <O>11       0.0618
  32 H7       -0.5709   -11.8808    -6.6238  H       1  <O>11       0.0637
@<TRIPOS>BOND
     1     1     2    1
     2     2     3    2
     3     2     4    2
     4     2     5    1
     5     5     6   ar
     6     6     7   ar
     7     7     8   ar
     8     8     9   ar
     9     9    10   ar
    10     5    10   ar
    11    10    11    1
    12    11    12    1
    13    12    13    2
    14    12    14    2
    15    12    15    1
    16    15    16   ar
    17    16    17    1
    18    16    18   ar
    19    18    19    1
    20    18    20   ar
    21    20    21    1
    22    20    22   ar
    23    22    23    1
    24    22    24   ar
    25    15    24   ar
    26    24    25    1
    27     1    26    1
    28     1    27    1
    29    11    28    1
    30     6    29    1
    31     7    30    1
    32     8    31    1
    33     9    32    1
@<TRIPOS>MOLECULE
mol26_1_19
 32 33 0 0 0
SMALL
USER_CHARGES
****
VDW energy = -152.08
@<TRIPOS>ATOM
   1 N1        3.6845    -8.8982    -5.7123  N.3     1  <O>11      -0.2035
   2 S1        3.1567    -9.7375    -4.3909  S.O2    1  <O>11       0.0578
   3 O1        4.0563   -11.1232    -4.2196  O.2     1  <O>11      -0.1532
   4 O2        3.3259    -8.7960    -3.0330  O.2     1  <O>11      -0.1532
   5 C1        1.4620   -10.1610    -4.6040  C.ar    1  <O>11       0.1272
   6 C2        0.5200    -9.6970    -3.6820  C.ar    1  <O>11      -0.0335
   7 C3       -0.8270   -10.0400    -3.8390  C.ar    1  <O>11      -0.0598
   8 C4       -1.2300   -10.8390    -4.9120  C.ar    1  <O>11      -0.0599
   9 C5       -0.2760   -11.2910    -5.8300  C.ar    1  <O>11      -0.0374
  10 C6        1.0700   -10.9530    -5.6840  C.ar    1  <O>11       0.0743
  11 N2        2.0520   -11.4120    -6.6340  N.pl3   1  <O>11      -0.2142
  12 S2        1.5890   -12.3490    -7.9130  S.O2    1  <O>11       0.0781
  13 O3        0.4930   -11.5170    -8.8410  O.2     1  <O>11      -0.1498
  14 O4        0.8910   -13.7480    -7.3510  O.2     1  <O>11      -0.1498
  15 C7        3.0070   -12.7510    -8.8940  C.ar    1  <O>11       0.1843
  16 C8        2.8754   -12.9610   -10.2774  C.ar    1  <O>11       0.1907
  17 F1        1.6444   -12.8441   -10.8700  F       1  <O>11      -0.2002
  18 C9        3.9954   -13.2925   -11.0496  C.ar    1  <O>11       0.1983
  19 F2        3.8555   -13.5017   -12.3958  F       1  <O>11      -0.1993
  20 C10       5.2530   -13.4086   -10.4505  C.ar    1  <O>11       0.1992
  21 F3        6.3538   -13.7329   -11.2027  F       1  <O>11      -0.1993
  22 C11       5.3848   -13.1930    -9.0742  C.ar    1  <O>11       0.1983
  23 F4        6.6197   -13.3083    -8.4933  F       1  <O>11      -0.1993
  24 C12       4.2735   -12.8616    -8.2953  C.ar    1  <O>11       0.1907
  25 F5        4.4036   -12.6417    -6.9495  F       1  <O>11      -0.2002
  26 H1        3.1320    -8.0472    -5.8175  H       1  <O>11       0.1442
  27 H2        3.5805    -9.4763    -6.5461  H       1  <O>11       0.1442
  28 H3        3.0330   -11.1580    -6.5160  H       1  <O>11       0.1737
  29 H4        0.8162    -9.1050    -2.8903  H       1  <O>11       0.0638
  30 H5       -1.5260    -9.7015    -3.1594  H       1  <O>11       0.0618
  31 H6       -2.2235   -11.0937    -5.0264  H       1  <O>11       0.0618
  32 H7       -0.5709   -11.8808    -6.6238  H       1  <O>11       0.0637
@<TRIPOS>BOND
     1     1     2    1
     2     2     3    2
     3     2     4    2
     4     2     5    1
     5     5     6   ar
     6     6     7   ar
     7     7     8   ar
     8     8     9   ar
     9     9    10   ar
    10     5    10   ar
    11    10    11    1
    12    11    12    1
    13    12    13    2
    14    12    14    2
    15    12    15    1
    16    15    16   ar
    17    16    17    1
    18    16    18   ar
    19    18    19    1
    20    18    20   ar
    21    20    21    1
    22    20    22   ar
    23    22    23    1
    24    22    24   ar
    25    15    24   ar
    26    24    25    1
    27     1    26    1
    28     1    27    1
    29    11    28    1
    30     6    29    1
    31     7    30    1
    32     8    31    1
    33     9    32    1
@<TRIPOS>MOLECULE
mol26_1_20
 32 33 0 0 0
SMALL
USER_CHARGES
****
VDW energy = -151.86
@<TRIPOS>ATOM
   1 N1        3.6845    -8.8982    -5.7123  N.3     1  <O>11      -0.2035
   2 S1        3.1567    -9.7375    -4.3909  S.O2    1  <O>11       0.0578
   3 O1        4.0563   -11.1232    -4.2196  O.2     1  <O>11      -0.1532
   4 O2        3.3259    -8.7960    -3.0330  O.2     1  <O>11      -0.1532
   5 C1        1.4620   -10.1610    -4.6040  C.ar    1  <O>11       0.1272
   6 C2        1.0887   -11.5076    -4.6064  C.ar    1  <O>11      -0.0335
   7 C3       -0.2551   -11.8514    -4.7873  C.ar    1  <O>11      -0.0598
   8 C4       -1.2196   -10.8556    -4.9617  C.ar    1  <O>11      -0.0599
   9 C5       -0.8312    -9.5117    -4.9511  C.ar    1  <O>11      -0.0374
  10 C6        0.5063    -9.1577    -4.7693  C.ar    1  <O>11       0.0743
  11 N2        0.9057    -7.7729    -4.7504  N.pl3   1  <O>11      -0.2142
  12 S2       -0.2247    -6.5845    -4.9453  S.O2    1  <O>11       0.0781
  13 O3        0.5153    -5.1003    -4.8809  O.2     1  <O>11      -0.1498
  14 O4       -1.3570    -6.6927    -3.7343  O.2     1  <O>11      -0.1498
  15 C7       -1.0205    -6.7787    -6.5149  C.ar    1  <O>11       0.1843
  16 C8       -0.2695    -6.7266    -7.7017  C.ar    1  <O>11       0.1907
  17 F1        1.0868    -6.5343    -7.6415  F       1  <O>11      -0.2002
  18 C9       -0.9022    -6.8664    -8.9429  C.ar    1  <O>11       0.1983
  19 F2       -0.1624    -6.8076   -10.0939  F       1  <O>11      -0.1993
  20 C10      -2.2841    -7.0670    -9.0089  C.ar    1  <O>11       0.1992
  21 F3       -2.9090    -7.2050   -10.2227  F       1  <O>11      -0.1993
  22 C11      -3.0306    -7.1254    -7.8269  C.ar    1  <O>11       0.1983
  23 F4       -4.3841    -7.3220    -7.8984  F       1  <O>11      -0.1993
  24 C12      -2.4085    -6.9871    -6.5837  C.ar    1  <O>11       0.1907
  25 F5       -3.1377    -7.0532    -5.4260  F       1  <O>11      -0.2002
  26 H1        3.1320    -8.0472    -5.8175  H       1  <O>11       0.1442
  27 H2        3.5805    -9.4763    -6.5461  H       1  <O>11       0.1442
  28 H3        1.8868    -7.5272    -4.6167  H       1  <O>11       0.1737
  29 H4        1.7999   -12.2439    -4.4756  H       1  <O>11       0.0638
  30 H5       -0.5352   -12.8446    -4.7921  H       1  <O>11       0.0618
  31 H6       -2.2106   -11.1096    -5.0973  H       1  <O>11       0.0618
  32 H7       -1.5415    -8.7741    -5.0791  H       1  <O>11       0.0637
@<TRIPOS>BOND
     1     1     2    1
     2     2     3    2
     3     2     4    2
     4     2     5    1
     5     5     6   ar
     6     6     7   ar
     7     7     8   ar
     8     8     9   ar
     9     9    10   ar
    10     5    10   ar
    11    10    11    1
    12    11    12    1
    13    12    13    2
    14    12    14    2
    15    12    15    1
    16    15    16   ar
    17    16    17    1
    18    16    18   ar
    19    18    19    1
    20    18    20   ar
    21    20    21    1
    22    20    22   ar
    23    22    23    1
    24    22    24   ar
    25    15    24   ar
    26    24    25    1
    27     1    26    1
    28     1    27    1
    29    11    28    1
    30     6    29    1
    31     7    30    1
    32     8    31    1
    33     9    32    1
@<TRIPOS>MOLECULE
mol26_1_21
 32 33 0 0 0
SMALL
USER_CHARGES
****
VDW energy = -151.56
@<TRIPOS>ATOM
   1 N1        3.6845    -8.8982    -5.7123  N.3     1  <O>11      -0.2035
   2 S1        3.1567    -9.7375    -4.3909  S.O2    1  <O>11       0.0578
   3 O1        4.0563   -11.1232    -4.2196  O.2     1  <O>11      -0.1532
   4 O2        3.3259    -8.7960    -3.0330  O.2     1  <O>11      -0.1532
   5 C1        1.4620   -10.1610    -4.6040  C.ar    1  <O>11       0.1272
   6 C2        0.5200    -9.6970    -3.6820  C.ar    1  <O>11      -0.0335
   7 C3       -0.8270   -10.0400    -3.8390  C.ar    1  <O>11      -0.0598
   8 C4       -1.2300   -10.8390    -4.9120  C.ar    1  <O>11      -0.0599
   9 C5       -0.2760   -11.2910    -5.8300  C.ar    1  <O>11      -0.0374
  10 C6        1.0700   -10.9530    -5.6840  C.ar    1  <O>11       0.0743
  11 N2        2.0520   -11.4120    -6.6340  N.pl3   1  <O>11      -0.2142
  12 S2        1.5890   -12.3490    -7.9130  S.O2    1  <O>11       0.0781
  13 O3        0.4930   -11.5170    -8.8410  O.2     1  <O>11      -0.1498
  14 O4        0.8910   -13.7480    -7.3510  O.2     1  <O>11      -0.1498
  15 C7        3.0070   -12.7510    -8.8940  C.ar    1  <O>11       0.1843
  16 C8        4.0814   -13.4599    -8.3297  C.ar    1  <O>11       0.1907
  17 F1        4.0254   -13.8496    -7.0163  F       1  <O>11      -0.2002
  18 C9        5.2081   -13.7649    -9.1030  C.ar    1  <O>11       0.1983
  19 F2        6.2527   -14.4503    -8.5420  F       1  <O>11      -0.1993
  20 C10       5.2678   -13.3733   -10.4436  C.ar    1  <O>11       0.1992
  21 F3        6.3694   -13.6701   -11.2059  F       1  <O>11      -0.1993
  22 C11       4.1950   -12.6734   -11.0068  C.ar    1  <O>11       0.1983
  23 F4        4.2598   -12.2925   -12.3209  F       1  <O>11      -0.1993
  24 C12       3.0665   -12.3644   -10.2437  C.ar    1  <O>11       0.1907
  25 F5        2.0124   -11.6870   -10.7972  F       1  <O>11      -0.2002
  26 H1        3.1320    -8.0472    -5.8175  H       1  <O>11       0.1442
  27 H2        3.5805    -9.4763    -6.5461  H       1  <O>11       0.1442
  28 H3        3.0330   -11.1580    -6.5160  H       1  <O>11       0.1737
  29 H4        0.8162    -9.1050    -2.8903  H       1  <O>11       0.0638
  30 H5       -1.5260    -9.7015    -3.1594  H       1  <O>11       0.0618
  31 H6       -2.2235   -11.0937    -5.0264  H       1  <O>11       0.0618
  32 H7       -0.5709   -11.8808    -6.6238  H       1  <O>11       0.0637
@<TRIPOS>BOND
     1     1     2    1
     2     2     3    2
     3     2     4    2
     4     2     5    1
     5     5     6   ar
     6     6     7   ar
     7     7     8   ar
     8     8     9   ar
     9     9    10   ar
    10     5    10   ar
    11    10    11    1
    12    11    12    1
    13    12    13    2
    14    12    14    2
    15    12    15    1
    16    15    16   ar
    17    16    17    1
    18    16    18   ar
    19    18    19    1
    20    18    20   ar
    21    20    21    1
    22    20    22   ar
    23    22    23    1
    24    22    24   ar
    25    15    24   ar
    26    24    25    1
    27     1    26    1
    28     1    27    1
    29    11    28    1
    30     6    29    1
    31     7    30    1
    32     8    31    1
    33     9    32    1
@<TRIPOS>MOLECULE
mol26_1_22
 32 33 0 0 0
SMALL
USER_CHARGES
****
VDW energy = -151.31
@<TRIPOS>ATOM
   1 N1        3.6845    -8.8982    -5.7123  N.3     1  <O>11      -0.2035
   2 S1        3.1567    -9.7375    -4.3909  S.O2    1  <O>11       0.0578
   3 O1        4.0563   -11.1232    -4.2196  O.2     1  <O>11      -0.1532
   4 O2        3.3259    -8.7960    -3.0330  O.2     1  <O>11      -0.1532
   5 C1        1.4620   -10.1610    -4.6040  C.ar    1  <O>11       0.1272
   6 C2        0.5200    -9.6970    -3.6820  C.ar    1  <O>11      -0.0335
   7 C3       -0.8270   -10.0400    -3.8390  C.ar    1  <O>11      -0.0598
   8 C4       -1.2300   -10.8390    -4.9120  C.ar    1  <O>11      -0.0599
   9 C5       -0.2760   -11.2910    -5.8300  C.ar    1  <O>11      -0.0374
  10 C6        1.0700   -10.9530    -5.6840  C.ar    1  <O>11       0.0743
  11 N2        2.0520   -11.4120    -6.6340  N.pl3   1  <O>11      -0.2142
  12 S2        1.5890   -12.3490    -7.9130  S.O2    1  <O>11       0.0781
  13 O3        0.8904   -13.7460    -7.3519  O.2     1  <O>11      -0.1498
  14 O4        2.9193   -12.7254    -8.8344  O.2     1  <O>11      -0.1498
  15 C7        0.4193   -11.4612    -8.9022  C.ar    1  <O>11       0.1843
  16 C8        0.7758   -10.2373    -9.4940  C.ar    1  <O>11       0.1907
  17 F1        2.0385    -9.7348    -9.3116  F       1  <O>11      -0.2002
  18 C9       -0.1547    -9.5296   -10.2645  C.ar    1  <O>11       0.1983
  19 F2        0.2004    -8.3346   -10.8315  F       1  <O>11      -0.1993
  20 C10      -1.4417   -10.0401   -10.4567  C.ar    1  <O>11       0.1992
  21 F3       -2.3573    -9.3507   -11.2112  F       1  <O>11      -0.1993
  22 C11      -1.7942   -11.2619    -9.8727  C.ar    1  <O>11       0.1983
  23 F4       -3.0569   -11.7566   -10.0648  F       1  <O>11      -0.1993
  24 C12      -0.8730   -11.9756    -9.1025  C.ar    1  <O>11       0.1907
  25 F5       -1.2148   -13.1760    -8.5381  F       1  <O>11      -0.2002
  26 H1        3.1320    -8.0472    -5.8175  H       1  <O>11       0.1442
  27 H2        3.5805    -9.4763    -6.5461  H       1  <O>11       0.1442
  28 H3        3.0330   -11.1580    -6.5160  H       1  <O>11       0.1737
  29 H4        0.8162    -9.1050    -2.8903  H       1  <O>11       0.0638
  30 H5       -1.5260    -9.7015    -3.1594  H       1  <O>11       0.0618
  31 H6       -2.2235   -11.0937    -5.0264  H       1  <O>11       0.0618
  32 H7       -0.5709   -11.8808    -6.6238  H       1  <O>11       0.0637
@<TRIPOS>BOND
     1     1     2    1
     2     2     3    2
     3     2     4    2
     4     2     5    1
     5     5     6   ar
     6     6     7   ar
     7     7     8   ar
     8     8     9   ar
     9     9    10   ar
    10     5    10   ar
    11    10    11    1
    12    11    12    1
    13    12    13    2
    14    12    14    2
    15    12    15    1
    16    15    16   ar
    17    16    17    1
    18    16    18   ar
    19    18    19    1
    20    18    20   ar
    21    20    21    1
    22    20    22   ar
    23    22    23    1
    24    22    24   ar
    25    15    24   ar
    26    24    25    1
    27     1    26    1
    28     1    27    1
    29    11    28    1
    30     6    29    1
    31     7    30    1
    32     8    31    1
    33     9    32    1
@<TRIPOS>MOLECULE
mol26_1_23
 32 33 0 0 0
SMALL
USER_CHARGES
****
VDW energy = -149.09
@<TRIPOS>ATOM
   1 N1        3.6845    -8.8982    -5.7123  N.3     1  <O>11      -0.2035
   2 S1        3.1567    -9.7375    -4.3909  S.O2    1  <O>11       0.0578
   3 O1        4.0563   -11.1232    -4.2196  O.2     1  <O>11      -0.1532
   4 O2        3.3259    -8.7960    -3.0330  O.2     1  <O>11      -0.1532
   5 C1        1.4620   -10.1610    -4.6040  C.ar    1  <O>11       0.1272
   6 C2        0.5200    -9.6970    -3.6820  C.ar    1  <O>11      -0.0335
   7 C3       -0.8270   -10.0400    -3.8390  C.ar    1  <O>11      -0.0598
   8 C4       -1.2300   -10.8390    -4.9120  C.ar    1  <O>11      -0.0599
   9 C5       -0.2760   -11.2910    -5.8300  C.ar    1  <O>11      -0.0374
  10 C6        1.0700   -10.9530    -5.6840  C.ar    1  <O>11       0.0743
  11 N2        2.0520   -11.4120    -6.6340  N.pl3   1  <O>11      -0.2142
  12 S2        1.5890   -12.3490    -7.9130  S.O2    1  <O>11       0.0781
  13 O3        0.4930   -11.5170    -8.8410  O.2     1  <O>11      -0.1498
  14 O4        0.8910   -13.7480    -7.3510  O.2     1  <O>11      -0.1498
  15 C7        3.0070   -12.7510    -8.8940  C.ar    1  <O>11       0.1843
  16 C8        2.8702   -13.5449   -10.0456  C.ar    1  <O>11       0.1907
  17 F1        1.6311   -14.0011   -10.4151  F       1  <O>11      -0.2002
  18 C9        3.9946   -13.8735   -10.8127  C.ar    1  <O>11       0.1983
  19 F2        3.8516   -14.6532   -11.9295  F       1  <O>11      -0.1993
  20 C10       5.2591   -13.4071   -10.4422  C.ar    1  <O>11       0.1992
  21 F3        6.3641   -13.7259   -11.1906  F       1  <O>11      -0.1993
  22 C11       5.3940   -12.6112    -9.2993  C.ar    1  <O>11       0.1983
  23 F4        6.6358   -12.1575    -8.9417  F       1  <O>11      -0.1993
  24 C12       4.2784   -12.2777    -8.5275  C.ar    1  <O>11       0.1907
  25 F5        4.4087   -11.4912    -7.4135  F       1  <O>11      -0.2002
  26 H1        3.1320    -8.0472    -5.8175  H       1  <O>11       0.1442
  27 H2        3.5805    -9.4763    -6.5461  H       1  <O>11       0.1442
  28 H3        3.0330   -11.1580    -6.5160  H       1  <O>11       0.1737
  29 H4        0.8162    -9.1050    -2.8903  H       1  <O>11       0.0638
  30 H5       -1.5260    -9.7015    -3.1594  H       1  <O>11       0.0618
  31 H6       -2.2235   -11.0937    -5.0264  H       1  <O>11       0.0618
  32 H7       -0.5709   -11.8808    -6.6238  H       1  <O>11       0.0637
@<TRIPOS>BOND
     1     1     2    1
     2     2     3    2
     3     2     4    2
     4     2     5    1
     5     5     6   ar
     6     6     7   ar
     7     7     8   ar
     8     8     9   ar
     9     9    10   ar
    10     5    10   ar
    11    10    11    1
    12    11    12    1
    13    12    13    2
    14    12    14    2
    15    12    15    1
    16    15    16   ar
    17    16    17    1
    18    16    18   ar
    19    18    19    1
    20    18    20   ar
    21    20    21    1
    22    20    22   ar
    23    22    23    1
    24    22    24   ar
    25    15    24   ar
    26    24    25    1
    27     1    26    1
    28     1    27    1
    29    11    28    1
    30     6    29    1
    31     7    30    1
    32     8    31    1
    33     9    32    1
@<TRIPOS>MOLECULE
mol26_1_24
 32 33 0 0 0
SMALL
USER_CHARGES
****
VDW energy = -148.75
@<TRIPOS>ATOM
   1 N1        3.6845    -8.8982    -5.7123  N.3     1  <O>11      -0.2035
   2 S1        3.1567    -9.7375    -4.3909  S.O2    1  <O>11       0.0578
   3 O1        4.0563   -11.1232    -4.2196  O.2     1  <O>11      -0.1532
   4 O2        3.3259    -8.7960    -3.0330  O.2     1  <O>11      -0.1532
   5 C1        1.4620   -10.1610    -4.6040  C.ar    1  <O>11       0.1272
   6 C2        0.6376    -9.3233    -5.3599  C.ar    1  <O>11      -0.0335
   7 C3       -0.7132    -9.6480    -5.5232  C.ar    1  <O>11      -0.0598
   8 C4       -1.2356   -10.8038    -4.9371  C.ar    1  <O>11      -0.0599
   9 C5       -0.3964   -11.6354    -4.1881  C.ar    1  <O>11      -0.0374
  10 C6        0.9531   -11.3221    -4.0207  C.ar    1  <O>11       0.0743
  11 N2        1.8198   -12.1828    -3.2556  N.pl3   1  <O>11      -0.2142
  12 S2        1.2186   -13.5576    -2.5652  S.O2    1  <O>11       0.0781
  13 O3        0.0082   -13.1596    -1.5016  O.2     1  <O>11      -0.1498
  14 O4        2.4339   -14.3467    -1.7524  O.2     1  <O>11      -0.1498
  15 C7        0.5697   -14.6166    -3.8270  C.ar    1  <O>11       0.1843
  16 C8       -0.0012   -15.8553    -3.4884  C.ar    1  <O>11       0.1907
  17 F1       -0.0640   -16.2397    -2.1737  F       1  <O>11      -0.2002
  18 C9       -0.5014   -16.6979    -4.4886  C.ar    1  <O>11       0.1983
  19 F2       -1.0498   -17.9059    -4.1489  F       1  <O>11      -0.1993
  20 C10      -0.4434   -16.3083    -5.8299  C.ar    1  <O>11       0.1992
  21 F3       -0.9324   -17.1300    -6.8139  F       1  <O>11      -0.1993
  22 C11       0.1191   -15.0719    -6.1661  C.ar    1  <O>11       0.1983
  23 F4        0.1730   -14.6962    -7.4821  F       1  <O>11      -0.1993
  24 C12       0.6206   -14.2243    -5.1755  C.ar    1  <O>11       0.1907
  25 F5        1.1633   -13.0100    -5.5034  F       1  <O>11      -0.2002
  26 H1        3.1320    -8.0472    -5.8175  H       1  <O>11       0.1442
  27 H2        3.5805    -9.4763    -6.5461  H       1  <O>11       0.1442
  28 H3        2.8046   -11.9425    -3.1405  H       1  <O>11       0.1737
  29 H4        1.0229    -8.4706    -5.7950  H       1  <O>11       0.0638
  30 H5       -1.3264    -9.0313    -6.0787  H       1  <O>11       0.0618
  31 H6       -2.2327   -11.0420    -5.0559  H       1  <O>11       0.0618
  32 H7       -0.7795   -12.4900    -3.7546  H       1  <O>11       0.0637
@<TRIPOS>BOND
     1     1     2    1
     2     2     3    2
     3     2     4    2
     4     2     5    1
     5     5     6   ar
     6     6     7   ar
     7     7     8   ar
     8     8     9   ar
     9     9    10   ar
    10     5    10   ar
    11    10    11    1
    12    11    12    1
    13    12    13    2
    14    12    14    2
    15    12    15    1
    16    15    16   ar
    17    16    17    1
    18    16    18   ar
    19    18    19    1
    20    18    20   ar
    21    20    21    1
    22    20    22   ar
    23    22    23    1
    24    22    24   ar
    25    15    24   ar
    26    24    25    1
    27     1    26    1
    28     1    27    1
    29    11    28    1
    30     6    29    1
    31     7    30    1
    32     8    31    1
    33     9    32    1
@<TRIPOS>MOLECULE
mol26_1_25
 32 33 0 0 0
SMALL
USER_CHARGES
****
VDW energy = -146.60
@<TRIPOS>ATOM
   1 N1        3.6845    -8.8982    -5.7123  N.3     1  <O>11      -0.2035
   2 S1        3.1567    -9.7375    -4.3909  S.O2    1  <O>11       0.0578
   3 O1        4.0563   -11.1232    -4.2196  O.2     1  <O>11      -0.1532
   4 O2        3.3259    -8.7960    -3.0330  O.2     1  <O>11      -0.1532
   5 C1        1.4620   -10.1610    -4.6040  C.ar    1  <O>11       0.1272
   6 C2        0.5201    -9.6974    -3.6817  C.ar    1  <O>11      -0.0335
   7 C3       -0.8269   -10.0404    -3.8387  C.ar    1  <O>11      -0.0598
   8 C4       -1.2300   -10.8390    -4.9120  C.ar    1  <O>11      -0.0599
   9 C5       -0.2761   -11.2906    -5.8303  C.ar    1  <O>11      -0.0374
  10 C6        1.0699   -10.9526    -5.6843  C.ar    1  <O>11       0.0743
  11 N2        2.0519   -11.4111    -6.6346  N.pl3   1  <O>11      -0.2142
  12 S2        1.5888   -12.3476    -7.9139  S.O2    1  <O>11       0.0781
  13 O3        2.9177   -12.7246    -8.8340  O.2     1  <O>11      -0.1498
  14 O4        0.4902   -11.5149    -8.8413  O.2     1  <O>11      -0.1498
  15 C7        0.8443   -13.8383    -7.3152  C.ar    1  <O>11       0.1843
  16 C8        0.3656   -14.8035    -8.2177  C.ar    1  <O>11       0.1907
  17 F1        0.4853   -14.5928    -9.5673  F       1  <O>11      -0.2002
  18 C9       -0.2355   -15.9756    -7.7428  C.ar    1  <O>11       0.1983
  19 F2       -0.7047   -16.9070    -8.6304  F       1  <O>11      -0.1993
  20 C10      -0.3558   -16.1966    -6.3678  C.ar    1  <O>11       0.1992
  21 F3       -0.9437   -17.3436    -5.8972  F       1  <O>11      -0.1993
  22 C11       0.1268   -15.2384    -5.4696  C.ar    1  <O>11       0.1983
  23 F4        0.0058   -15.4610    -4.1235  F       1  <O>11      -0.1993
  24 C12       0.7282   -14.0660    -5.9334  C.ar    1  <O>11       0.1907
  25 F5        1.2089   -13.1318    -5.0544  F       1  <O>11      -0.2002
  26 H1        3.1320    -8.0472    -5.8175  H       1  <O>11       0.1442
  27 H2        3.5805    -9.4763    -6.5461  H       1  <O>11       0.1442
  28 H3        3.0329   -11.1571    -6.5166  H       1  <O>11       0.1737
  29 H4        0.8163    -9.1057    -2.8898  H       1  <O>11       0.0638
  30 H5       -1.5259    -9.7023    -3.1589  H       1  <O>11       0.0618
  31 H6       -2.2235   -11.0937    -5.0264  H       1  <O>11       0.0618
  32 H7       -0.5710   -11.8801    -6.6243  H       1  <O>11       0.0637
@<TRIPOS>BOND
     1     1     2    1
     2     2     3    2
     3     2     4    2
     4     2     5    1
     5     5     6   ar
     6     6     7   ar
     7     7     8   ar
     8     8     9   ar
     9     9    10   ar
    10     5    10   ar
    11    10    11    1
    12    11    12    1
    13    12    13    2
    14    12    14    2
    15    12    15    1
    16    15    16   ar
    17    16    17    1
    18    16    18   ar
    19    18    19    1
    20    18    20   ar
    21    20    21    1
    22    20    22   ar
    23    22    23    1
    24    22    24   ar
    25    15    24   ar
    26    24    25    1
    27     1    26    1
    28     1    27    1
    29    11    28    1
    30     6    29    1
    31     7    30    1
    32     8    31    1
    33     9    32    1
@<TRIPOS>MOLECULE
mol26_1_26
 32 33 0 0 0
SMALL
USER_CHARGES
****
VDW energy = -144.76
@<TRIPOS>ATOM
   1 N1        3.6845    -8.8982    -5.7123  N.3     1  <O>11      -0.2035
   2 S1        3.1567    -9.7375    -4.3909  S.O2    1  <O>11       0.0578
   3 O1        4.0563   -11.1232    -4.2196  O.2     1  <O>11      -0.1532
   4 O2        3.3259    -8.7960    -3.0330  O.2     1  <O>11      -0.1532
   5 C1        1.4620   -10.1610    -4.6040  C.ar    1  <O>11       0.1272
   6 C2        1.0887   -11.5076    -4.6064  C.ar    1  <O>11      -0.0335
   7 C3       -0.2551   -11.8514    -4.7873  C.ar    1  <O>11      -0.0598
   8 C4       -1.2196   -10.8556    -4.9617  C.ar    1  <O>11      -0.0599
   9 C5       -0.8312    -9.5117    -4.9511  C.ar    1  <O>11      -0.0374
  10 C6        0.5063    -9.1577    -4.7693  C.ar    1  <O>11       0.0743
  11 N2        0.9057    -7.7729    -4.7504  N.pl3   1  <O>11      -0.2142
  12 S2       -0.2247    -6.5845    -4.9453  S.O2    1  <O>11       0.0781
  13 O3        0.5153    -5.1003    -4.8809  O.2     1  <O>11      -0.1498
  14 O4       -1.3570    -6.6927    -3.7343  O.2     1  <O>11      -0.1498
  15 C7       -1.0205    -6.7787    -6.5149  C.ar    1  <O>11       0.1843
  16 C8       -2.0274    -5.8833    -6.9148  C.ar    1  <O>11       0.1907
  17 F1       -2.3869    -4.8496    -6.0887  F       1  <O>11      -0.2002
  18 C9       -2.6655    -6.0464    -8.1504  C.ar    1  <O>11       0.1983
  19 F2       -3.6500    -5.1725    -8.5279  F       1  <O>11      -0.1993
  20 C10      -2.2993    -7.0962    -8.9976  C.ar    1  <O>11       0.1992
  21 F3       -2.9212    -7.2603   -10.2096  F       1  <O>11      -0.1993
  22 C11      -1.2922    -7.9835    -8.6020  C.ar    1  <O>11       0.1983
  23 F4       -0.9381    -9.0101    -9.4368  F       1  <O>11      -0.1993
  24 C12      -0.6495    -7.8292    -7.3714  C.ar    1  <O>11       0.1907
  25 F5        0.3426    -8.6923    -6.9877  F       1  <O>11      -0.2002
  26 H1        3.1320    -8.0472    -5.8175  H       1  <O>11       0.1442
  27 H2        3.5805    -9.4763    -6.5461  H       1  <O>11       0.1442
  28 H3        1.8868    -7.5272    -4.6167  H       1  <O>11       0.1737
  29 H4        1.7999   -12.2439    -4.4756  H       1  <O>11       0.0638
  30 H5       -0.5352   -12.8446    -4.7921  H       1  <O>11       0.0618
  31 H6       -2.2106   -11.1096    -5.0973  H       1  <O>11       0.0618
  32 H7       -1.5415    -8.7741    -5.0791  H       1  <O>11       0.0637
@<TRIPOS>BOND
     1     1     2    1
     2     2     3    2
     3     2     4    2
     4     2     5    1
     5     5     6   ar
     6     6     7   ar
     7     7     8   ar
     8     8     9   ar
     9     9    10   ar
    10     5    10   ar
    11    10    11    1
    12    11    12    1
    13    12    13    2
    14    12    14    2
    15    12    15    1
    16    15    16   ar
    17    16    17    1
    18    16    18   ar
    19    18    19    1
    20    18    20   ar
    21    20    21    1
    22    20    22   ar
    23    22    23    1
    24    22    24   ar
    25    15    24   ar
    26    24    25    1
    27     1    26    1
    28     1    27    1
    29    11    28    1
    30     6    29    1
    31     7    30    1
    32     8    31    1
    33     9    32    1
@<TRIPOS>MOLECULE
mol26_1_27
 32 33 0 0 0
SMALL
USER_CHARGES
****
VDW energy = -143.44
@<TRIPOS>ATOM
   1 N1        3.6845    -8.8982    -5.7123  N.3     1  <O>11      -0.2035
   2 S1        3.1567    -9.7375    -4.3909  S.O2    1  <O>11       0.0578
   3 O1        4.0563   -11.1232    -4.2196  O.2     1  <O>11      -0.1532
   4 O2        3.3259    -8.7960    -3.0330  O.2     1  <O>11      -0.1532
   5 C1        1.4620   -10.1610    -4.6040  C.ar    1  <O>11       0.1272
   6 C2        0.5200    -9.6970    -3.6820  C.ar    1  <O>11      -0.0335
   7 C3       -0.8270   -10.0400    -3.8390  C.ar    1  <O>11      -0.0598
   8 C4       -1.2300   -10.8390    -4.9120  C.ar    1  <O>11      -0.0599
   9 C5       -0.2760   -11.2910    -5.8300  C.ar    1  <O>11      -0.0374
  10 C6        1.0700   -10.9530    -5.6840  C.ar    1  <O>11       0.0743
  11 N2        2.0520   -11.4120    -6.6340  N.pl3   1  <O>11      -0.2142
  12 S2        1.5890   -12.3490    -7.9130  S.O2    1  <O>11       0.0781
  13 O3        0.8904   -13.7460    -7.3519  O.2     1  <O>11      -0.1498
  14 O4        2.9193   -12.7254    -8.8344  O.2     1  <O>11      -0.1498
  15 C7        0.4193   -11.4612    -8.9022  C.ar    1  <O>11       0.1843
  16 C8       -0.1261   -12.0511   -10.0553  C.ar    1  <O>11       0.1907
  17 F1        0.2428   -13.3235   -10.4090  F       1  <O>11      -0.2002
  18 C9       -1.0405   -11.3426   -10.8442  C.ar    1  <O>11       0.1983
  19 F2       -1.5613   -11.9238   -11.9696  F       1  <O>11      -0.1993
  20 C10      -1.4227   -10.0468   -10.4851  C.ar    1  <O>11       0.1992
  21 F3       -2.3187    -9.3482   -11.2545  F       1  <O>11      -0.1993
  22 C11      -0.8845    -9.4623    -9.3334  C.ar    1  <O>11       0.1983
  23 F4       -1.2630    -8.1924    -8.9871  F       1  <O>11      -0.1993
  24 C12       0.0283   -10.1611    -8.5396  C.ar    1  <O>11       0.1907
  25 F5        0.5486    -9.5926    -7.4072  F       1  <O>11      -0.2002
  26 H1        3.1320    -8.0472    -5.8175  H       1  <O>11       0.1442
  27 H2        3.5805    -9.4763    -6.5461  H       1  <O>11       0.1442
  28 H3        3.0330   -11.1580    -6.5160  H       1  <O>11       0.1737
  29 H4        0.8162    -9.1050    -2.8903  H       1  <O>11       0.0638
  30 H5       -1.5260    -9.7015    -3.1594  H       1  <O>11       0.0618
  31 H6       -2.2235   -11.0937    -5.0264  H       1  <O>11       0.0618
  32 H7       -0.5709   -11.8808    -6.6238  H       1  <O>11       0.0637
@<TRIPOS>BOND
     1     1     2    1
     2     2     3    2
     3     2     4    2
     4     2     5    1
     5     5     6   ar
     6     6     7   ar
     7     7     8   ar
     8     8     9   ar
     9     9    10   ar
    10     5    10   ar
    11    10    11    1
    12    11    12    1
    13    12    13    2
    14    12    14    2
    15    12    15    1
    16    15    16   ar
    17    16    17    1
    18    16    18   ar
    19    18    19    1
    20    18    20   ar
    21    20    21    1
    22    20    22   ar
    23    22    23    1
    24    22    24   ar
    25    15    24   ar
    26    24    25    1
    27     1    26    1
    28     1    27    1
    29    11    28    1
    30     6    29    1
    31     7    30    1
    32     8    31    1
    33     9    32    1
@<TRIPOS>MOLECULE
mol26_1_28
 32 33 0 0 0
SMALL
USER_CHARGES
****
VDW energy = -127.22
@<TRIPOS>ATOM
   1 N1        3.6845    -8.8982    -5.7123  N.3     1  <O>11      -0.2035
   2 S1        3.1567    -9.7375    -4.3909  S.O2    1  <O>11       0.0578
   3 O1        4.0563   -11.1232    -4.2196  O.2     1  <O>11      -0.1532
   4 O2        3.3259    -8.7960    -3.0330  O.2     1  <O>11      -0.1532
   5 C1        1.4620   -10.1610    -4.6040  C.ar    1  <O>11       0.1272
   6 C2        0.5200    -9.6970    -3.6820  C.ar    1  <O>11      -0.0335
   7 C3       -0.8270   -10.0400    -3.8390  C.ar    1  <O>11      -0.0598
   8 C4       -1.2300   -10.8390    -4.9120  C.ar    1  <O>11      -0.0599
   9 C5       -0.2760   -11.2910    -5.8300  C.ar    1  <O>11      -0.0374
  10 C6        1.0700   -10.9530    -5.6840  C.ar    1  <O>11       0.0743
  11 N2        2.0520   -11.4120    -6.6340  N.pl3   1  <O>11      -0.2142
  12 S2        2.8254   -12.8513    -6.3923  S.O2    1  <O>11       0.0781
  13 O3        1.7093   -14.0788    -6.3459  O.2     1  <O>11      -0.1498
  14 O4        3.6538   -12.8003    -4.9530  O.2     1  <O>11      -0.1498
  15 C7        3.9638   -13.1394    -7.7173  C.ar    1  <O>11       0.1843
  16 C8        4.2677   -14.4518    -8.1179  C.ar    1  <O>11       0.1907
  17 F1        3.6716   -15.5123    -7.4853  F       1  <O>11      -0.2002
  18 C9        5.1788   -14.6785    -9.1567  C.ar    1  <O>11       0.1983
  19 F2        5.4732   -15.9613    -9.5352  F       1  <O>11      -0.1993
  20 C10       5.7856   -13.6003    -9.8073  C.ar    1  <O>11       0.1992
  21 F3        6.6788   -13.8169   -10.8262  F       1  <O>11      -0.1993
  22 C11       5.4778   -12.2936    -9.4126  C.ar    1  <O>11       0.1983
  23 F4        6.0759   -11.2416   -10.0541  F       1  <O>11      -0.1993
  24 C12       4.5701   -12.0571    -8.3775  C.ar    1  <O>11       0.1907
  25 F5        4.2617   -10.7779    -7.9967  F       1  <O>11      -0.2002
  26 H1        3.1320    -8.0472    -5.8175  H       1  <O>11       0.1442
  27 H2        3.5805    -9.4763    -6.5461  H       1  <O>11       0.1442
  28 H3        2.2692   -10.8475    -7.4556  H       1  <O>11       0.1737
  29 H4        0.8162    -9.1050    -2.8903  H       1  <O>11       0.0638
  30 H5       -1.5260    -9.7015    -3.1594  H       1  <O>11       0.0618
  31 H6       -2.2235   -11.0937    -5.0264  H       1  <O>11       0.0618
  32 H7       -0.5709   -11.8808    -6.6238  H       1  <O>11       0.0637
@<TRIPOS>BOND
     1     1     2    1
     2     2     3    2
     3     2     4    2
     4     2     5    1
     5     5     6   ar
     6     6     7   ar
     7     7     8   ar
     8     8     9   ar
     9     9    10   ar
    10     5    10   ar
    11    10    11    1
    12    11    12    1
    13    12    13    2
    14    12    14    2
    15    12    15    1
    16    15    16   ar
    17    16    17    1
    18    16    18   ar
    19    18    19    1
    20    18    20   ar
    21    20    21    1
    22    20    22   ar
    23    22    23    1
    24    22    24   ar
    25    15    24   ar
    26    24    25    1
    27     1    26    1
    28     1    27    1
    29    11    28    1
    30     6    29    1
    31     7    30    1
    32     8    31    1
    33     9    32    1
@<TRIPOS>MOLECULE
mol26_1_29
 32 33 0 0 0
SMALL
USER_CHARGES
****
VDW energy = -123.22
@<TRIPOS>ATOM
   1 N1        3.6845    -8.8982    -5.7123  N.3     1  <O>11      -0.2035
   2 S1        3.1567    -9.7375    -4.3909  S.O2    1  <O>11       0.0578
   3 O1        4.0563   -11.1232    -4.2196  O.2     1  <O>11      -0.1532
   4 O2        3.3259    -8.7960    -3.0330  O.2     1  <O>11      -0.1532
   5 C1        1.4620   -10.1610    -4.6040  C.ar    1  <O>11       0.1272
   6 C2        0.5200    -9.6970    -3.6820  C.ar    1  <O>11      -0.0335
   7 C3       -0.8270   -10.0400    -3.8390  C.ar    1  <O>11      -0.0598
   8 C4       -1.2300   -10.8390    -4.9120  C.ar    1  <O>11      -0.0599
   9 C5       -0.2760   -11.2910    -5.8300  C.ar    1  <O>11      -0.0374
  10 C6        1.0700   -10.9530    -5.6840  C.ar    1  <O>11       0.0743
  11 N2        2.0520   -11.4120    -6.6340  N.pl3   1  <O>11      -0.2142
  12 S2        2.8254   -12.8513    -6.3923  S.O2    1  <O>11       0.0781
  13 O3        1.7093   -14.0788    -6.3459  O.2     1  <O>11      -0.1498
  14 O4        3.6538   -12.8003    -4.9530  O.2     1  <O>11      -0.1498
  15 C7        3.9638   -13.1394    -7.7173  C.ar    1  <O>11       0.1843
  16 C8        3.5026   -13.2246    -9.0421  C.ar    1  <O>11       0.1907
  17 F1        2.1661   -13.0739    -9.3090  F       1  <O>11      -0.2002
  18 C9        4.4022   -13.4664   -10.0874  C.ar    1  <O>11       0.1983
  19 F2        3.9419   -13.5542   -11.3742  F       1  <O>11      -0.1993
  20 C10       5.7662   -13.6164    -9.8205  C.ar    1  <O>11       0.1992
  21 F3        6.6521   -13.8531   -10.8413  F       1  <O>11      -0.1993
  22 C11       6.2259   -13.5249    -8.5021  C.ar    1  <O>11       0.1983
  23 F4        7.5635   -13.6729    -8.2473  F       1  <O>11      -0.1993
  24 C12       5.3363   -13.2838    -7.4524  C.ar    1  <O>11       0.1907
  25 F5        5.7871   -13.1854    -6.1626  F       1  <O>11      -0.2002
  26 H1        3.1320    -8.0472    -5.8175  H       1  <O>11       0.1442
  27 H2        3.5805    -9.4763    -6.5461  H       1  <O>11       0.1442
  28 H3        2.2692   -10.8475    -7.4556  H       1  <O>11       0.1737
  29 H4        0.8162    -9.1050    -2.8903  H       1  <O>11       0.0638
  30 H5       -1.5260    -9.7015    -3.1594  H       1  <O>11       0.0618
  31 H6       -2.2235   -11.0937    -5.0264  H       1  <O>11       0.0618
  32 H7       -0.5709   -11.8808    -6.6238  H       1  <O>11       0.0637
@<TRIPOS>BOND
     1     1     2    1
     2     2     3    2
     3     2     4    2
     4     2     5    1
     5     5     6   ar
     6     6     7   ar
     7     7     8   ar
     8     8     9   ar
     9     9    10   ar
    10     5    10   ar
    11    10    11    1
    12    11    12    1
    13    12    13    2
    14    12    14    2
    15    12    15    1
    16    15    16   ar
    17    16    17    1
    18    16    18   ar
    19    18    19    1
    20    18    20   ar
    21    20    21    1
    22    20    22   ar
    23    22    23    1
    24    22    24   ar
    25    15    24   ar
    26    24    25    1
    27     1    26    1
    28     1    27    1
    29    11    28    1
    30     6    29    1
    31     7    30    1
    32     8    31    1
    33     9    32    1
@<TRIPOS>MOLECULE
mol26_1_30
 32 33 0 0 0
SMALL
USER_CHARGES
****
VDW energy = -122.60
@<TRIPOS>ATOM
   1 N1        3.6845    -8.8982    -5.7123  N.3     1  <O>11      -0.2035
   2 S1        3.1567    -9.7375    -4.3909  S.O2    1  <O>11       0.0578
   3 O1        4.0563   -11.1232    -4.2196  O.2     1  <O>11      -0.1532
   4 O2        3.3259    -8.7960    -3.0330  O.2     1  <O>11      -0.1532
   5 C1        1.4620   -10.1610    -4.6040  C.ar    1  <O>11       0.1272
   6 C2        0.5200    -9.6970    -3.6820  C.ar    1  <O>11      -0.0335
   7 C3       -0.8270   -10.0400    -3.8390  C.ar    1  <O>11      -0.0598
   8 C4       -1.2300   -10.8390    -4.9120  C.ar    1  <O>11      -0.0599
   9 C5       -0.2760   -11.2910    -5.8300  C.ar    1  <O>11      -0.0374
  10 C6        1.0700   -10.9530    -5.6840  C.ar    1  <O>11       0.0743
  11 N2        2.0520   -11.4120    -6.6340  N.pl3   1  <O>11      -0.2142
  12 S2        2.8254   -12.8513    -6.3923  S.O2    1  <O>11       0.0781
  13 O3        1.7093   -14.0788    -6.3459  O.2     1  <O>11      -0.1498
  14 O4        3.6538   -12.8003    -4.9530  O.2     1  <O>11      -0.1498
  15 C7        3.9638   -13.1394    -7.7173  C.ar    1  <O>11       0.1843
  16 C8        4.7465   -14.3066    -7.7381  C.ar    1  <O>11       0.1907
  17 F1        4.6197   -15.2297    -6.7323  F       1  <O>11      -0.2002
  18 C9        5.6564   -14.5264    -8.7794  C.ar    1  <O>11       0.1983
  19 F2        6.4193   -15.6637    -8.7871  F       1  <O>11      -0.1993
  20 C10       5.7860   -13.5901    -9.8092  C.ar    1  <O>11       0.1992
  21 F3        6.6759   -13.8008   -10.8322  F       1  <O>11      -0.1993
  22 C11       5.0018   -12.4313    -9.7916  C.ar    1  <O>11       0.1983
  23 F4        5.1336   -11.5178   -10.8035  F       1  <O>11      -0.1993
  24 C12       4.0911   -12.2029    -8.7573  C.ar    1  <O>11       0.1907
  25 F5        3.3168   -11.0730    -8.7443  F       1  <O>11      -0.2002
  26 H1        3.1320    -8.0472    -5.8175  H       1  <O>11       0.1442
  27 H2        3.5805    -9.4763    -6.5461  H       1  <O>11       0.1442
  28 H3        2.2692   -10.8475    -7.4556  H       1  <O>11       0.1737
  29 H4        0.8162    -9.1050    -2.8903  H       1  <O>11       0.0638
  30 H5       -1.5260    -9.7015    -3.1594  H       1  <O>11       0.0618
  31 H6       -2.2235   -11.0937    -5.0264  H       1  <O>11       0.0618
  32 H7       -0.5709   -11.8808    -6.6238  H       1  <O>11       0.0637
@<TRIPOS>BOND
     1     1     2    1
     2     2     3    2
     3     2     4    2
     4     2     5    1
     5     5     6   ar
     6     6     7   ar
     7     7     8   ar
     8     8     9   ar
     9     9    10   ar
    10     5    10   ar
    11    10    11    1
    12    11    12    1
    13    12    13    2
    14    12    14    2
    15    12    15    1
    16    15    16   ar
    17    16    17    1
    18    16    18   ar
    19    18    19    1
    20    18    20   ar
    21    20    21    1
    22    20    22   ar
    23    22    23    1
    24    22    24   ar
    25    15    24   ar
    26    24    25    1
    27     1    26    1
    28     1    27    1
    29    11    28    1
    30     6    29    1
    31     7    30    1
    32     8    31    1
    33     9    32    1
@<TRIPOS>MOLECULE
mol26_2_1
 32 33 0 0 0
SMALL
USER_CHARGES
****
VDW energy = -163.62
@<TRIPOS>ATOM
   1 N1        3.6845    -8.8982    -5.7123  N.3     1  <O>11      -0.2035
   2 S1        3.1567    -9.7375    -4.3909  S.O2    1  <O>11       0.0578
   3 O1        4.0563   -11.1232    -4.2196  O.2     1  <O>11      -0.1532
   4 O2        3.3259    -8.7960    -3.0330  O.2     1  <O>11      -0.1532
   5 C1        1.4620   -10.1610    -4.6040  C.ar    1  <O>11       0.1272
   6 C2        0.8015    -9.7717    -5.7723  C.ar    1  <O>11      -0.0335
   7 C3       -0.5488   -10.0948    -5.9425  C.ar    1  <O>11      -0.0598
   8 C4       -1.2334   -10.8048    -4.9529  C.ar    1  <O>11      -0.0599
   9 C5       -0.5569   -11.1926    -3.7914  C.ar    1  <O>11      -0.0374
  10 C6        0.7906   -10.8773    -3.6123  C.ar    1  <O>11       0.0743
  11 N2        1.4899   -11.2836    -2.4193  N.pl3   1  <O>11      -0.2142
  12 S2        0.6954   -12.1323    -1.2456  S.O2    1  <O>11       0.0781
  13 O3        0.1250   -13.5573    -1.8817  O.2     1  <O>11      -0.1498
  14 O4       -0.5794   -11.2302    -0.6765  O.2     1  <O>11      -0.1498
  15 C7        1.8088   -12.4833     0.0848  C.ar    1  <O>11       0.1843
  16 C8        2.8675   -11.6052     0.3746  C.ar    1  <O>11       0.1907
  17 F1        3.0301   -10.4673    -0.3735  F       1  <O>11      -0.2002
  18 C9        3.7532   -11.8892     1.4190  C.ar    1  <O>11       0.1983
  19 F2        4.7846   -11.0277     1.6896  F       1  <O>11      -0.1993
  20 C10       3.5901   -13.0472     2.1848  C.ar    1  <O>11       0.1992
  21 F3        4.4584   -13.3311     3.2069  F       1  <O>11      -0.1993
  22 C11       2.5326   -13.9167     1.9008  C.ar    1  <O>11       0.1983
  23 F4        2.3768   -15.0511     2.6557  F       1  <O>11      -0.1993
  24 C12       1.6414   -13.6423     0.8617  C.ar    1  <O>11       0.1907
  25 F5        0.6002   -14.4898     0.5885  F       1  <O>11      -0.2002
  26 H1        3.1320    -8.0472    -5.8175  H       1  <O>11       0.1442
  27 H2        3.5805    -9.4763    -6.5461  H       1  <O>11       0.1442
  28 H3        2.4747   -11.0473    -2.2991  H       1  <O>11       0.1737
  29 H4        1.3067    -9.2491    -6.5049  H       1  <O>11       0.0638
  30 H5       -1.0414    -9.8075    -6.8027  H       1  <O>11       0.0618
  31 H6       -2.2302   -11.0411    -5.0778  H       1  <O>11       0.0618
  32 H7       -1.0599   -11.7176    -3.0591  H       1  <O>11       0.0637
@<TRIPOS>BOND
     1     1     2    1
     2     2     3    2
     3     2     4    2
     4     2     5    1
     5     5     6   ar
     6     6     7   ar
     7     7     8   ar
     8     8     9   ar
     9     9    10   ar
    10     5    10   ar
    11    10    11    1
    12    11    12    1
    13    12    13    2
    14    12    14    2
    15    12    15    1
    16    15    16   ar
    17    16    17    1
    18    16    18   ar
    19    18    19    1
    20    18    20   ar
    21    20    21    1
    22    20    22   ar
    23    22    23    1
    24    22    24   ar
    25    15    24   ar
    26    24    25    1
    27     1    26    1
    28     1    27    1
    29    11    28    1
    30     6    29    1
    31     7    30    1
    32     8    31    1
    33     9    32    1
@<TRIPOS>MOLECULE
mol26_2_2
 32 33 0 0 0
SMALL
USER_CHARGES
****
VDW energy = -163.49
@<TRIPOS>ATOM
   1 N1        3.6845    -8.8982    -5.7123  N.3     1  <O>11      -0.2035
   2 S1        3.1567    -9.7375    -4.3909  S.O2    1  <O>11       0.0578
   3 O1        4.0563   -11.1232    -4.2196  O.2     1  <O>11      -0.1532
   4 O2        3.3259    -8.7960    -3.0330  O.2     1  <O>11      -0.1532
   5 C1        1.4620   -10.1610    -4.6040  C.ar    1  <O>11       0.1272
   6 C2        0.8015    -9.7717    -5.7723  C.ar    1  <O>11      -0.0335
   7 C3       -0.5488   -10.0948    -5.9425  C.ar    1  <O>11      -0.0598
   8 C4       -1.2334   -10.8048    -4.9529  C.ar    1  <O>11      -0.0599
   9 C5       -0.5569   -11.1926    -3.7914  C.ar    1  <O>11      -0.0374
  10 C6        0.7906   -10.8773    -3.6123  C.ar    1  <O>11       0.0743
  11 N2        1.4899   -11.2836    -2.4193  N.pl3   1  <O>11      -0.2142
  12 S2        0.6954   -12.1323    -1.2456  S.O2    1  <O>11       0.0781
  13 O3        0.1250   -13.5573    -1.8817  O.2     1  <O>11      -0.1498
  14 O4       -0.5794   -11.2302    -0.6765  O.2     1  <O>11      -0.1498
  15 C7        1.8088   -12.4833     0.0848  C.ar    1  <O>11       0.1843
  16 C8        1.6429   -13.6430     0.8617  C.ar    1  <O>11       0.1907
  17 F1        0.6177   -14.5089     0.5790  F       1  <O>11      -0.2002
  18 C9        2.5166   -13.9137     1.9196  C.ar    1  <O>11       0.1983
  19 F2        2.3424   -15.0455     2.6733  F       1  <O>11      -0.1993
  20 C10       3.5638   -13.0345     2.2102  C.ar    1  <O>11       0.1992
  21 F3        4.4201   -13.2943     3.2487  F       1  <O>11      -0.1993
  22 C11       3.7328   -11.8848     1.4325  C.ar    1  <O>11       0.1983
  23 F4        4.7622   -11.0259     1.7215  F       1  <O>11      -0.1993
  24 C12       2.8676   -11.6054     0.3730  C.ar    1  <O>11       0.1907
  25 F5        3.0379   -10.4833    -0.3944  F       1  <O>11      -0.2002
  26 H1        3.1320    -8.0472    -5.8175  H       1  <O>11       0.1442
  27 H2        3.5805    -9.4763    -6.5461  H       1  <O>11       0.1442
  28 H3        2.4747   -11.0473    -2.2991  H       1  <O>11       0.1737
  29 H4        1.3067    -9.2491    -6.5049  H       1  <O>11       0.0638
  30 H5       -1.0414    -9.8075    -6.8027  H       1  <O>11       0.0618
  31 H6       -2.2302   -11.0411    -5.0778  H       1  <O>11       0.0618
  32 H7       -1.0599   -11.7176    -3.0591  H       1  <O>11       0.0637
@<TRIPOS>BOND
     1     1     2    1
     2     2     3    2
     3     2     4    2
     4     2     5    1
     5     5     6   ar
     6     6     7   ar
     7     7     8   ar
     8     8     9   ar
     9     9    10   ar
    10     5    10   ar
    11    10    11    1
    12    11    12    1
    13    12    13    2
    14    12    14    2
    15    12    15    1
    16    15    16   ar
    17    16    17    1
    18    16    18   ar
    19    18    19    1
    20    18    20   ar
    21    20    21    1
    22    20    22   ar
    23    22    23    1
    24    22    24   ar
    25    15    24   ar
    26    24    25    1
    27     1    26    1
    28     1    27    1
    29    11    28    1
    30     6    29    1
    31     7    30    1
    32     8    31    1
    33     9    32    1
@<TRIPOS>MOLECULE
mol26_2_3
 32 33 0 0 0
SMALL
USER_CHARGES
****
VDW energy = -160.47
@<TRIPOS>ATOM
   1 N1        3.6845    -8.8982    -5.7123  N.3     1  <O>11      -0.2035
   2 S1        3.1567    -9.7375    -4.3909  S.O2    1  <O>11       0.0578
   3 O1        4.0563   -11.1232    -4.2196  O.2     1  <O>11      -0.1532
   4 O2        3.3259    -8.7960    -3.0330  O.2     1  <O>11      -0.1532
   5 C1        1.4620   -10.1610    -4.6040  C.ar    1  <O>11       0.1272
   6 C2        0.6376    -9.3233    -5.3599  C.ar    1  <O>11      -0.0335
   7 C3       -0.7132    -9.6480    -5.5232  C.ar    1  <O>11      -0.0598
   8 C4       -1.2356   -10.8038    -4.9371  C.ar    1  <O>11      -0.0599
   9 C5       -0.3964   -11.6354    -4.1881  C.ar    1  <O>11      -0.0374
  10 C6        0.9531   -11.3221    -4.0207  C.ar    1  <O>11       0.0743
  11 N2        1.8198   -12.1828    -3.2556  N.pl3   1  <O>11      -0.2142
  12 S2        1.2176   -13.5577    -2.5655  S.O2    1  <O>11       0.0781
  13 O3        0.6083   -14.5513    -3.7497  O.2     1  <O>11      -0.1498
  14 O4        0.0060   -13.1580    -1.5002  O.2     1  <O>11      -0.1498
  15 C7        2.5114   -14.3979    -1.6978  C.ar    1  <O>11       0.1843
  16 C8        2.4869   -15.7974    -1.5689  C.ar    1  <O>11       0.1907
  17 F1        1.4588   -16.5129    -2.1273  F       1  <O>11      -0.2002
  18 C9        3.5040   -16.4592    -0.8736  C.ar    1  <O>11       0.1983
  19 F2        3.4673   -17.8241    -0.7506  F       1  <O>11      -0.1993
  20 C10       4.5545   -15.7338    -0.3043  C.ar    1  <O>11       0.1992
  21 F3        5.5513   -16.3784     0.3814  F       1  <O>11      -0.1993
  22 C11       4.5822   -14.3423    -0.4389  C.ar    1  <O>11       0.1983
  23 F4        5.6156   -13.6355     0.1211  F       1  <O>11      -0.1993
  24 C12       3.5732   -13.6714    -1.1324  C.ar    1  <O>11       0.1907
  25 F5        3.6044   -12.3088    -1.2716  F       1  <O>11      -0.2002
  26 H1        3.1320    -8.0472    -5.8175  H       1  <O>11       0.1442
  27 H2        3.5805    -9.4763    -6.5461  H       1  <O>11       0.1442
  28 H3        2.8044   -11.9435    -3.1396  H       1  <O>11       0.1737
  29 H4        1.0229    -8.4706    -5.7950  H       1  <O>11       0.0638
  30 H5       -1.3264    -9.0313    -6.0787  H       1  <O>11       0.0618
  31 H6       -2.2327   -11.0420    -5.0559  H       1  <O>11       0.0618
  32 H7       -0.7795   -12.4900    -3.7546  H       1  <O>11       0.0637
@<TRIPOS>BOND
     1     1     2    1
     2     2     3    2
     3     2     4    2
     4     2     5    1
     5     5     6   ar
     6     6     7   ar
     7     7     8   ar
     8     8     9   ar
     9     9    10   ar
    10     5    10   ar
    11    10    11    1
    12    11    12    1
    13    12    13    2
    14    12    14    2
    15    12    15    1
    16    15    16   ar
    17    16    17    1
    18    16    18   ar
    19    18    19    1
    20    18    20   ar
    21    20    21    1
    22    20    22   ar
    23    22    23    1
    24    22    24   ar
    25    15    24   ar
    26    24    25    1
    27     1    26    1
    28     1    27    1
    29    11    28    1
    30     6    29    1
    31     7    30    1
    32     8    31    1
    33     9    32    1
@<TRIPOS>MOLECULE
mol26_2_4
 32 33 0 0 0
SMALL
USER_CHARGES
****
VDW energy = -158.47
@<TRIPOS>ATOM
   1 N1        3.6845    -8.8982    -5.7123  N.3     1  <O>11      -0.2035
   2 S1        3.1567    -9.7375    -4.3909  S.O2    1  <O>11       0.0578
   3 O1        4.0563   -11.1232    -4.2196  O.2     1  <O>11      -0.1532
   4 O2        3.3259    -8.7960    -3.0330  O.2     1  <O>11      -0.1532
   5 C1        1.4620   -10.1610    -4.6040  C.ar    1  <O>11       0.1272
   6 C2        0.8015    -9.7717    -5.7723  C.ar    1  <O>11      -0.0335
   7 C3       -0.5488   -10.0948    -5.9425  C.ar    1  <O>11      -0.0598
   8 C4       -1.2334   -10.8048    -4.9529  C.ar    1  <O>11      -0.0599
   9 C5       -0.5569   -11.1926    -3.7914  C.ar    1  <O>11      -0.0374
  10 C6        0.7906   -10.8773    -3.6123  C.ar    1  <O>11       0.0743
  11 N2        1.4899   -11.2836    -2.4193  N.pl3   1  <O>11      -0.2142
  12 S2        0.6954   -12.1323    -1.2456  S.O2    1  <O>11       0.0781
  13 O3        0.1250   -13.5573    -1.8817  O.2     1  <O>11      -0.1498
  14 O4       -0.5794   -11.2302    -0.6765  O.2     1  <O>11      -0.1498
  15 C7        1.8088   -12.4833     0.0848  C.ar    1  <O>11       0.1843
  16 C8        1.3662   -13.1997     1.2103  C.ar    1  <O>11       0.1907
  17 F1        0.0671   -13.6350     1.2704  F       1  <O>11      -0.2002
  18 C9        2.2438   -13.4670     2.2658  C.ar    1  <O>11       0.1983
  19 F2        1.7998   -14.1628     3.3603  F       1  <O>11      -0.1993
  20 C10       3.5692   -13.0264     2.2078  C.ar    1  <O>11       0.1992
  21 F3        4.4316   -13.2829     3.2420  F       1  <O>11      -0.1993
  22 C11       4.0110   -12.3201     1.0848  C.ar    1  <O>11       0.1983
  23 F4        5.3124   -11.8906     1.0328  F       1  <O>11      -0.1993
  24 C12       3.1440   -12.0491     0.0246  C.ar    1  <O>11       0.1907
  25 F5        3.5788   -11.3643    -1.0795  F       1  <O>11      -0.2002
  26 H1        3.1320    -8.0472    -5.8175  H       1  <O>11       0.1442
  27 H2        3.5805    -9.4763    -6.5461  H       1  <O>11       0.1442
  28 H3        2.4747   -11.0473    -2.2991  H       1  <O>11       0.1737
  29 H4        1.3067    -9.2491    -6.5049  H       1  <O>11       0.0638
  30 H5       -1.0414    -9.8075    -6.8027  H       1  <O>11       0.0618
  31 H6       -2.2302   -11.0411    -5.0778  H       1  <O>11       0.0618
  32 H7       -1.0599   -11.7176    -3.0591  H       1  <O>11       0.0637
@<TRIPOS>BOND
     1     1     2    1
     2     2     3    2
     3     2     4    2
     4     2     5    1
     5     5     6   ar
     6     6     7   ar
     7     7     8   ar
     8     8     9   ar
     9     9    10   ar
    10     5    10   ar
    11    10    11    1
    12    11    12    1
    13    12    13    2
    14    12    14    2
    15    12    15    1
    16    15    16   ar
    17    16    17    1
    18    16    18   ar
    19    18    19    1
    20    18    20   ar
    21    20    21    1
    22    20    22   ar
    23    22    23    1
    24    22    24   ar
    25    15    24   ar
    26    24    25    1
    27     1    26    1
    28     1    27    1
    29    11    28    1
    30     6    29    1
    31     7    30    1
    32     8    31    1
    33     9    32    1
@<TRIPOS>MOLECULE
mol26_2_5
 32 33 0 0 0
SMALL
USER_CHARGES
****
VDW energy = -156.40
@<TRIPOS>ATOM
   1 N1        3.6845    -8.8982    -5.7123  N.3     1  <O>11      -0.2035
   2 S1        3.1567    -9.7375    -4.3909  S.O2    1  <O>11       0.0578
   3 O1        4.0563   -11.1232    -4.2196  O.2     1  <O>11      -0.1532
   4 O2        3.3259    -8.7960    -3.0330  O.2     1  <O>11      -0.1532
   5 C1        1.4620   -10.1610    -4.6040  C.ar    1  <O>11       0.1272
   6 C2        0.6376    -9.3233    -5.3599  C.ar    1  <O>11      -0.0335
   7 C3       -0.7132    -9.6480    -5.5232  C.ar    1  <O>11      -0.0598
   8 C4       -1.2356   -10.8038    -4.9371  C.ar    1  <O>11      -0.0599
   9 C5       -0.3964   -11.6354    -4.1881  C.ar    1  <O>11      -0.0374
  10 C6        0.9531   -11.3221    -4.0207  C.ar    1  <O>11       0.0743
  11 N2        1.8198   -12.1828    -3.2556  N.pl3   1  <O>11      -0.2142
  12 S2        1.2176   -13.5577    -2.5655  S.O2    1  <O>11       0.0781
  13 O3        2.4323   -14.3477    -1.7523  O.2     1  <O>11      -0.1498
  14 O4        0.6075   -14.5508    -3.7506  O.2     1  <O>11      -0.1498
  15 C7       -0.0729   -13.1323    -1.4314  C.ar    1  <O>11       0.1843
  16 C8        0.1941   -12.2951    -0.3342  C.ar    1  <O>11       0.1907
  17 F1        1.4597   -11.8001    -0.1499  F       1  <O>11      -0.2002
  18 C9       -0.8238   -11.9686     0.5674  C.ar    1  <O>11       0.1983
  19 F2       -0.5508   -11.1547     1.6363  F       1  <O>11      -0.1993
  20 C10      -2.1155   -12.4699     0.3823  C.ar    1  <O>11       0.1992
  21 F3       -3.1152   -12.1553     1.2660  F       1  <O>11      -0.1993
  22 C11      -2.3823   -13.2968    -0.7132  C.ar    1  <O>11       0.1983
  23 F4       -3.6515   -13.7853    -0.8904  F       1  <O>11      -0.1993
  24 C12      -1.3742   -13.6279    -1.6206  C.ar    1  <O>11       0.1907
  25 F5       -1.6372   -14.4313    -2.6987  F       1  <O>11      -0.2002
  26 H1        3.1320    -8.0472    -5.8175  H       1  <O>11       0.1442
  27 H2        3.5805    -9.4763    -6.5461  H       1  <O>11       0.1442
  28 H3        2.8044   -11.9435    -3.1396  H       1  <O>11       0.1737
  29 H4        1.0229    -8.4706    -5.7950  H       1  <O>11       0.0638
  30 H5       -1.3264    -9.0313    -6.0787  H       1  <O>11       0.0618
  31 H6       -2.2327   -11.0420    -5.0559  H       1  <O>11       0.0618
  32 H7       -0.7795   -12.4900    -3.7546  H       1  <O>11       0.0637
@<TRIPOS>BOND
     1     1     2    1
     2     2     3    2
     3     2     4    2
     4     2     5    1
     5     5     6   ar
     6     6     7   ar
     7     7     8   ar
     8     8     9   ar
     9     9    10   ar
    10     5    10   ar
    11    10    11    1
    12    11    12    1
    13    12    13    2
    14    12    14    2
    15    12    15    1
    16    15    16   ar
    17    16    17    1
    18    16    18   ar
    19    18    19    1
    20    18    20   ar
    21    20    21    1
    22    20    22   ar
    23    22    23    1
    24    22    24   ar
    25    15    24   ar
    26    24    25    1
    27     1    26    1
    28     1    27    1
    29    11    28    1
    30     6    29    1
    31     7    30    1
    32     8    31    1
    33     9    32    1
@<TRIPOS>MOLECULE
mol26_2_6
 32 33 0 0 0
SMALL
USER_CHARGES
****
VDW energy = -155.90
@<TRIPOS>ATOM
   1 N1        3.6845    -8.8982    -5.7123  N.3     1  <O>11      -0.2035
   2 S1        3.1567    -9.7375    -4.3909  S.O2    1  <O>11       0.0578
   3 O1        4.0563   -11.1232    -4.2196  O.2     1  <O>11      -0.1532
   4 O2        3.3259    -8.7960    -3.0330  O.2     1  <O>11      -0.1532
   5 C1        1.4620   -10.1610    -4.6040  C.ar    1  <O>11       0.1272
   6 C2        1.0887   -11.5076    -4.6064  C.ar    1  <O>11      -0.0335
   7 C3       -0.2551   -11.8514    -4.7873  C.ar    1  <O>11      -0.0598
   8 C4       -1.2196   -10.8556    -4.9617  C.ar    1  <O>11      -0.0599
   9 C5       -0.8312    -9.5117    -4.9511  C.ar    1  <O>11      -0.0374
  10 C6        0.5063    -9.1577    -4.7693  C.ar    1  <O>11       0.0743
  11 N2        0.9057    -7.7729    -4.7504  N.pl3   1  <O>11      -0.2142
  12 S2       -0.2256    -6.5849    -4.9453  S.O2    1  <O>11       0.0781
  13 O3       -1.3574    -6.6931    -3.7337  O.2     1  <O>11      -0.1498
  14 O4       -0.9724    -6.7676    -6.4189  O.2     1  <O>11      -0.1498
  15 C7        0.5632    -5.0019    -4.8770  C.ar    1  <O>11       0.1843
  16 C8        1.8943    -4.8534    -5.3037  C.ar    1  <O>11       0.1907
  17 F1        2.5791    -5.9406    -5.7830  F       1  <O>11      -0.2002
  18 C9        2.5200    -3.6044    -5.2389  C.ar    1  <O>11       0.1983
  19 F2        3.8200    -3.4723    -5.6538  F       1  <O>11      -0.1993
  20 C10       1.8250    -2.4934    -4.7524  C.ar    1  <O>11       0.1992
  21 F3        2.4361    -1.2681    -4.6837  F       1  <O>11      -0.1993
  22 C11       0.4987    -2.6401    -4.3348  C.ar    1  <O>11       0.1983
  23 F4       -0.1787    -1.5467    -3.8589  F       1  <O>11      -0.1993
  24 C12      -0.1365    -3.8819    -4.3966  C.ar    1  <O>11       0.1907
  25 F5       -1.4387    -4.0243    -3.9954  F       1  <O>11      -0.2002
  26 H1        3.1320    -8.0472    -5.8175  H       1  <O>11       0.1442
  27 H2        3.5805    -9.4763    -6.5461  H       1  <O>11       0.1442
  28 H3        1.8862    -7.5260    -4.6171  H       1  <O>11       0.1737
  29 H4        1.7999   -12.2439    -4.4756  H       1  <O>11       0.0638
  30 H5       -0.5352   -12.8446    -4.7921  H       1  <O>11       0.0618
  31 H6       -2.2106   -11.1096    -5.0973  H       1  <O>11       0.0618
  32 H7       -1.5415    -8.7741    -5.0791  H       1  <O>11       0.0637
@<TRIPOS>BOND
     1     1     2    1
     2     2     3    2
     3     2     4    2
     4     2     5    1
     5     5     6   ar
     6     6     7   ar
     7     7     8   ar
     8     8     9   ar
     9     9    10   ar
    10     5    10   ar
    11    10    11    1
    12    11    12    1
    13    12    13    2
    14    12    14    2
    15    12    15    1
    16    15    16   ar
    17    16    17    1
    18    16    18   ar
    19    18    19    1
    20    18    20   ar
    21    20    21    1
    22    20    22   ar
    23    22    23    1
    24    22    24   ar
    25    15    24   ar
    26    24    25    1
    27     1    26    1
    28     1    27    1
    29    11    28    1
    30     6    29    1
    31     7    30    1
    32     8    31    1
    33     9    32    1
@<TRIPOS>MOLECULE
mol26_2_7
 32 33 0 0 0
SMALL
USER_CHARGES
****
VDW energy = -155.11
@<TRIPOS>ATOM
   1 N1        3.6845    -8.8982    -5.7123  N.3     1  <O>11      -0.2035
   2 S1        3.1567    -9.7375    -4.3909  S.O2    1  <O>11       0.0578
   3 O1        4.0563   -11.1232    -4.2196  O.2     1  <O>11      -0.1532
   4 O2        3.3259    -8.7960    -3.0330  O.2     1  <O>11      -0.1532
   5 C1        1.4620   -10.1610    -4.6040  C.ar    1  <O>11       0.1272
   6 C2        0.5200    -9.6970    -3.6820  C.ar    1  <O>11      -0.0335
   7 C3       -0.8270   -10.0400    -3.8390  C.ar    1  <O>11      -0.0598
   8 C4       -1.2300   -10.8390    -4.9120  C.ar    1  <O>11      -0.0599
   9 C5       -0.2760   -11.2910    -5.8300  C.ar    1  <O>11      -0.0374
  10 C6        1.0700   -10.9530    -5.6840  C.ar    1  <O>11       0.0743
  11 N2        2.0520   -11.4120    -6.6340  N.pl3   1  <O>11      -0.2142
  12 S2        1.5880   -12.3490    -7.9130  S.O2    1  <O>11       0.0781
  13 O3        0.8898   -13.7480    -7.3509  O.2     1  <O>11      -0.1498
  14 O4        2.9186   -12.7258    -8.8352  O.2     1  <O>11      -0.1498
  15 C7        0.4186   -11.4611    -8.9014  C.ar    1  <O>11       0.1843
  16 C8       -0.5712   -12.1521    -9.6217  C.ar    1  <O>11       0.1907
  17 F1       -0.6338   -13.5201    -9.5487  F       1  <O>11      -0.2002
  18 C9       -1.4878   -11.4503   -10.4110  C.ar    1  <O>11       0.1983
  19 F2       -2.4461   -12.1350   -11.1126  F       1  <O>11      -0.1993
  20 C10      -1.4284   -10.0557   -10.4869  C.ar    1  <O>11       0.1992
  21 F3       -2.3226    -9.3643   -11.2626  F       1  <O>11      -0.1993
  22 C11      -0.4482    -9.3684    -9.7646  C.ar    1  <O>11       0.1983
  23 F4       -0.3948    -8.0001    -9.8422  F       1  <O>11      -0.1993
  24 C12       0.4708   -10.0586    -8.9721  C.ar    1  <O>11       0.1907
  25 F5        1.4262    -9.3849    -8.2576  F       1  <O>11      -0.2002
  26 H1        3.1320    -8.0472    -5.8175  H       1  <O>11       0.1442
  27 H2        3.5805    -9.4763    -6.5461  H       1  <O>11       0.1442
  28 H3        3.0330   -11.1590    -6.5170  H       1  <O>11       0.1737
  29 H4        0.8162    -9.1050    -2.8903  H       1  <O>11       0.0638
  30 H5       -1.5260    -9.7015    -3.1594  H       1  <O>11       0.0618
  31 H6       -2.2235   -11.0937    -5.0264  H       1  <O>11       0.0618
  32 H7       -0.5709   -11.8808    -6.6238  H       1  <O>11       0.0637
@<TRIPOS>BOND
     1     1     2    1
     2     2     3    2
     3     2     4    2
     4     2     5    1
     5     5     6   ar
     6     6     7   ar
     7     7     8   ar
     8     8     9   ar
     9     9    10   ar
    10     5    10   ar
    11    10    11    1
    12    11    12    1
    13    12    13    2
    14    12    14    2
    15    12    15    1
    16    15    16   ar
    17    16    17    1
    18    16    18   ar
    19    18    19    1
    20    18    20   ar
    21    20    21    1
    22    20    22   ar
    23    22    23    1
    24    22    24   ar
    25    15    24   ar
    26    24    25    1
    27     1    26    1
    28     1    27    1
    29    11    28    1
    30     6    29    1
    31     7    30    1
    32     8    31    1
    33     9    32    1
@<TRIPOS>MOLECULE
mol26_2_8
 32 33 0 0 0
SMALL
USER_CHARGES
****
VDW energy = -154.66
@<TRIPOS>ATOM
   1 N1        3.6845    -8.8982    -5.7123  N.3     1  <O>11      -0.2035
   2 S1        3.1567    -9.7375    -4.3909  S.O2    1  <O>11       0.0578
   3 O1        4.0563   -11.1232    -4.2196  O.2     1  <O>11      -0.1532
   4 O2        3.3259    -8.7960    -3.0330  O.2     1  <O>11      -0.1532
   5 C1        1.4620   -10.1610    -4.6040  C.ar    1  <O>11       0.1272
   6 C2        1.0887   -11.5076    -4.6064  C.ar    1  <O>11      -0.0335
   7 C3       -0.2551   -11.8514    -4.7873  C.ar    1  <O>11      -0.0598
   8 C4       -1.2196   -10.8556    -4.9617  C.ar    1  <O>11      -0.0599
   9 C5       -0.8312    -9.5117    -4.9511  C.ar    1  <O>11      -0.0374
  10 C6        0.5063    -9.1577    -4.7693  C.ar    1  <O>11       0.0743
  11 N2        0.9057    -7.7729    -4.7504  N.pl3   1  <O>11      -0.2142
  12 S2       -0.2256    -6.5849    -4.9453  S.O2    1  <O>11       0.0781
  13 O3       -1.3574    -6.6931    -3.7337  O.2     1  <O>11      -0.1498
  14 O4       -0.9724    -6.7676    -6.4189  O.2     1  <O>11      -0.1498
  15 C7        0.5632    -5.0019    -4.8770  C.ar    1  <O>11       0.1843
  16 C8        1.5646    -4.6675    -5.8050  C.ar    1  <O>11       0.1907
  17 F1        1.9234    -5.5711    -6.7722  F       1  <O>11      -0.2002
  18 C9        2.1949    -3.4206    -5.7432  C.ar    1  <O>11       0.1983
  19 F2        3.1733    -3.1071    -6.6508  F       1  <O>11      -0.1993
  20 C10       1.8311    -2.4961    -4.7599  C.ar    1  <O>11       0.1992
  21 F3        2.4492    -1.2743    -4.6935  F       1  <O>11      -0.1993
  22 C11       0.8299    -2.8264    -3.8415  C.ar    1  <O>11       0.1983
  23 F4        0.4764    -1.9155    -2.8792  F       1  <O>11      -0.1993
  24 C12       0.1928    -4.0676    -3.8949  C.ar    1  <O>11       0.1907
  25 F5       -0.7941    -4.3884    -3.0003  F       1  <O>11      -0.2002
  26 H1        3.1320    -8.0472    -5.8175  H       1  <O>11       0.1442
  27 H2        3.5805    -9.4763    -6.5461  H       1  <O>11       0.1442
  28 H3        1.8862    -7.5260    -4.6171  H       1  <O>11       0.1737
  29 H4        1.7999   -12.2439    -4.4756  H       1  <O>11       0.0638
  30 H5       -0.5352   -12.8446    -4.7921  H       1  <O>11       0.0618
  31 H6       -2.2106   -11.1096    -5.0973  H       1  <O>11       0.0618
  32 H7       -1.5415    -8.7741    -5.0791  H       1  <O>11       0.0637
@<TRIPOS>BOND
     1     1     2    1
     2     2     3    2
     3     2     4    2
     4     2     5    1
     5     5     6   ar
     6     6     7   ar
     7     7     8   ar
     8     8     9   ar
     9     9    10   ar
    10     5    10   ar
    11    10    11    1
    12    11    12    1
    13    12    13    2
    14    12    14    2
    15    12    15    1
    16    15    16   ar
    17    16    17    1
    18    16    18   ar
    19    18    19    1
    20    18    20   ar
    21    20    21    1
    22    20    22   ar
    23    22    23    1
    24    22    24   ar
    25    15    24   ar
    26    24    25    1
    27     1    26    1
    28     1    27    1
    29    11    28    1
    30     6    29    1
    31     7    30    1
    32     8    31    1
    33     9    32    1
@<TRIPOS>MOLECULE
mol26_2_9
 32 33 0 0 0
SMALL
USER_CHARGES
****
VDW energy = -153.94
@<TRIPOS>ATOM
   1 N1        3.6845    -8.8982    -5.7123  N.3     1  <O>11      -0.2035
   2 S1        3.1567    -9.7375    -4.3909  S.O2    1  <O>11       0.0578
   3 O1        4.0563   -11.1232    -4.2196  O.2     1  <O>11      -0.1532
   4 O2        3.3259    -8.7960    -3.0330  O.2     1  <O>11      -0.1532
   5 C1        1.4620   -10.1610    -4.6040  C.ar    1  <O>11       0.1272
   6 C2        0.5200    -9.6970    -3.6820  C.ar    1  <O>11      -0.0335
   7 C3       -0.8270   -10.0400    -3.8390  C.ar    1  <O>11      -0.0598
   8 C4       -1.2300   -10.8390    -4.9120  C.ar    1  <O>11      -0.0599
   9 C5       -0.2760   -11.2910    -5.8300  C.ar    1  <O>11      -0.0374
  10 C6        1.0700   -10.9530    -5.6840  C.ar    1  <O>11       0.0743
  11 N2        2.0520   -11.4120    -6.6340  N.pl3   1  <O>11      -0.2142
  12 S2        1.5880   -12.3490    -7.9130  S.O2    1  <O>11       0.0781
  13 O3        0.4900   -11.5160    -8.8410  O.2     1  <O>11      -0.1498
  14 O4        0.8890   -13.7480    -7.3500  O.2     1  <O>11      -0.1498
  15 C7        3.0050   -12.7520    -8.8940  C.ar    1  <O>11       0.1843
  16 C8        3.7720   -11.7330    -9.4850  C.ar    1  <O>11       0.1907
  17 F1        3.4230   -10.4210    -9.2910  F       1  <O>11      -0.2002
  18 C9        4.8850   -12.0530   -10.2690  C.ar    1  <O>11       0.1983
  19 F2        5.6230   -11.0510   -10.8440  F       1  <O>11      -0.1993
  20 C10       5.2450   -13.3890   -10.4680  C.ar    1  <O>11       0.1992
  21 F3        6.3330   -13.7070   -11.2390  F       1  <O>11      -0.1993
  22 C11       4.4860   -14.4020    -9.8740  C.ar    1  <O>11       0.1983
  23 F4        4.8440   -15.7110   -10.0720  F       1  <O>11      -0.1993
  24 C12       3.3740   -14.0940    -9.0880  C.ar    1  <O>11       0.1907
  25 F5        2.6350   -15.0860    -8.4990  F       1  <O>11      -0.2002
  26 H1        3.1320    -8.0472    -5.8175  H       1  <O>11       0.1442
  27 H2        3.5805    -9.4763    -6.5461  H       1  <O>11       0.1442
  28 H3        3.0330   -11.1590    -6.5170  H       1  <O>11       0.1737
  29 H4        0.8162    -9.1050    -2.8903  H       1  <O>11       0.0638
  30 H5       -1.5260    -9.7015    -3.1594  H       1  <O>11       0.0618
  31 H6       -2.2235   -11.0937    -5.0264  H       1  <O>11       0.0618
  32 H7       -0.5709   -11.8808    -6.6238  H       1  <O>11       0.0637
@<TRIPOS>BOND
     1     1     2    1
     2     2     3    2
     3     2     4    2
     4     2     5    1
     5     5     6   ar
     6     6     7   ar
     7     7     8   ar
     8     8     9   ar
     9     9    10   ar
    10     5    10   ar
    11    10    11    1
    12    11    12    1
    13    12    13    2
    14    12    14    2
    15    12    15    1
    16    15    16   ar
    17    16    17    1
    18    16    18   ar
    19    18    19    1
    20    18    20   ar
    21    20    21    1
    22    20    22   ar
    23    22    23    1
    24    22    24   ar
    25    15    24   ar
    26    24    25    1
    27     1    26    1
    28     1    27    1
    29    11    28    1
    30     6    29    1
    31     7    30    1
    32     8    31    1
    33     9    32    1
@<TRIPOS>MOLECULE
mol26_2_10
 32 33 0 0 0
SMALL
USER_CHARGES
****
VDW energy = -152.79
@<TRIPOS>ATOM
   1 N1        3.6845    -8.8982    -5.7123  N.3     1  <O>11      -0.2035
   2 S1        3.1567    -9.7375    -4.3909  S.O2    1  <O>11       0.0578
   3 O1        4.0563   -11.1232    -4.2196  O.2     1  <O>11      -0.1532
   4 O2        3.3259    -8.7960    -3.0330  O.2     1  <O>11      -0.1532
   5 C1        1.4620   -10.1610    -4.6040  C.ar    1  <O>11       0.1272
   6 C2        0.6376    -9.3233    -5.3599  C.ar    1  <O>11      -0.0335
   7 C3       -0.7132    -9.6480    -5.5232  C.ar    1  <O>11      -0.0598
   8 C4       -1.2356   -10.8038    -4.9371  C.ar    1  <O>11      -0.0599
   9 C5       -0.3964   -11.6354    -4.1881  C.ar    1  <O>11      -0.0374
  10 C6        0.9531   -11.3221    -4.0207  C.ar    1  <O>11       0.0743
  11 N2        1.8198   -12.1828    -3.2556  N.pl3   1  <O>11      -0.2142
  12 S2        1.2176   -13.5577    -2.5655  S.O2    1  <O>11       0.0781
  13 O3        0.6083   -14.5513    -3.7497  O.2     1  <O>11      -0.1498
  14 O4        0.0060   -13.1580    -1.5002  O.2     1  <O>11      -0.1498
  15 C7        2.5114   -14.3979    -1.6978  C.ar    1  <O>11       0.1843
  16 C8        2.2472   -15.6019    -1.0223  C.ar    1  <O>11       0.1907
  17 F1        0.9817   -16.1300    -1.0454  F       1  <O>11      -0.2002
  18 C9        3.2677   -16.2592    -0.3277  C.ar    1  <O>11       0.1983
  19 F2        2.9974   -17.4306     0.3311  F       1  <O>11      -0.1993
  20 C10       4.5593   -15.7251    -0.3030  C.ar    1  <O>11       0.1992
  21 F3        5.5615   -16.3642     0.3799  F       1  <O>11      -0.1993
  22 C11       4.8233   -14.5311    -0.9811  C.ar    1  <O>11       0.1983
  23 F4        6.0923   -14.0118    -0.9541  F       1  <O>11      -0.1993
  24 C12       3.8126   -13.8674    -1.6791  C.ar    1  <O>11       0.1907
  25 F5        4.0728   -12.7019    -2.3506  F       1  <O>11      -0.2002
  26 H1        3.1320    -8.0472    -5.8175  H       1  <O>11       0.1442
  27 H2        3.5805    -9.4763    -6.5461  H       1  <O>11       0.1442
  28 H3        2.8044   -11.9435    -3.1396  H       1  <O>11       0.1737
  29 H4        1.0229    -8.4706    -5.7950  H       1  <O>11       0.0638
  30 H5       -1.3264    -9.0313    -6.0787  H       1  <O>11       0.0618
  31 H6       -2.2327   -11.0420    -5.0559  H       1  <O>11       0.0618
  32 H7       -0.7795   -12.4900    -3.7546  H       1  <O>11       0.0637
@<TRIPOS>BOND
     1     1     2    1
     2     2     3    2
     3     2     4    2
     4     2     5    1
     5     5     6   ar
     6     6     7   ar
     7     7     8   ar
     8     8     9   ar
     9     9    10   ar
    10     5    10   ar
    11    10    11    1
    12    11    12    1
    13    12    13    2
    14    12    14    2
    15    12    15    1
    16    15    16   ar
    17    16    17    1
    18    16    18   ar
    19    18    19    1
    20    18    20   ar
    21    20    21    1
    22    20    22   ar
    23    22    23    1
    24    22    24   ar
    25    15    24   ar
    26    24    25    1
    27     1    26    1
    28     1    27    1
    29    11    28    1
    30     6    29    1
    31     7    30    1
    32     8    31    1
    33     9    32    1
@<TRIPOS>MOLECULE
mol26_2_11
 32 33 0 0 0
SMALL
USER_CHARGES
****
VDW energy = -152.39
@<TRIPOS>ATOM
   1 N1        3.6845    -8.8982    -5.7123  N.3     1  <O>11      -0.2035
   2 S1        3.1567    -9.7375    -4.3909  S.O2    1  <O>11       0.0578
   3 O1        4.0563   -11.1232    -4.2196  O.2     1  <O>11      -0.1532
   4 O2        3.3259    -8.7960    -3.0330  O.2     1  <O>11      -0.1532
   5 C1        1.4620   -10.1610    -4.6040  C.ar    1  <O>11       0.1272
   6 C2        1.0887   -11.5076    -4.6064  C.ar    1  <O>11      -0.0335
   7 C3       -0.2551   -11.8514    -4.7873  C.ar    1  <O>11      -0.0598
   8 C4       -1.2196   -10.8556    -4.9617  C.ar    1  <O>11      -0.0599
   9 C5       -0.8312    -9.5117    -4.9511  C.ar    1  <O>11      -0.0374
  10 C6        0.5063    -9.1577    -4.7693  C.ar    1  <O>11       0.0743
  11 N2        0.9057    -7.7729    -4.7504  N.pl3   1  <O>11      -0.2142
  12 S2       -0.2256    -6.5849    -4.9453  S.O2    1  <O>11       0.0781
  13 O3       -1.3574    -6.6931    -3.7337  O.2     1  <O>11      -0.1498
  14 O4       -0.9724    -6.7676    -6.4189  O.2     1  <O>11      -0.1498
  15 C7        0.5632    -5.0019    -4.8770  C.ar    1  <O>11       0.1843
  16 C8        1.2676    -4.6092    -3.7257  C.ar    1  <O>11       0.1907
  17 F1        1.3496    -5.4629    -2.6555  F       1  <O>11      -0.2002
  18 C9        1.8811    -3.3538    -3.6686  C.ar    1  <O>11       0.1983
  19 F2        2.5617    -2.9798    -2.5389  F       1  <O>11      -0.1993
  20 C10       1.8012    -2.4812    -4.7578  C.ar    1  <O>11       0.1992
  21 F3        2.3979    -1.2482    -4.7044  F       1  <O>11      -0.1993
  22 C11       1.1065    -2.8752    -5.9056  C.ar    1  <O>11       0.1983
  23 F4        1.0317    -2.0155    -6.9715  F       1  <O>11      -0.1993
  24 C12       0.4917    -4.1268    -5.9741  C.ar    1  <O>11       0.1907
  25 F5       -0.1820    -4.5164    -7.1017  F       1  <O>11      -0.2002
  26 H1        3.1320    -8.0472    -5.8175  H       1  <O>11       0.1442
  27 H2        3.5805    -9.4763    -6.5461  H       1  <O>11       0.1442
  28 H3        1.8862    -7.5260    -4.6171  H       1  <O>11       0.1737
  29 H4        1.7999   -12.2439    -4.4756  H       1  <O>11       0.0638
  30 H5       -0.5352   -12.8446    -4.7921  H       1  <O>11       0.0618
  31 H6       -2.2106   -11.1096    -5.0973  H       1  <O>11       0.0618
  32 H7       -1.5415    -8.7741    -5.0791  H       1  <O>11       0.0637
@<TRIPOS>BOND
     1     1     2    1
     2     2     3    2
     3     2     4    2
     4     2     5    1
     5     5     6   ar
     6     6     7   ar
     7     7     8   ar
     8     8     9   ar
     9     9    10   ar
    10     5    10   ar
    11    10    11    1
    12    11    12    1
    13    12    13    2
    14    12    14    2
    15    12    15    1
    16    15    16   ar
    17    16    17    1
    18    16    18   ar
    19    18    19    1
    20    18    20   ar
    21    20    21    1
    22    20    22   ar
    23    22    23    1
    24    22    24   ar
    25    15    24   ar
    26    24    25    1
    27     1    26    1
    28     1    27    1
    29    11    28    1
    30     6    29    1
    31     7    30    1
    32     8    31    1
    33     9    32    1
@<TRIPOS>MOLECULE
mol26_2_12
 32 33 0 0 0
SMALL
USER_CHARGES
****
VDW energy = -152.07
@<TRIPOS>ATOM
   1 N1        3.6845    -8.8982    -5.7123  N.3     1  <O>11      -0.2035
   2 S1        3.1567    -9.7375    -4.3909  S.O2    1  <O>11       0.0578
   3 O1        4.0563   -11.1232    -4.2196  O.2     1  <O>11      -0.1532
   4 O2        3.3259    -8.7960    -3.0330  O.2     1  <O>11      -0.1532
   5 C1        1.4620   -10.1610    -4.6040  C.ar    1  <O>11       0.1272
   6 C2        0.5200    -9.6970    -3.6820  C.ar    1  <O>11      -0.0335
   7 C3       -0.8270   -10.0400    -3.8390  C.ar    1  <O>11      -0.0598
   8 C4       -1.2300   -10.8390    -4.9120  C.ar    1  <O>11      -0.0599
   9 C5       -0.2760   -11.2910    -5.8300  C.ar    1  <O>11      -0.0374
  10 C6        1.0700   -10.9530    -5.6840  C.ar    1  <O>11       0.0743
  11 N2        2.0520   -11.4120    -6.6340  N.pl3   1  <O>11      -0.2142
  12 S2        1.5880   -12.3490    -7.9130  S.O2    1  <O>11       0.0781
  13 O3        0.4900   -11.5160    -8.8410  O.2     1  <O>11      -0.1498
  14 O4        0.8890   -13.7480    -7.3500  O.2     1  <O>11      -0.1498
  15 C7        3.0050   -12.7520    -8.8940  C.ar    1  <O>11       0.1843
  16 C8        2.8736   -12.9626   -10.2776  C.ar    1  <O>11       0.1907
  17 F1        1.6415   -12.8455   -10.8683  F       1  <O>11      -0.2002
  18 C9        3.9920   -13.2918   -11.0499  C.ar    1  <O>11       0.1983
  19 F2        3.8511   -13.4992   -12.3977  F       1  <O>11      -0.1993
  20 C10       5.2500   -13.4106   -10.4519  C.ar    1  <O>11       0.1992
  21 F3        6.3481   -13.7369   -11.2048  F       1  <O>11      -0.1993
  22 C11       5.3814   -13.1939    -9.0768  C.ar    1  <O>11       0.1983
  23 F4        6.6180   -13.3112    -8.4954  F       1  <O>11      -0.1993
  24 C12       4.2720   -12.8631    -8.2965  C.ar    1  <O>11       0.1907
  25 F5        4.4019   -12.6426    -6.9505  F       1  <O>11      -0.2002
  26 H1        3.1320    -8.0472    -5.8175  H       1  <O>11       0.1442
  27 H2        3.5805    -9.4763    -6.5461  H       1  <O>11       0.1442
  28 H3        3.0330   -11.1590    -6.5170  H       1  <O>11       0.1737
  29 H4        0.8162    -9.1050    -2.8903  H       1  <O>11       0.0638
  30 H5       -1.5260    -9.7015    -3.1594  H       1  <O>11       0.0618
  31 H6       -2.2235   -11.0937    -5.0264  H       1  <O>11       0.0618
  32 H7       -0.5709   -11.8808    -6.6238  H       1  <O>11       0.0637
@<TRIPOS>BOND
     1     1     2    1
     2     2     3    2
     3     2     4    2
     4     2     5    1
     5     5     6   ar
     6     6     7   ar
     7     7     8   ar
     8     8     9   ar
     9     9    10   ar
    10     5    10   ar
    11    10    11    1
    12    11    12    1
    13    12    13    2
    14    12    14    2
    15    12    15    1
    16    15    16   ar
    17    16    17    1
    18    16    18   ar
    19    18    19    1
    20    18    20   ar
    21    20    21    1
    22    20    22   ar
    23    22    23    1
    24    22    24   ar
    25    15    24   ar
    26    24    25    1
    27     1    26    1
    28     1    27    1
    29    11    28    1
    30     6    29    1
    31     7    30    1
    32     8    31    1
    33     9    32    1
@<TRIPOS>MOLECULE
mol26_2_13
 32 33 0 0 0
SMALL
USER_CHARGES
****
VDW energy = -151.82
@<TRIPOS>ATOM
   1 N1        3.6845    -8.8982    -5.7123  N.3     1  <O>11      -0.2035
   2 S1        3.1567    -9.7375    -4.3909  S.O2    1  <O>11       0.0578
   3 O1        4.0563   -11.1232    -4.2196  O.2     1  <O>11      -0.1532
   4 O2        3.3259    -8.7960    -3.0330  O.2     1  <O>11      -0.1532
   5 C1        1.4620   -10.1610    -4.6040  C.ar    1  <O>11       0.1272
   6 C2        1.0887   -11.5076    -4.6064  C.ar    1  <O>11      -0.0335
   7 C3       -0.2551   -11.8514    -4.7873  C.ar    1  <O>11      -0.0598
   8 C4       -1.2196   -10.8556    -4.9617  C.ar    1  <O>11      -0.0599
   9 C5       -0.8312    -9.5117    -4.9511  C.ar    1  <O>11      -0.0374
  10 C6        0.5063    -9.1577    -4.7693  C.ar    1  <O>11       0.0743
  11 N2        0.9057    -7.7729    -4.7504  N.pl3   1  <O>11      -0.2142
  12 S2       -0.2256    -6.5849    -4.9453  S.O2    1  <O>11       0.0781
  13 O3        0.5142    -5.0986    -4.8794  O.2     1  <O>11      -0.1498
  14 O4       -1.3580    -6.6942    -3.7335  O.2     1  <O>11      -0.1498
  15 C7       -1.0213    -6.7795    -6.5143  C.ar    1  <O>11       0.1843
  16 C8       -0.2710    -6.7269    -7.7018  C.ar    1  <O>11       0.1907
  17 F1        1.0852    -6.5326    -7.6402  F       1  <O>11      -0.2002
  18 C9       -0.9023    -6.8698    -8.9415  C.ar    1  <O>11       0.1983
  19 F2       -0.1610    -6.8123   -10.0932  F       1  <O>11      -0.1993
  20 C10      -2.2842    -7.0694    -9.0086  C.ar    1  <O>11       0.1992
  21 F3       -2.9075    -7.2060   -10.2220  F       1  <O>11      -0.1993
  22 C11      -3.0291    -7.1290    -7.8268  C.ar    1  <O>11       0.1983
  23 F4       -4.3845    -7.3257    -7.8984  F       1  <O>11      -0.1993
  24 C12      -2.4091    -6.9893    -6.5837  C.ar    1  <O>11       0.1907
  25 F5       -3.1374    -7.0559    -5.4252  F       1  <O>11      -0.2002
  26 H1        3.1320    -8.0472    -5.8175  H       1  <O>11       0.1442
  27 H2        3.5805    -9.4763    -6.5461  H       1  <O>11       0.1442
  28 H3        1.8862    -7.5260    -4.6171  H       1  <O>11       0.1737
  29 H4        1.7999   -12.2439    -4.4756  H       1  <O>11       0.0638
  30 H5       -0.5352   -12.8446    -4.7921  H       1  <O>11       0.0618
  31 H6       -2.2106   -11.1096    -5.0973  H       1  <O>11       0.0618
  32 H7       -1.5415    -8.7741    -5.0791  H       1  <O>11       0.0637
@<TRIPOS>BOND
     1     1     2    1
     2     2     3    2
     3     2     4    2
     4     2     5    1
     5     5     6   ar
     6     6     7   ar
     7     7     8   ar
     8     8     9   ar
     9     9    10   ar
    10     5    10   ar
    11    10    11    1
    12    11    12    1
    13    12    13    2
    14    12    14    2
    15    12    15    1
    16    15    16   ar
    17    16    17    1
    18    16    18   ar
    19    18    19    1
    20    18    20   ar
    21    20    21    1
    22    20    22   ar
    23    22    23    1
    24    22    24   ar
    25    15    24   ar
    26    24    25    1
    27     1    26    1
    28     1    27    1
    29    11    28    1
    30     6    29    1
    31     7    30    1
    32     8    31    1
    33     9    32    1
@<TRIPOS>MOLECULE
mol26_2_14
 32 33 0 0 0
SMALL
USER_CHARGES
****
VDW energy = -151.57
@<TRIPOS>ATOM
   1 N1        3.6845    -8.8982    -5.7123  N.3     1  <O>11      -0.2035
   2 S1        3.1567    -9.7375    -4.3909  S.O2    1  <O>11       0.0578
   3 O1        4.0563   -11.1232    -4.2196  O.2     1  <O>11      -0.1532
   4 O2        3.3259    -8.7960    -3.0330  O.2     1  <O>11      -0.1532
   5 C1        1.4620   -10.1610    -4.6040  C.ar    1  <O>11       0.1272
   6 C2        0.5200    -9.6970    -3.6820  C.ar    1  <O>11      -0.0335
   7 C3       -0.8270   -10.0400    -3.8390  C.ar    1  <O>11      -0.0598
   8 C4       -1.2300   -10.8390    -4.9120  C.ar    1  <O>11      -0.0599
   9 C5       -0.2760   -11.2910    -5.8300  C.ar    1  <O>11      -0.0374
  10 C6        1.0700   -10.9530    -5.6840  C.ar    1  <O>11       0.0743
  11 N2        2.0520   -11.4120    -6.6340  N.pl3   1  <O>11      -0.2142
  12 S2        1.5880   -12.3490    -7.9130  S.O2    1  <O>11       0.0781
  13 O3        0.4894   -11.5163    -8.8406  O.2     1  <O>11      -0.1498
  14 O4        0.8897   -13.7483    -7.3500  O.2     1  <O>11      -0.1498
  15 C7        3.0049   -12.7513    -8.8945  C.ar    1  <O>11       0.1843
  16 C8        4.0801   -13.4604    -8.3313  C.ar    1  <O>11       0.1907
  17 F1        4.0236   -13.8486    -7.0172  F       1  <O>11      -0.2002
  18 C9        5.2039   -13.7681    -9.1047  C.ar    1  <O>11       0.1983
  19 F2        6.2483   -14.4563    -8.5436  F       1  <O>11      -0.1993
  20 C10       5.2647   -13.3756   -10.4450  C.ar    1  <O>11       0.1992
  21 F3        6.3662   -13.6719   -11.2054  F       1  <O>11      -0.1993
  22 C11       4.1919   -12.6766   -11.0067  C.ar    1  <O>11       0.1983
  23 F4        4.2566   -12.2945   -12.3222  F       1  <O>11      -0.1993
  24 C12       3.0644   -12.3656   -10.2444  C.ar    1  <O>11       0.1907
  25 F5        2.0094   -11.6880   -10.7968  F       1  <O>11      -0.2002
  26 H1        3.1320    -8.0472    -5.8175  H       1  <O>11       0.1442
  27 H2        3.5805    -9.4763    -6.5461  H       1  <O>11       0.1442
  28 H3        3.0330   -11.1590    -6.5170  H       1  <O>11       0.1737
  29 H4        0.8162    -9.1050    -2.8903  H       1  <O>11       0.0638
  30 H5       -1.5260    -9.7015    -3.1594  H       1  <O>11       0.0618
  31 H6       -2.2235   -11.0937    -5.0264  H       1  <O>11       0.0618
  32 H7       -0.5709   -11.8808    -6.6238  H       1  <O>11       0.0637
@<TRIPOS>BOND
     1     1     2    1
     2     2     3    2
     3     2     4    2
     4     2     5    1
     5     5     6   ar
     6     6     7   ar
     7     7     8   ar
     8     8     9   ar
     9     9    10   ar
    10     5    10   ar
    11    10    11    1
    12    11    12    1
    13    12    13    2
    14    12    14    2
    15    12    15    1
    16    15    16   ar
    17    16    17    1
    18    16    18   ar
    19    18    19    1
    20    18    20   ar
    21    20    21    1
    22    20    22   ar
    23    22    23    1
    24    22    24   ar
    25    15    24   ar
    26    24    25    1
    27     1    26    1
    28     1    27    1
    29    11    28    1
    30     6    29    1
    31     7    30    1
    32     8    31    1
    33     9    32    1
@<TRIPOS>MOLECULE
mol26_2_15
 32 33 0 0 0
SMALL
USER_CHARGES
****
VDW energy = -151.33
@<TRIPOS>ATOM
   1 N1        3.6845    -8.8982    -5.7123  N.3     1  <O>11      -0.2035
   2 S1        3.1567    -9.7375    -4.3909  S.O2    1  <O>11       0.0578
   3 O1        4.0563   -11.1232    -4.2196  O.2     1  <O>11      -0.1532
   4 O2        3.3259    -8.7960    -3.0330  O.2     1  <O>11      -0.1532
   5 C1        1.4620   -10.1610    -4.6040  C.ar    1  <O>11       0.1272
   6 C2        0.5200    -9.6970    -3.6820  C.ar    1  <O>11      -0.0335
   7 C3       -0.8270   -10.0400    -3.8390  C.ar    1  <O>11      -0.0598
   8 C4       -1.2300   -10.8390    -4.9120  C.ar    1  <O>11      -0.0599
   9 C5       -0.2760   -11.2910    -5.8300  C.ar    1  <O>11      -0.0374
  10 C6        1.0700   -10.9530    -5.6840  C.ar    1  <O>11       0.0743
  11 N2        2.0520   -11.4120    -6.6340  N.pl3   1  <O>11      -0.2142
  12 S2        1.5880   -12.3490    -7.9130  S.O2    1  <O>11       0.0781
  13 O3        0.8898   -13.7480    -7.3509  O.2     1  <O>11      -0.1498
  14 O4        2.9186   -12.7258    -8.8352  O.2     1  <O>11      -0.1498
  15 C7        0.4186   -11.4611    -8.9014  C.ar    1  <O>11       0.1843
  16 C8        0.7746   -10.2370    -9.4936  C.ar    1  <O>11       0.1907
  17 F1        2.0377    -9.7356    -9.3099  F       1  <O>11      -0.2002
  18 C9       -0.1537    -9.5309   -10.2653  C.ar    1  <O>11       0.1983
  19 F2        0.2032    -8.3359   -10.8343  F       1  <O>11      -0.1993
  20 C10      -1.4419   -10.0392   -10.4562  C.ar    1  <O>11       0.1992
  21 F3       -2.3560    -9.3482   -11.2087  F       1  <O>11      -0.1993
  22 C11      -1.7932   -11.2604    -9.8729  C.ar    1  <O>11       0.1983
  23 F4       -3.0581   -11.7548   -10.0640  F       1  <O>11      -0.1993
  24 C12      -0.8740   -11.9746    -9.1021  C.ar    1  <O>11       0.1907
  25 F5       -1.2153   -13.1753    -8.5373  F       1  <O>11      -0.2002
  26 H1        3.1320    -8.0472    -5.8175  H       1  <O>11       0.1442
  27 H2        3.5805    -9.4763    -6.5461  H       1  <O>11       0.1442
  28 H3        3.0330   -11.1590    -6.5170  H       1  <O>11       0.1737
  29 H4        0.8162    -9.1050    -2.8903  H       1  <O>11       0.0638
  30 H5       -1.5260    -9.7015    -3.1594  H       1  <O>11       0.0618
  31 H6       -2.2235   -11.0937    -5.0264  H       1  <O>11       0.0618
  32 H7       -0.5709   -11.8808    -6.6238  H       1  <O>11       0.0637
@<TRIPOS>BOND
     1     1     2    1
     2     2     3    2
     3     2     4    2
     4     2     5    1
     5     5     6   ar
     6     6     7   ar
     7     7     8   ar
     8     8     9   ar
     9     9    10   ar
    10     5    10   ar
    11    10    11    1
    12    11    12    1
    13    12    13    2
    14    12    14    2
    15    12    15    1
    16    15    16   ar
    17    16    17    1
    18    16    18   ar
    19    18    19    1
    20    18    20   ar
    21    20    21    1
    22    20    22   ar
    23    22    23    1
    24    22    24   ar
    25    15    24   ar
    26    24    25    1
    27     1    26    1
    28     1    27    1
    29    11    28    1
    30     6    29    1
    31     7    30    1
    32     8    31    1
    33     9    32    1
@<TRIPOS>MOLECULE
mol26_2_16
 32 33 0 0 0
SMALL
USER_CHARGES
****
VDW energy = -149.67
@<TRIPOS>ATOM
   1 N1        3.6845    -8.8982    -5.7123  N.3     1  <O>11      -0.2035
   2 S1        3.1567    -9.7375    -4.3909  S.O2    1  <O>11       0.0578
   3 O1        4.0563   -11.1232    -4.2196  O.2     1  <O>11      -0.1532
   4 O2        3.3259    -8.7960    -3.0330  O.2     1  <O>11      -0.1532
   5 C1        1.4620   -10.1610    -4.6040  C.ar    1  <O>11       0.1272
   6 C2        1.0887   -11.5076    -4.6064  C.ar    1  <O>11      -0.0335
   7 C3       -0.2551   -11.8514    -4.7873  C.ar    1  <O>11      -0.0598
   8 C4       -1.2196   -10.8556    -4.9617  C.ar    1  <O>11      -0.0599
   9 C5       -0.8312    -9.5117    -4.9511  C.ar    1  <O>11      -0.0374
  10 C6        0.5063    -9.1577    -4.7693  C.ar    1  <O>11       0.0743
  11 N2        0.9057    -7.7729    -4.7504  N.pl3   1  <O>11      -0.2142
  12 S2       -0.2256    -6.5849    -4.9453  S.O2    1  <O>11       0.0781
  13 O3       -1.3574    -6.6931    -3.7337  O.2     1  <O>11      -0.1498
  14 O4       -0.9724    -6.7676    -6.4189  O.2     1  <O>11      -0.1498
  15 C7        0.5632    -5.0019    -4.8770  C.ar    1  <O>11       0.1843
  16 C8       -0.1932    -3.8256    -5.0185  C.ar    1  <O>11       0.1907
  17 F1       -1.5498    -3.9083    -5.2012  F       1  <O>11      -0.2002
  18 C9        0.4327    -2.5757    -4.9754  C.ar    1  <O>11       0.1983
  19 F2       -0.3145    -1.4353    -5.1189  F       1  <O>11      -0.1993
  20 C10       1.8151    -2.4869    -4.7878  C.ar    1  <O>11       0.1992
  21 F3        2.4329    -1.2637    -4.7488  F       1  <O>11      -0.1993
  22 C11       2.5660    -3.6570    -4.6398  C.ar    1  <O>11       0.1983
  23 F4        3.9218    -3.5642    -4.4555  F       1  <O>11      -0.1993
  24 C12       1.9514    -4.9100    -4.6795  C.ar    1  <O>11       0.1907
  25 F5        2.6858    -6.0565    -4.5263  F       1  <O>11      -0.2002
  26 H1        3.1320    -8.0472    -5.8175  H       1  <O>11       0.1442
  27 H2        3.5805    -9.4763    -6.5461  H       1  <O>11       0.1442
  28 H3        1.8862    -7.5260    -4.6171  H       1  <O>11       0.1737
  29 H4        1.7999   -12.2439    -4.4756  H       1  <O>11       0.0638
  30 H5       -0.5352   -12.8446    -4.7921  H       1  <O>11       0.0618
  31 H6       -2.2106   -11.1096    -5.0973  H       1  <O>11       0.0618
  32 H7       -1.5415    -8.7741    -5.0791  H       1  <O>11       0.0637
@<TRIPOS>BOND
     1     1     2    1
     2     2     3    2
     3     2     4    2
     4     2     5    1
     5     5     6   ar
     6     6     7   ar
     7     7     8   ar
     8     8     9   ar
     9     9    10   ar
    10     5    10   ar
    11    10    11    1
    12    11    12    1
    13    12    13    2
    14    12    14    2
    15    12    15    1
    16    15    16   ar
    17    16    17    1
    18    16    18   ar
    19    18    19    1
    20    18    20   ar
    21    20    21    1
    22    20    22   ar
    23    22    23    1
    24    22    24   ar
    25    15    24   ar
    26    24    25    1
    27     1    26    1
    28     1    27    1
    29    11    28    1
    30     6    29    1
    31     7    30    1
    32     8    31    1
    33     9    32    1
@<TRIPOS>MOLECULE
mol26_2_17
 32 33 0 0 0
SMALL
USER_CHARGES
****
VDW energy = -149.04
@<TRIPOS>ATOM
   1 N1        3.6845    -8.8982    -5.7123  N.3     1  <O>11      -0.2035
   2 S1        3.1567    -9.7375    -4.3909  S.O2    1  <O>11       0.0578
   3 O1        4.0563   -11.1232    -4.2196  O.2     1  <O>11      -0.1532
   4 O2        3.3259    -8.7960    -3.0330  O.2     1  <O>11      -0.1532
   5 C1        1.4620   -10.1610    -4.6040  C.ar    1  <O>11       0.1272
   6 C2        0.5201    -9.6974    -3.6817  C.ar    1  <O>11      -0.0335
   7 C3       -0.8269   -10.0404    -3.8387  C.ar    1  <O>11      -0.0598
   8 C4       -1.2300   -10.8390    -4.9120  C.ar    1  <O>11      -0.0599
   9 C5       -0.2761   -11.2906    -5.8303  C.ar    1  <O>11      -0.0374
  10 C6        1.0699   -10.9526    -5.6843  C.ar    1  <O>11       0.0743
  11 N2        2.0519   -11.4111    -6.6346  N.pl3   1  <O>11      -0.2142
  12 S2        1.5878   -12.3476    -7.9139  S.O2    1  <O>11       0.0781
  13 O3        0.4896   -11.5143    -8.8415  O.2     1  <O>11      -0.1498
  14 O4        0.8889   -13.7469    -7.3514  O.2     1  <O>11      -0.1498
  15 C7        3.0047   -12.7502    -8.8952  C.ar    1  <O>11       0.1843
  16 C8        2.8678   -13.5440   -10.0472  C.ar    1  <O>11       0.1907
  17 F1        1.6275   -13.9995   -10.4145  F       1  <O>11      -0.2002
  18 C9        3.9896   -13.8705   -10.8157  C.ar    1  <O>11       0.1983
  19 F2        3.8446   -14.6490   -11.9347  F       1  <O>11      -0.1993
  20 C10       5.2554   -13.4070   -10.4456  C.ar    1  <O>11       0.1992
  21 F3        6.3581   -13.7281   -11.1941  F       1  <O>11      -0.1993
  22 C11       5.3901   -12.6114    -9.3037  C.ar    1  <O>11       0.1983
  23 F4        6.6342   -12.1588    -8.9455  F       1  <O>11      -0.1993
  24 C12       4.2768   -12.2778    -8.5301  C.ar    1  <O>11       0.1907
  25 F5        4.4072   -11.4914    -7.4158  F       1  <O>11      -0.2002
  26 H1        3.1320    -8.0472    -5.8175  H       1  <O>11       0.1442
  27 H2        3.5805    -9.4763    -6.5461  H       1  <O>11       0.1442
  28 H3        3.0329   -11.1581    -6.5176  H       1  <O>11       0.1737
  29 H4        0.8163    -9.1057    -2.8898  H       1  <O>11       0.0638
  30 H5       -1.5259    -9.7023    -3.1589  H       1  <O>11       0.0618
  31 H6       -2.2235   -11.0937    -5.0264  H       1  <O>11       0.0618
  32 H7       -0.5710   -11.8801    -6.6243  H       1  <O>11       0.0637
@<TRIPOS>BOND
     1     1     2    1
     2     2     3    2
     3     2     4    2
     4     2     5    1
     5     5     6   ar
     6     6     7   ar
     7     7     8   ar
     8     8     9   ar
     9     9    10   ar
    10     5    10   ar
    11    10    11    1
    12    11    12    1
    13    12    13    2
    14    12    14    2
    15    12    15    1
    16    15    16   ar
    17    16    17    1
    18    16    18   ar
    19    18    19    1
    20    18    20   ar
    21    20    21    1
    22    20    22   ar
    23    22    23    1
    24    22    24   ar
    25    15    24   ar
    26    24    25    1
    27     1    26    1
    28     1    27    1
    29    11    28    1
    30     6    29    1
    31     7    30    1
    32     8    31    1
    33     9    32    1
@<TRIPOS>MOLECULE
mol26_2_18
 32 33 0 0 0
SMALL
USER_CHARGES
****
VDW energy = -146.61
@<TRIPOS>ATOM
   1 N1        3.6845    -8.8982    -5.7123  N.3     1  <O>11      -0.2035
   2 S1        3.1567    -9.7375    -4.3909  S.O2    1  <O>11       0.0578
   3 O1        4.0563   -11.1232    -4.2196  O.2     1  <O>11      -0.1532
   4 O2        3.3259    -8.7960    -3.0330  O.2     1  <O>11      -0.1532
   5 C1        1.4620   -10.1610    -4.6040  C.ar    1  <O>11       0.1272
   6 C2        0.5200    -9.6970    -3.6820  C.ar    1  <O>11      -0.0335
   7 C3       -0.8270   -10.0400    -3.8390  C.ar    1  <O>11      -0.0598
   8 C4       -1.2300   -10.8390    -4.9120  C.ar    1  <O>11      -0.0599
   9 C5       -0.2760   -11.2910    -5.8300  C.ar    1  <O>11      -0.0374
  10 C6        1.0700   -10.9530    -5.6840  C.ar    1  <O>11       0.0743
  11 N2        2.0520   -11.4120    -6.6340  N.pl3   1  <O>11      -0.2142
  12 S2        1.5880   -12.3490    -7.9130  S.O2    1  <O>11       0.0781
  13 O3        2.9177   -12.7261    -8.8352  O.2     1  <O>11      -0.1498
  14 O4        0.4890   -11.5155    -8.8404  O.2     1  <O>11      -0.1498
  15 C7        0.8433   -13.8386    -7.3137  C.ar    1  <O>11       0.1843
  16 C8        0.3633   -14.8045    -8.2152  C.ar    1  <O>11       0.1907
  17 F1        0.4825   -14.5923    -9.5649  F       1  <O>11      -0.2002
  18 C9       -0.2349   -15.9761    -7.7406  C.ar    1  <O>11       0.1983
  19 F2       -0.7033   -16.9091    -8.6292  F       1  <O>11      -0.1993
  20 C10      -0.3569   -16.1969    -6.3657  C.ar    1  <O>11       0.1992
  21 F3       -0.9461   -17.3423    -5.8964  F       1  <O>11      -0.1993
  22 C11       0.1272   -15.2392    -5.4693  C.ar    1  <O>11       0.1983
  23 F4        0.0054   -15.4611    -4.1214  F       1  <O>11      -0.1993
  24 C12       0.7277   -14.0667    -5.9319  C.ar    1  <O>11       0.1907
  25 F5        1.2096   -13.1319    -5.0539  F       1  <O>11      -0.2002
  26 H1        3.1320    -8.0472    -5.8175  H       1  <O>11       0.1442
  27 H2        3.5805    -9.4763    -6.5461  H       1  <O>11       0.1442
  28 H3        3.0330   -11.1590    -6.5170  H       1  <O>11       0.1737
  29 H4        0.8162    -9.1050    -2.8903  H       1  <O>11       0.0638
  30 H5       -1.5260    -9.7015    -3.1594  H       1  <O>11       0.0618
  31 H6       -2.2235   -11.0937    -5.0264  H       1  <O>11       0.0618
  32 H7       -0.5709   -11.8808    -6.6238  H       1  <O>11       0.0637
@<TRIPOS>BOND
     1     1     2    1
     2     2     3    2
     3     2     4    2
     4     2     5    1
     5     5     6   ar
     6     6     7   ar
     7     7     8   ar
     8     8     9   ar
     9     9    10   ar
    10     5    10   ar
    11    10    11    1
    12    11    12    1
    13    12    13    2
    14    12    14    2
    15    12    15    1
    16    15    16   ar
    17    16    17    1
    18    16    18   ar
    19    18    19    1
    20    18    20   ar
    21    20    21    1
    22    20    22   ar
    23    22    23    1
    24    22    24   ar
    25    15    24   ar
    26    24    25    1
    27     1    26    1
    28     1    27    1
    29    11    28    1
    30     6    29    1
    31     7    30    1
    32     8    31    1
    33     9    32    1
@<TRIPOS>MOLECULE
mol26_2_19
 32 33 0 0 0
SMALL
USER_CHARGES
****
VDW energy = -143.40
@<TRIPOS>ATOM
   1 N1        3.6845    -8.8982    -5.7123  N.3     1  <O>11      -0.2035
   2 S1        3.1567    -9.7375    -4.3909  S.O2    1  <O>11       0.0578
   3 O1        4.0563   -11.1232    -4.2196  O.2     1  <O>11      -0.1532
   4 O2        3.3259    -8.7960    -3.0330  O.2     1  <O>11      -0.1532
   5 C1        1.4620   -10.1610    -4.6040  C.ar    1  <O>11       0.1272
   6 C2        0.5200    -9.6970    -3.6820  C.ar    1  <O>11      -0.0335
   7 C3       -0.8270   -10.0400    -3.8390  C.ar    1  <O>11      -0.0598
   8 C4       -1.2300   -10.8390    -4.9120  C.ar    1  <O>11      -0.0599
   9 C5       -0.2760   -11.2910    -5.8300  C.ar    1  <O>11      -0.0374
  10 C6        1.0700   -10.9530    -5.6840  C.ar    1  <O>11       0.0743
  11 N2        2.0520   -11.4120    -6.6340  N.pl3   1  <O>11      -0.2142
  12 S2        1.5880   -12.3490    -7.9130  S.O2    1  <O>11       0.0781
  13 O3        0.8898   -13.7480    -7.3509  O.2     1  <O>11      -0.1498
  14 O4        2.9186   -12.7258    -8.8352  O.2     1  <O>11      -0.1498
  15 C7        0.4186   -11.4611    -8.9014  C.ar    1  <O>11       0.1843
  16 C8       -0.1278   -12.0503   -10.0548  C.ar    1  <O>11       0.1907
  17 F1        0.2424   -13.3227   -10.4079  F       1  <O>11      -0.2002
  18 C9       -1.0434   -11.3436   -10.8411  C.ar    1  <O>11       0.1983
  19 F2       -1.5665   -11.9267   -11.9661  F       1  <O>11      -0.1993
  20 C10      -1.4245   -10.0470   -10.4838  C.ar    1  <O>11       0.1992
  21 F3       -2.3187    -9.3496   -11.2540  F       1  <O>11      -0.1993
  22 C11      -0.8862    -9.4642    -9.3325  C.ar    1  <O>11       0.1983
  23 F4       -1.2640    -8.1921    -8.9862  F       1  <O>11      -0.1993
  24 C12       0.0272   -10.1610    -8.5392  C.ar    1  <O>11       0.1907
  25 F5        0.5486    -9.5933    -7.4065  F       1  <O>11      -0.2002
  26 H1        3.1320    -8.0472    -5.8175  H       1  <O>11       0.1442
  27 H2        3.5805    -9.4763    -6.5461  H       1  <O>11       0.1442
  28 H3        3.0330   -11.1590    -6.5170  H       1  <O>11       0.1737
  29 H4        0.8162    -9.1050    -2.8903  H       1  <O>11       0.0638
  30 H5       -1.5260    -9.7015    -3.1594  H       1  <O>11       0.0618
  31 H6       -2.2235   -11.0937    -5.0264  H       1  <O>11       0.0618
  32 H7       -0.5709   -11.8808    -6.6238  H       1  <O>11       0.0637
@<TRIPOS>BOND
     1     1     2    1
     2     2     3    2
     3     2     4    2
     4     2     5    1
     5     5     6   ar
     6     6     7   ar
     7     7     8   ar
     8     8     9   ar
     9     9    10   ar
    10     5    10   ar
    11    10    11    1
    12    11    12    1
    13    12    13    2
    14    12    14    2
    15    12    15    1
    16    15    16   ar
    17    16    17    1
    18    16    18   ar
    19    18    19    1
    20    18    20   ar
    21    20    21    1
    22    20    22   ar
    23    22    23    1
    24    22    24   ar
    25    15    24   ar
    26    24    25    1
    27     1    26    1
    28     1    27    1
    29    11    28    1
    30     6    29    1
    31     7    30    1
    32     8    31    1
    33     9    32    1
@<TRIPOS>MOLECULE
mol26_2_20
 32 33 0 0 0
SMALL
USER_CHARGES
****
VDW energy = -140.42
@<TRIPOS>ATOM
   1 N1        3.6845    -8.8982    -5.7123  N.3     1  <O>11      -0.2035
   2 S1        3.1567    -9.7375    -4.3909  S.O2    1  <O>11       0.0578
   3 O1        4.0563   -11.1232    -4.2196  O.2     1  <O>11      -0.1532
   4 O2        3.3259    -8.7960    -3.0330  O.2     1  <O>11      -0.1532
   5 C1        1.4620   -10.1610    -4.6040  C.ar    1  <O>11       0.1272
   6 C2        0.8015    -9.7717    -5.7723  C.ar    1  <O>11      -0.0335
   7 C3       -0.5488   -10.0948    -5.9425  C.ar    1  <O>11      -0.0598
   8 C4       -1.2334   -10.8048    -4.9529  C.ar    1  <O>11      -0.0599
   9 C5       -0.5569   -11.1926    -3.7914  C.ar    1  <O>11      -0.0374
  10 C6        0.7906   -10.8773    -3.6123  C.ar    1  <O>11       0.0743
  11 N2        1.4899   -11.2836    -2.4193  N.pl3   1  <O>11      -0.2142
  12 S2        2.2614   -12.7437    -2.3717  S.O2    1  <O>11       0.0781
  13 O3        3.4251   -12.7947    -3.5565  O.2     1  <O>11      -0.1498
  14 O4        1.1588   -13.9613    -2.6254  O.2     1  <O>11      -0.1498
  15 C7        3.0215   -12.9580    -0.7877  C.ar    1  <O>11       0.1843
  16 C8        2.4589   -12.3644     0.3555  C.ar    1  <O>11       0.1907
  17 F1        1.3104   -11.6238     0.2408  F       1  <O>11      -0.2002
  18 C9        3.0665   -12.5254     1.6049  C.ar    1  <O>11       0.1983
  19 F2        2.5112   -11.9382     2.7122  F       1  <O>11      -0.1993
  20 C10       4.2364   -13.2808     1.7264  C.ar    1  <O>11       0.1992
  21 F3        4.8372   -13.4377     2.9486  F       1  <O>11      -0.1993
  22 C11       4.7916   -13.8770     0.5901  C.ar    1  <O>11       0.1983
  23 F4        5.9391   -14.6176     0.7151  F       1  <O>11      -0.1993
  24 C12       4.1926   -13.7245    -0.6618  C.ar    1  <O>11       0.1907
  25 F5        4.7318   -14.3154    -1.7740  F       1  <O>11      -0.2002
  26 H1        3.1320    -8.0472    -5.8175  H       1  <O>11       0.1442
  27 H2        3.5805    -9.4763    -6.5461  H       1  <O>11       0.1442
  28 H3        1.5086   -10.6706    -1.6045  H       1  <O>11       0.1737
  29 H4        1.3067    -9.2491    -6.5049  H       1  <O>11       0.0638
  30 H5       -1.0414    -9.8075    -6.8027  H       1  <O>11       0.0618
  31 H6       -2.2302   -11.0411    -5.0778  H       1  <O>11       0.0618
  32 H7       -1.0599   -11.7176    -3.0591  H       1  <O>11       0.0637
@<TRIPOS>BOND
     1     1     2    1
     2     2     3    2
     3     2     4    2
     4     2     5    1
     5     5     6   ar
     6     6     7   ar
     7     7     8   ar
     8     8     9   ar
     9     9    10   ar
    10     5    10   ar
    11    10    11    1
    12    11    12    1
    13    12    13    2
    14    12    14    2
    15    12    15    1
    16    15    16   ar
    17    16    17    1
    18    16    18   ar
    19    18    19    1
    20    18    20   ar
    21    20    21    1
    22    20    22   ar
    23    22    23    1
    24    22    24   ar
    25    15    24   ar
    26    24    25    1
    27     1    26    1
    28     1    27    1
    29    11    28    1
    30     6    29    1
    31     7    30    1
    32     8    31    1
    33     9    32    1
@<TRIPOS>MOLECULE
mol26_2_21
 32 33 0 0 0
SMALL
USER_CHARGES
****
VDW energy = -140.28
@<TRIPOS>ATOM
   1 N1        3.6845    -8.8982    -5.7123  N.3     1  <O>11      -0.2035
   2 S1        3.1567    -9.7375    -4.3909  S.O2    1  <O>11       0.0578
   3 O1        4.0563   -11.1232    -4.2196  O.2     1  <O>11      -0.1532
   4 O2        3.3259    -8.7960    -3.0330  O.2     1  <O>11      -0.1532
   5 C1        1.4620   -10.1610    -4.6040  C.ar    1  <O>11       0.1272
   6 C2        0.8015    -9.7717    -5.7723  C.ar    1  <O>11      -0.0335
   7 C3       -0.5488   -10.0948    -5.9425  C.ar    1  <O>11      -0.0598
   8 C4       -1.2334   -10.8048    -4.9529  C.ar    1  <O>11      -0.0599
   9 C5       -0.5569   -11.1926    -3.7914  C.ar    1  <O>11      -0.0374
  10 C6        0.7906   -10.8773    -3.6123  C.ar    1  <O>11       0.0743
  11 N2        1.4899   -11.2836    -2.4193  N.pl3   1  <O>11      -0.2142
  12 S2        2.2614   -12.7437    -2.3717  S.O2    1  <O>11       0.0781
  13 O3        3.4251   -12.7947    -3.5565  O.2     1  <O>11      -0.1498
  14 O4        1.1588   -13.9613    -2.6254  O.2     1  <O>11      -0.1498
  15 C7        3.0215   -12.9580    -0.7877  C.ar    1  <O>11       0.1843
  16 C8        4.1936   -13.7235    -0.6609  C.ar    1  <O>11       0.1907
  17 F1        4.7532   -14.2981    -1.7733  F       1  <O>11      -0.2002
  18 C9        4.7873   -13.9014     0.5928  C.ar    1  <O>11       0.1983
  19 F2        5.9278   -14.6536     0.7051  F       1  <O>11      -0.1993
  20 C10       4.2209   -13.3162     1.7290  C.ar    1  <O>11       0.1992
  21 F3        4.7976   -13.4913     2.9603  F       1  <O>11      -0.1993
  22 C11       3.0590   -12.5488     1.6013  C.ar    1  <O>11       0.1983
  23 F4        2.5080   -11.9765     2.7192  F       1  <O>11      -0.1993
  24 C12       2.4590   -12.3632     0.3544  C.ar    1  <O>11       0.1907
  25 F5        1.3252   -11.6046     0.2277  F       1  <O>11      -0.2002
  26 H1        3.1320    -8.0472    -5.8175  H       1  <O>11       0.1442
  27 H2        3.5805    -9.4763    -6.5461  H       1  <O>11       0.1442
  28 H3        1.5086   -10.6706    -1.6045  H       1  <O>11       0.1737
  29 H4        1.3067    -9.2491    -6.5049  H       1  <O>11       0.0638
  30 H5       -1.0414    -9.8075    -6.8027  H       1  <O>11       0.0618
  31 H6       -2.2302   -11.0411    -5.0778  H       1  <O>11       0.0618
  32 H7       -1.0599   -11.7176    -3.0591  H       1  <O>11       0.0637
@<TRIPOS>BOND
     1     1     2    1
     2     2     3    2
     3     2     4    2
     4     2     5    1
     5     5     6   ar
     6     6     7   ar
     7     7     8   ar
     8     8     9   ar
     9     9    10   ar
    10     5    10   ar
    11    10    11    1
    12    11    12    1
    13    12    13    2
    14    12    14    2
    15    12    15    1
    16    15    16   ar
    17    16    17    1
    18    16    18   ar
    19    18    19    1
    20    18    20   ar
    21    20    21    1
    22    20    22   ar
    23    22    23    1
    24    22    24   ar
    25    15    24   ar
    26    24    25    1
    27     1    26    1
    28     1    27    1
    29    11    28    1
    30     6    29    1
    31     7    30    1
    32     8    31    1
    33     9    32    1
@<TRIPOS>MOLECULE
mol26_2_22
 32 33 0 0 0
SMALL
USER_CHARGES
****
VDW energy = -137.93
@<TRIPOS>ATOM
   1 N1        3.6845    -8.8982    -5.7123  N.3     1  <O>11      -0.2035
   2 S1        3.1567    -9.7375    -4.3909  S.O2    1  <O>11       0.0578
   3 O1        4.0563   -11.1232    -4.2196  O.2     1  <O>11      -0.1532
   4 O2        3.3259    -8.7960    -3.0330  O.2     1  <O>11      -0.1532
   5 C1        1.4620   -10.1610    -4.6040  C.ar    1  <O>11       0.1272
   6 C2        0.8015    -9.7717    -5.7723  C.ar    1  <O>11      -0.0335
   7 C3       -0.5488   -10.0948    -5.9425  C.ar    1  <O>11      -0.0598
   8 C4       -1.2334   -10.8048    -4.9529  C.ar    1  <O>11      -0.0599
   9 C5       -0.5569   -11.1926    -3.7914  C.ar    1  <O>11      -0.0374
  10 C6        0.7906   -10.8773    -3.6123  C.ar    1  <O>11       0.0743
  11 N2        1.4899   -11.2836    -2.4193  N.pl3   1  <O>11      -0.2142
  12 S2        2.2614   -12.7437    -2.3717  S.O2    1  <O>11       0.0781
  13 O3        3.4251   -12.7947    -3.5565  O.2     1  <O>11      -0.1498
  14 O4        1.1588   -13.9613    -2.6254  O.2     1  <O>11      -0.1498
  15 C7        3.0215   -12.9580    -0.7877  C.ar    1  <O>11       0.1843
  16 C8        3.9959   -12.0495    -0.3395  C.ar    1  <O>11       0.1907
  17 F1        4.3504   -10.9879    -1.1321  F       1  <O>11      -0.2002
  18 C9        4.6038   -12.2261     0.9076  C.ar    1  <O>11       0.1983
  19 F2        5.5561   -11.3361     1.3325  F       1  <O>11      -0.1993
  20 C10       4.2443   -13.3059     1.7192  C.ar    1  <O>11       0.1992
  21 F3        4.8406   -13.4847     2.9406  F       1  <O>11      -0.1993
  22 C11       3.2698   -14.2053     1.2760  C.ar    1  <O>11       0.1983
  23 F4        2.9204   -15.2627     2.0765  F       1  <O>11      -0.1993
  24 C12       2.6552   -14.0378     0.0337  C.ar    1  <O>11       0.1907
  25 F5        1.6943   -14.9142    -0.3973  F       1  <O>11      -0.2002
  26 H1        3.1320    -8.0472    -5.8175  H       1  <O>11       0.1442
  27 H2        3.5805    -9.4763    -6.5461  H       1  <O>11       0.1442
  28 H3        1.5086   -10.6706    -1.6045  H       1  <O>11       0.1737
  29 H4        1.3067    -9.2491    -6.5049  H       1  <O>11       0.0638
  30 H5       -1.0414    -9.8075    -6.8027  H       1  <O>11       0.0618
  31 H6       -2.2302   -11.0411    -5.0778  H       1  <O>11       0.0618
  32 H7       -1.0599   -11.7176    -3.0591  H       1  <O>11       0.0637
@<TRIPOS>BOND
     1     1     2    1
     2     2     3    2
     3     2     4    2
     4     2     5    1
     5     5     6   ar
     6     6     7   ar
     7     7     8   ar
     8     8     9   ar
     9     9    10   ar
    10     5    10   ar
    11    10    11    1
    12    11    12    1
    13    12    13    2
    14    12    14    2
    15    12    15    1
    16    15    16   ar
    17    16    17    1
    18    16    18   ar
    19    18    19    1
    20    18    20   ar
    21    20    21    1
    22    20    22   ar
    23    22    23    1
    24    22    24   ar
    25    15    24   ar
    26    24    25    1
    27     1    26    1
    28     1    27    1
    29    11    28    1
    30     6    29    1
    31     7    30    1
    32     8    31    1
    33     9    32    1
@<TRIPOS>MOLECULE
mol26_2_23
 32 33 0 0 0
SMALL
USER_CHARGES
****
VDW energy = -135.58
@<TRIPOS>ATOM
   1 N1        3.6845    -8.8982    -5.7123  N.3     1  <O>11      -0.2035
   2 S1        3.1567    -9.7375    -4.3909  S.O2    1  <O>11       0.0578
   3 O1        4.0563   -11.1232    -4.2196  O.2     1  <O>11      -0.1532
   4 O2        3.3259    -8.7960    -3.0330  O.2     1  <O>11      -0.1532
   5 C1        1.4620   -10.1610    -4.6040  C.ar    1  <O>11       0.1272
   6 C2        0.8015    -9.7717    -5.7723  C.ar    1  <O>11      -0.0335
   7 C3       -0.5488   -10.0948    -5.9425  C.ar    1  <O>11      -0.0598
   8 C4       -1.2334   -10.8048    -4.9529  C.ar    1  <O>11      -0.0599
   9 C5       -0.5569   -11.1926    -3.7914  C.ar    1  <O>11      -0.0374
  10 C6        0.7906   -10.8773    -3.6123  C.ar    1  <O>11       0.0743
  11 N2        1.4899   -11.2836    -2.4193  N.pl3   1  <O>11      -0.2142
  12 S2        1.5193   -10.2888    -1.1007  S.O2    1  <O>11       0.0781
  13 O3       -0.0342   -10.0113    -0.5809  O.2     1  <O>11      -0.1498
  14 O4        2.2320    -8.8447    -1.5122  O.2     1  <O>11      -0.1498
  15 C7        2.4480   -11.0555     0.1963  C.ar    1  <O>11       0.1843
  16 C8        2.1390   -10.7914     1.5420  C.ar    1  <O>11       0.1907
  17 F1        1.1065    -9.9421     1.8476  F       1  <O>11      -0.2002
  18 C9        2.8805   -11.3892     2.5660  C.ar    1  <O>11       0.1983
  19 F2        2.5729   -11.1208     3.8746  F       1  <O>11      -0.1993
  20 C10       3.9328   -12.2567     2.2587  C.ar    1  <O>11       0.1992
  21 F3        4.6646   -12.8416     3.2595  F       1  <O>11      -0.1993
  22 C11       4.2351   -12.5247     0.9201  C.ar    1  <O>11       0.1983
  23 F4        5.2681   -13.3770     0.6243  F       1  <O>11      -0.1993
  24 C12       3.5004   -11.9349    -0.1101  C.ar    1  <O>11       0.1907
  25 F5        3.7910   -12.2037    -1.4218  F       1  <O>11      -0.2002
  26 H1        3.1320    -8.0472    -5.8175  H       1  <O>11       0.1442
  27 H2        3.5805    -9.4763    -6.5461  H       1  <O>11       0.1442
  28 H3        1.9668   -12.1846    -2.3887  H       1  <O>11       0.1737
  29 H4        1.3067    -9.2491    -6.5049  H       1  <O>11       0.0638
  30 H5       -1.0414    -9.8075    -6.8027  H       1  <O>11       0.0618
  31 H6       -2.2302   -11.0411    -5.0778  H       1  <O>11       0.0618
  32 H7       -1.0599   -11.7176    -3.0591  H       1  <O>11       0.0637
@<TRIPOS>BOND
     1     1     2    1
     2     2     3    2
     3     2     4    2
     4     2     5    1
     5     5     6   ar
     6     6     7   ar
     7     7     8   ar
     8     8     9   ar
     9     9    10   ar
    10     5    10   ar
    11    10    11    1
    12    11    12    1
    13    12    13    2
    14    12    14    2
    15    12    15    1
    16    15    16   ar
    17    16    17    1
    18    16    18   ar
    19    18    19    1
    20    18    20   ar
    21    20    21    1
    22    20    22   ar
    23    22    23    1
    24    22    24   ar
    25    15    24   ar
    26    24    25    1
    27     1    26    1
    28     1    27    1
    29    11    28    1
    30     6    29    1
    31     7    30    1
    32     8    31    1
    33     9    32    1
@<TRIPOS>MOLECULE
mol26_2_24
 32 33 0 0 0
SMALL
USER_CHARGES
****
VDW energy = -135.55
@<TRIPOS>ATOM
   1 N1        3.6845    -8.8982    -5.7123  N.3     1  <O>11      -0.2035
   2 S1        3.1567    -9.7375    -4.3909  S.O2    1  <O>11       0.0578
   3 O1        4.0563   -11.1232    -4.2196  O.2     1  <O>11      -0.1532
   4 O2        3.3259    -8.7960    -3.0330  O.2     1  <O>11      -0.1532
   5 C1        1.4620   -10.1610    -4.6040  C.ar    1  <O>11       0.1272
   6 C2        0.8015    -9.7717    -5.7723  C.ar    1  <O>11      -0.0335
   7 C3       -0.5488   -10.0948    -5.9425  C.ar    1  <O>11      -0.0598
   8 C4       -1.2334   -10.8048    -4.9529  C.ar    1  <O>11      -0.0599
   9 C5       -0.5569   -11.1926    -3.7914  C.ar    1  <O>11      -0.0374
  10 C6        0.7906   -10.8773    -3.6123  C.ar    1  <O>11       0.0743
  11 N2        1.4899   -11.2836    -2.4193  N.pl3   1  <O>11      -0.2142
  12 S2        2.2614   -12.7437    -2.3717  S.O2    1  <O>11       0.0781
  13 O3        3.4251   -12.7947    -3.5565  O.2     1  <O>11      -0.1498
  14 O4        1.1588   -13.9613    -2.6254  O.2     1  <O>11      -0.1498
  15 C7        3.0215   -12.9580    -0.7877  C.ar    1  <O>11       0.1843
  16 C8        3.7426   -14.1297    -0.4994  C.ar    1  <O>11       0.1907
  17 F1        3.8632   -15.1054    -1.4555  F       1  <O>11      -0.2002
  18 C9        4.3335   -14.3028     0.7563  C.ar    1  <O>11       0.1983
  19 F2        5.0306   -15.4516     1.0276  F       1  <O>11      -0.1993
  20 C10       4.2141   -13.3101     1.7331  C.ar    1  <O>11       0.1992
  21 F3        4.7886   -13.4776     2.9665  F       1  <O>11      -0.1993
  22 C11       3.5029   -12.1416     1.4434  C.ar    1  <O>11       0.1983
  23 F4        3.3894   -11.1706     2.4052  F       1  <O>11      -0.1993
  24 C12       2.9104   -11.9574     0.1927  C.ar    1  <O>11       0.1907
  25 F5        2.2205   -10.8091    -0.0943  F       1  <O>11      -0.2002
  26 H1        3.1320    -8.0472    -5.8175  H       1  <O>11       0.1442
  27 H2        3.5805    -9.4763    -6.5461  H       1  <O>11       0.1442
  28 H3        1.5086   -10.6706    -1.6045  H       1  <O>11       0.1737
  29 H4        1.3067    -9.2491    -6.5049  H       1  <O>11       0.0638
  30 H5       -1.0414    -9.8075    -6.8027  H       1  <O>11       0.0618
  31 H6       -2.2302   -11.0411    -5.0778  H       1  <O>11       0.0618
  32 H7       -1.0599   -11.7176    -3.0591  H       1  <O>11       0.0637
@<TRIPOS>BOND
     1     1     2    1
     2     2     3    2
     3     2     4    2
     4     2     5    1
     5     5     6   ar
     6     6     7   ar
     7     7     8   ar
     8     8     9   ar
     9     9    10   ar
    10     5    10   ar
    11    10    11    1
    12    11    12    1
    13    12    13    2
    14    12    14    2
    15    12    15    1
    16    15    16   ar
    17    16    17    1
    18    16    18   ar
    19    18    19    1
    20    18    20   ar
    21    20    21    1
    22    20    22   ar
    23    22    23    1
    24    22    24   ar
    25    15    24   ar
    26    24    25    1
    27     1    26    1
    28     1    27    1
    29    11    28    1
    30     6    29    1
    31     7    30    1
    32     8    31    1
    33     9    32    1
@<TRIPOS>MOLECULE
mol26_2_25
 32 33 0 0 0
SMALL
USER_CHARGES
****
VDW energy = -131.84
@<TRIPOS>ATOM
   1 N1        3.6845    -8.8982    -5.7123  N.3     1  <O>11      -0.2035
   2 S1        3.1567    -9.7375    -4.3909  S.O2    1  <O>11       0.0578
   3 O1        4.0563   -11.1232    -4.2196  O.2     1  <O>11      -0.1532
   4 O2        3.3259    -8.7960    -3.0330  O.2     1  <O>11      -0.1532
   5 C1        1.4620   -10.1610    -4.6040  C.ar    1  <O>11       0.1272
   6 C2        0.8015    -9.7717    -5.7723  C.ar    1  <O>11      -0.0335
   7 C3       -0.5488   -10.0948    -5.9425  C.ar    1  <O>11      -0.0598
   8 C4       -1.2334   -10.8048    -4.9529  C.ar    1  <O>11      -0.0599
   9 C5       -0.5569   -11.1926    -3.7914  C.ar    1  <O>11      -0.0374
  10 C6        0.7906   -10.8773    -3.6123  C.ar    1  <O>11       0.0743
  11 N2        1.4899   -11.2836    -2.4193  N.pl3   1  <O>11      -0.2142
  12 S2        1.5193   -10.2888    -1.1007  S.O2    1  <O>11       0.0781
  13 O3       -0.0342   -10.0113    -0.5809  O.2     1  <O>11      -0.1498
  14 O4        2.2320    -8.8447    -1.5122  O.2     1  <O>11      -0.1498
  15 C7        2.4480   -11.0555     0.1963  C.ar    1  <O>11       0.1843
  16 C8        2.6185   -10.4017     1.4290  C.ar    1  <O>11       0.1907
  17 F1        2.0535    -9.1679     1.6272  F       1  <O>11      -0.2002
  18 C9        3.3617   -11.0037     2.4493  C.ar    1  <O>11       0.1983
  19 F2        3.5250   -10.3547     3.6458  F       1  <O>11      -0.1993
  20 C10       3.9380   -12.2619     2.2519  C.ar    1  <O>11       0.1992
  21 F3        4.6705   -12.8536     3.2482  F       1  <O>11      -0.1993
  22 C11       3.7621   -12.9149     1.0282  C.ar    1  <O>11       0.1983
  23 F4        4.3291   -14.1494     0.8400  F       1  <O>11      -0.1993
  24 C12       3.0206   -12.3242     0.0032  C.ar    1  <O>11       0.1907
  25 F5        2.8411   -12.9675    -1.1930  F       1  <O>11      -0.2002
  26 H1        3.1320    -8.0472    -5.8175  H       1  <O>11       0.1442
  27 H2        3.5805    -9.4763    -6.5461  H       1  <O>11       0.1442
  28 H3        1.9668   -12.1846    -2.3887  H       1  <O>11       0.1737
  29 H4        1.3067    -9.2491    -6.5049  H       1  <O>11       0.0638
  30 H5       -1.0414    -9.8075    -6.8027  H       1  <O>11       0.0618
  31 H6       -2.2302   -11.0411    -5.0778  H       1  <O>11       0.0618
  32 H7       -1.0599   -11.7176    -3.0591  H       1  <O>11       0.0637
@<TRIPOS>BOND
     1     1     2    1
     2     2     3    2
     3     2     4    2
     4     2     5    1
     5     5     6   ar
     6     6     7   ar
     7     7     8   ar
     8     8     9   ar
     9     9    10   ar
    10     5    10   ar
    11    10    11    1
    12    11    12    1
    13    12    13    2
    14    12    14    2
    15    12    15    1
    16    15    16   ar
    17    16    17    1
    18    16    18   ar
    19    18    19    1
    20    18    20   ar
    21    20    21    1
    22    20    22   ar
    23    22    23    1
    24    22    24   ar
    25    15    24   ar
    26    24    25    1
    27     1    26    1
    28     1    27    1
    29    11    28    1
    30     6    29    1
    31     7    30    1
    32     8    31    1
    33     9    32    1
@<TRIPOS>MOLECULE
mol26_2_26
 32 33 0 0 0
SMALL
USER_CHARGES
****
VDW energy = -129.40
@<TRIPOS>ATOM
   1 N1        3.6845    -8.8982    -5.7123  N.3     1  <O>11      -0.2035
   2 S1        3.1567    -9.7375    -4.3909  S.O2    1  <O>11       0.0578
   3 O1        4.0563   -11.1232    -4.2196  O.2     1  <O>11      -0.1532
   4 O2        3.3259    -8.7960    -3.0330  O.2     1  <O>11      -0.1532
   5 C1        1.4620   -10.1610    -4.6040  C.ar    1  <O>11       0.1272
   6 C2        1.0887   -11.5076    -4.6064  C.ar    1  <O>11      -0.0335
   7 C3       -0.2551   -11.8514    -4.7873  C.ar    1  <O>11      -0.0598
   8 C4       -1.2196   -10.8556    -4.9617  C.ar    1  <O>11      -0.0599
   9 C5       -0.8312    -9.5117    -4.9511  C.ar    1  <O>11      -0.0374
  10 C6        0.5063    -9.1577    -4.7693  C.ar    1  <O>11       0.0743
  11 N2        0.9057    -7.7729    -4.7504  N.pl3   1  <O>11      -0.2142
  12 S2        0.9309    -6.9406    -3.3236  S.O2    1  <O>11       0.0781
  13 O3        1.9845    -7.6770    -2.2708  O.2     1  <O>11      -0.1498
  14 O4       -0.5942    -6.9280    -2.6627  O.2     1  <O>11      -0.1498
  15 C7        1.4582    -5.2772    -3.6199  C.ar    1  <O>11       0.1843
  16 C8        1.1872    -4.6556    -4.8512  C.ar    1  <O>11       0.1907
  17 F1        0.5027    -5.3411    -5.8219  F       1  <O>11      -0.2002
  18 C9        1.6140    -3.3451    -5.0883  C.ar    1  <O>11       0.1983
  19 F2        1.3478    -2.7505    -6.2945  F       1  <O>11      -0.1993
  20 C10       2.3106    -2.6423    -4.1009  C.ar    1  <O>11       0.1992
  21 F3        2.7340    -1.3589    -4.3308  F       1  <O>11      -0.1993
  22 C11       2.5737    -3.2585    -2.8737  C.ar    1  <O>11       0.1983
  23 F4        3.2569    -2.5643    -1.9083  F       1  <O>11      -0.1993
  24 C12       2.1508    -4.5658    -2.6255  C.ar    1  <O>11       0.1907
  25 F5        2.4011    -5.1669    -1.4201  F       1  <O>11      -0.2002
  26 H1        3.1320    -8.0472    -5.8175  H       1  <O>11       0.1442
  27 H2        3.5805    -9.4763    -6.5461  H       1  <O>11       0.1442
  28 H3        1.1725    -7.3065    -5.6172  H       1  <O>11       0.1737
  29 H4        1.7999   -12.2439    -4.4756  H       1  <O>11       0.0638
  30 H5       -0.5352   -12.8446    -4.7921  H       1  <O>11       0.0618
  31 H6       -2.2106   -11.1096    -5.0973  H       1  <O>11       0.0618
  32 H7       -1.5415    -8.7741    -5.0791  H       1  <O>11       0.0637
@<TRIPOS>BOND
     1     1     2    1
     2     2     3    2
     3     2     4    2
     4     2     5    1
     5     5     6   ar
     6     6     7   ar
     7     7     8   ar
     8     8     9   ar
     9     9    10   ar
    10     5    10   ar
    11    10    11    1
    12    11    12    1
    13    12    13    2
    14    12    14    2
    15    12    15    1
    16    15    16   ar
    17    16    17    1
    18    16    18   ar
    19    18    19    1
    20    18    20   ar
    21    20    21    1
    22    20    22   ar
    23    22    23    1
    24    22    24   ar
    25    15    24   ar
    26    24    25    1
    27     1    26    1
    28     1    27    1
    29    11    28    1
    30     6    29    1
    31     7    30    1
    32     8    31    1
    33     9    32    1
@<TRIPOS>MOLECULE
mol26_2_27
 32 33 0 0 0
SMALL
USER_CHARGES
****
VDW energy = -129.29
@<TRIPOS>ATOM
   1 N1        3.6845    -8.8982    -5.7123  N.3     1  <O>11      -0.2035
   2 S1        3.1567    -9.7375    -4.3909  S.O2    1  <O>11       0.0578
   3 O1        4.0563   -11.1232    -4.2196  O.2     1  <O>11      -0.1532
   4 O2        3.3259    -8.7960    -3.0330  O.2     1  <O>11      -0.1532
   5 C1        1.4620   -10.1610    -4.6040  C.ar    1  <O>11       0.1272
   6 C2        1.0887   -11.5076    -4.6064  C.ar    1  <O>11      -0.0335
   7 C3       -0.2551   -11.8514    -4.7873  C.ar    1  <O>11      -0.0598
   8 C4       -1.2196   -10.8556    -4.9617  C.ar    1  <O>11      -0.0599
   9 C5       -0.8312    -9.5117    -4.9511  C.ar    1  <O>11      -0.0374
  10 C6        0.5063    -9.1577    -4.7693  C.ar    1  <O>11       0.0743
  11 N2        0.9057    -7.7729    -4.7504  N.pl3   1  <O>11      -0.2142
  12 S2        0.9309    -6.9406    -3.3236  S.O2    1  <O>11       0.0781
  13 O3        1.9845    -7.6770    -2.2708  O.2     1  <O>11      -0.1498
  14 O4       -0.5942    -6.9280    -2.6627  O.2     1  <O>11      -0.1498
  15 C7        1.4582    -5.2772    -3.6199  C.ar    1  <O>11       0.1843
  16 C8        2.1521    -4.5651    -2.6262  C.ar    1  <O>11       0.1907
  17 F1        2.4280    -5.1684    -1.4259  F       1  <O>11      -0.2002
  18 C9        2.5587    -3.2471    -2.8574  C.ar    1  <O>11       0.1983
  19 F2        3.2309    -2.5610    -1.8794  F       1  <O>11      -0.1993
  20 C10       2.2807    -2.6291    -4.0801  C.ar    1  <O>11       0.1992
  21 F3        2.6741    -1.3360    -4.3092  F       1  <O>11      -0.1993
  22 C11       1.5969    -3.3403    -5.0709  C.ar    1  <O>11       0.1983
  23 F4        1.3274    -2.7294    -6.2688  F       1  <O>11      -0.1993
  24 C12       1.1878    -4.6570    -4.8516  C.ar    1  <O>11       0.1907
  25 F5        0.5251    -5.3570    -5.8252  F       1  <O>11      -0.2002
  26 H1        3.1320    -8.0472    -5.8175  H       1  <O>11       0.1442
  27 H2        3.5805    -9.4763    -6.5461  H       1  <O>11       0.1442
  28 H3        1.1725    -7.3065    -5.6172  H       1  <O>11       0.1737
  29 H4        1.7999   -12.2439    -4.4756  H       1  <O>11       0.0638
  30 H5       -0.5352   -12.8446    -4.7921  H       1  <O>11       0.0618
  31 H6       -2.2106   -11.1096    -5.0973  H       1  <O>11       0.0618
  32 H7       -1.5415    -8.7741    -5.0791  H       1  <O>11       0.0637
@<TRIPOS>BOND
     1     1     2    1
     2     2     3    2
     3     2     4    2
     4     2     5    1
     5     5     6   ar
     6     6     7   ar
     7     7     8   ar
     8     8     9   ar
     9     9    10   ar
    10     5    10   ar
    11    10    11    1
    12    11    12    1
    13    12    13    2
    14    12    14    2
    15    12    15    1
    16    15    16   ar
    17    16    17    1
    18    16    18   ar
    19    18    19    1
    20    18    20   ar
    21    20    21    1
    22    20    22   ar
    23    22    23    1
    24    22    24   ar
    25    15    24   ar
    26    24    25    1
    27     1    26    1
    28     1    27    1
    29    11    28    1
    30     6    29    1
    31     7    30    1
    32     8    31    1
    33     9    32    1
@<TRIPOS>MOLECULE
mol26_2_28
 32 33 0 0 0
SMALL
USER_CHARGES
****
VDW energy = -128.65
@<TRIPOS>ATOM
   1 N1        3.6845    -8.8982    -5.7123  N.3     1  <O>11      -0.2035
   2 S1        3.1567    -9.7375    -4.3909  S.O2    1  <O>11       0.0578
   3 O1        4.0563   -11.1232    -4.2196  O.2     1  <O>11      -0.1532
   4 O2        3.3259    -8.7960    -3.0330  O.2     1  <O>11      -0.1532
   5 C1        1.4620   -10.1610    -4.6040  C.ar    1  <O>11       0.1272
   6 C2        1.0887   -11.5076    -4.6064  C.ar    1  <O>11      -0.0335
   7 C3       -0.2551   -11.8514    -4.7873  C.ar    1  <O>11      -0.0598
   8 C4       -1.2196   -10.8556    -4.9617  C.ar    1  <O>11      -0.0599
   9 C5       -0.8312    -9.5117    -4.9511  C.ar    1  <O>11      -0.0374
  10 C6        0.5063    -9.1577    -4.7693  C.ar    1  <O>11       0.0743
  11 N2        0.9057    -7.7729    -4.7504  N.pl3   1  <O>11      -0.2142
  12 S2        0.9309    -6.9406    -3.3236  S.O2    1  <O>11       0.0781
  13 O3        1.9845    -7.6770    -2.2708  O.2     1  <O>11      -0.1498
  14 O4       -0.5942    -6.9280    -2.6627  O.2     1  <O>11      -0.1498
  15 C7        1.4582    -5.2772    -3.6199  C.ar    1  <O>11       0.1843
  16 C8        2.7227    -5.0226    -4.1786  C.ar    1  <O>11       0.1907
  17 F1        3.5455    -6.0708    -4.5028  F       1  <O>11      -0.2002
  18 C9        3.1428    -3.7075    -4.4022  C.ar    1  <O>11       0.1983
  19 F2        4.3798    -3.4711    -4.9435  F       1  <O>11      -0.1993
  20 C10       2.3065    -2.6363    -4.0745  C.ar    1  <O>11       0.1992
  21 F3        2.7161    -1.3457    -4.2884  F       1  <O>11      -0.1993
  22 C11       1.0460    -2.8903    -3.5254  C.ar    1  <O>11       0.1983
  23 F4        0.2293    -1.8357    -3.2064  F       1  <O>11      -0.1993
  24 C12       0.6157    -4.1992    -3.2996  C.ar    1  <O>11       0.1907
  25 F5       -0.6228    -4.4487    -2.7694  F       1  <O>11      -0.2002
  26 H1        3.1320    -8.0472    -5.8175  H       1  <O>11       0.1442
  27 H2        3.5805    -9.4763    -6.5461  H       1  <O>11       0.1442
  28 H3        1.1725    -7.3065    -5.6172  H       1  <O>11       0.1737
  29 H4        1.7999   -12.2439    -4.4756  H       1  <O>11       0.0638
  30 H5       -0.5352   -12.8446    -4.7921  H       1  <O>11       0.0618
  31 H6       -2.2106   -11.1096    -5.0973  H       1  <O>11       0.0618
  32 H7       -1.5415    -8.7741    -5.0791  H       1  <O>11       0.0637
@<TRIPOS>BOND
     1     1     2    1
     2     2     3    2
     3     2     4    2
     4     2     5    1
     5     5     6   ar
     6     6     7   ar
     7     7     8   ar
     8     8     9   ar
     9     9    10   ar
    10     5    10   ar
    11    10    11    1
    12    11    12    1
    13    12    13    2
    14    12    14    2
    15    12    15    1
    16    15    16   ar
    17    16    17    1
    18    16    18   ar
    19    18    19    1
    20    18    20   ar
    21    20    21    1
    22    20    22   ar
    23    22    23    1
    24    22    24   ar
    25    15    24   ar
    26    24    25    1
    27     1    26    1
    28     1    27    1
    29    11    28    1
    30     6    29    1
    31     7    30    1
    32     8    31    1
    33     9    32    1
@<TRIPOS>MOLECULE
mol26_2_29
 32 33 0 0 0
SMALL
USER_CHARGES
****
VDW energy = -126.51
@<TRIPOS>ATOM
   1 N1        3.6845    -8.8982    -5.7123  N.3     1  <O>11      -0.2035
   2 S1        3.1567    -9.7375    -4.3909  S.O2    1  <O>11       0.0578
   3 O1        4.0563   -11.1232    -4.2196  O.2     1  <O>11      -0.1532
   4 O2        3.3259    -8.7960    -3.0330  O.2     1  <O>11      -0.1532
   5 C1        1.4620   -10.1610    -4.6040  C.ar    1  <O>11       0.1272
   6 C2        0.5200    -9.6970    -3.6820  C.ar    1  <O>11      -0.0335
   7 C3       -0.8270   -10.0400    -3.8390  C.ar    1  <O>11      -0.0598
   8 C4       -1.2300   -10.8390    -4.9120  C.ar    1  <O>11      -0.0599
   9 C5       -0.2760   -11.2910    -5.8300  C.ar    1  <O>11      -0.0374
  10 C6        1.0700   -10.9530    -5.6840  C.ar    1  <O>11       0.0743
  11 N2        2.0520   -11.4120    -6.6340  N.pl3   1  <O>11      -0.2142
  12 S2        2.8251   -12.8517    -6.3914  S.O2    1  <O>11       0.0781
  13 O3        3.6534   -12.8005    -4.9520  O.2     1  <O>11      -0.1498
  14 O4        3.8931   -13.1235    -7.6357  O.2     1  <O>11      -0.1498
  15 C7        1.6340   -14.1599    -6.3412  C.ar    1  <O>11       0.1843
  16 C8        0.8040   -14.4068    -7.4485  C.ar    1  <O>11       0.1907
  17 F1        0.9267   -13.6341    -8.5748  F       1  <O>11      -0.2002
  18 C9       -0.1443   -15.4337    -7.4036  C.ar    1  <O>11       0.1983
  19 F2       -0.9513   -15.6625    -8.4879  F       1  <O>11      -0.1993
  20 C10      -0.2716   -16.2246    -6.2580  C.ar    1  <O>11       0.1992
  21 F3       -1.2026   -17.2296    -6.2085  F       1  <O>11      -0.1993
  22 C11       0.5592   -15.9832    -5.1595  C.ar    1  <O>11       0.1983
  23 F4        0.4305   -16.7626    -4.0383  F       1  <O>11      -0.1993
  24 C12       1.5105   -14.9620    -5.1939  C.ar    1  <O>11       0.1907
  25 F5        2.3303   -14.7306    -4.1208  F       1  <O>11      -0.2002
  26 H1        3.1320    -8.0472    -5.8175  H       1  <O>11       0.1442
  27 H2        3.5805    -9.4763    -6.5461  H       1  <O>11       0.1442
  28 H3        2.2701   -10.8485    -7.4556  H       1  <O>11       0.1737
  29 H4        0.8162    -9.1050    -2.8903  H       1  <O>11       0.0638
  30 H5       -1.5260    -9.7015    -3.1594  H       1  <O>11       0.0618
  31 H6       -2.2235   -11.0937    -5.0264  H       1  <O>11       0.0618
  32 H7       -0.5709   -11.8808    -6.6238  H       1  <O>11       0.0637
@<TRIPOS>BOND
     1     1     2    1
     2     2     3    2
     3     2     4    2
     4     2     5    1
     5     5     6   ar
     6     6     7   ar
     7     7     8   ar
     8     8     9   ar
     9     9    10   ar
    10     5    10   ar
    11    10    11    1
    12    11    12    1
    13    12    13    2
    14    12    14    2
    15    12    15    1
    16    15    16   ar
    17    16    17    1
    18    16    18   ar
    19    18    19    1
    20    18    20   ar
    21    20    21    1
    22    20    22   ar
    23    22    23    1
    24    22    24   ar
    25    15    24   ar
    26    24    25    1
    27     1    26    1
    28     1    27    1
    29    11    28    1
    30     6    29    1
    31     7    30    1
    32     8    31    1
    33     9    32    1
@<TRIPOS>MOLECULE
mol26_2_30
 32 33 0 0 0
SMALL
USER_CHARGES
****
VDW energy = -126.45
@<TRIPOS>ATOM
   1 N1        3.6845    -8.8982    -5.7123  N.3     1  <O>11      -0.2035
   2 S1        3.1567    -9.7375    -4.3909  S.O2    1  <O>11       0.0578
   3 O1        4.0563   -11.1232    -4.2196  O.2     1  <O>11      -0.1532
   4 O2        3.3259    -8.7960    -3.0330  O.2     1  <O>11      -0.1532
   5 C1        1.4620   -10.1610    -4.6040  C.ar    1  <O>11       0.1272
   6 C2        1.0887   -11.5076    -4.6064  C.ar    1  <O>11      -0.0335
   7 C3       -0.2551   -11.8514    -4.7873  C.ar    1  <O>11      -0.0598
   8 C4       -1.2196   -10.8556    -4.9617  C.ar    1  <O>11      -0.0599
   9 C5       -0.8312    -9.5117    -4.9511  C.ar    1  <O>11      -0.0374
  10 C6        0.5063    -9.1577    -4.7693  C.ar    1  <O>11       0.0743
  11 N2        0.9057    -7.7729    -4.7504  N.pl3   1  <O>11      -0.2142
  12 S2        0.9309    -6.9406    -3.3236  S.O2    1  <O>11       0.0781
  13 O3        1.9845    -7.6770    -2.2708  O.2     1  <O>11      -0.1498
  14 O4       -0.5942    -6.9280    -2.6627  O.2     1  <O>11      -0.1498
  15 C7        1.4582    -5.2772    -3.6199  C.ar    1  <O>11       0.1843
  16 C8        1.5610    -4.3651    -2.5553  C.ar    1  <O>11       0.1907
  17 F1        1.2590    -4.7719    -1.2809  F       1  <O>11      -0.2002
  18 C9        1.9671    -3.0480    -2.7922  C.ar    1  <O>11       0.1983
  19 F2        2.0595    -2.1660    -1.7468  F       1  <O>11      -0.1993
  20 C10       2.2773    -2.6297    -4.0895  C.ar    1  <O>11       0.1992
  21 F3        2.6721    -1.3385    -4.3264  F       1  <O>11      -0.1993
  22 C11       2.1819    -3.5394    -5.1471  C.ar    1  <O>11       0.1983
  23 F4        2.4880    -3.1239    -6.4177  F       1  <O>11      -0.1993
  24 C12       1.7792    -4.8570    -4.9219  C.ar    1  <O>11       0.1907
  25 F5        1.6936    -5.7509    -5.9567  F       1  <O>11      -0.2002
  26 H1        3.1320    -8.0472    -5.8175  H       1  <O>11       0.1442
  27 H2        3.5805    -9.4763    -6.5461  H       1  <O>11       0.1442
  28 H3        1.1725    -7.3065    -5.6172  H       1  <O>11       0.1737
  29 H4        1.7999   -12.2439    -4.4756  H       1  <O>11       0.0638
  30 H5       -0.5352   -12.8446    -4.7921  H       1  <O>11       0.0618
  31 H6       -2.2106   -11.1096    -5.0973  H       1  <O>11       0.0618
  32 H7       -1.5415    -8.7741    -5.0791  H       1  <O>11       0.0637
@<TRIPOS>BOND
     1     1     2    1
     2     2     3    2
     3     2     4    2
     4     2     5    1
     5     5     6   ar
     6     6     7   ar
     7     7     8   ar
     8     8     9   ar
     9     9    10   ar
    10     5    10   ar
    11    10    11    1
    12    11    12    1
    13    12    13    2
    14    12    14    2
    15    12    15    1
    16    15    16   ar
    17    16    17    1
    18    16    18   ar
    19    18    19    1
    20    18    20   ar
    21    20    21    1
    22    20    22   ar
    23    22    23    1
    24    22    24   ar
    25    15    24   ar
    26    24    25    1
    27     1    26    1
    28     1    27    1
    29    11    28    1
    30     6    29    1
    31     7    30    1
    32     8    31    1
    33     9    32    1
