@<TRIPOS>MOLECULE
mol2_1_1
 55 59 0 0 0
SMALL
USER_CHARGES
****
VDW energy = -23.01
@<TRIPOS>ATOM
   1 O1        0.2060     0.3063    -5.2918  O.2     1  <O>11      -0.2699
   2 C1        1.1449     0.5535    -4.5497  C.2     1  <O>11       0.2495
   3 C2        2.3880    -0.1970    -4.6730  C.ar    1  <O>11       0.0723
   4 C3        3.4071     0.2547    -5.5291  C.ar    1  <O>11      -0.0433
   5 C4        4.5948    -0.4725    -5.6565  C.ar    1  <O>11      -0.0406
   6 C5        5.6550     0.0106    -6.5623  C.3     1  <O>11       0.0171
   7 C6        6.9249    -0.7007    -6.2614  C.ar    1  <O>11       0.0736
   8 N1        7.8137    -0.1732    -5.3165  N.ar    1  <O>11      -0.1750
   9 N2        9.0189    -0.7527    -5.1079  N.ar    1  <O>11      -0.2425
  10 C7        9.3503    -1.8577    -5.8160  C.ar    1  <O>11       0.2725
  11 O2       10.6534    -2.3528    -5.6213  O.2     1  <O>11      -0.2658
  12 C8        8.4791    -2.5074    -6.7024  C.ar    1  <O>11       0.0496
  13 C9        8.8007    -3.6937    -7.3993  C.ar    1  <O>11      -0.0487
  14 C10       7.8977    -4.2712    -8.2936  C.ar    1  <O>11      -0.0610
  15 C11       6.6628    -3.6719    -8.5138  C.ar    1  <O>11      -0.0611
  16 C12       6.3313    -2.4960    -7.8406  C.ar    1  <O>11      -0.0521
  17 C13       7.2293    -1.9012    -6.9251  C.ar    1  <O>11       0.0106
  18 C14       4.7797    -1.6517    -4.9298  C.ar    1  <O>11      -0.0555
  19 C15       3.7672    -2.0978    -4.0724  C.ar    1  <O>11      -0.0254
  20 C16       2.5791    -1.3782    -3.9373  C.ar    1  <O>11       0.1355
  21 F1        1.5904    -1.8113    -3.0923  F       1  <O>11      -0.2047
  22 N3        1.0300     1.5280    -3.6100  N.am    1  <O>11      -0.2945
  23 C17       2.0762     1.9226    -2.6612  C.3     1  <O>11       0.0308
  24 C18       1.5733     1.7815    -1.2078  C.3     1  <O>11       0.0305
  25 N4        0.2620     2.5482    -1.0164  N.am    1  <O>11      -0.2983
  26 C19      -0.0103     3.4846    -0.0691  C.2     1  <O>11       0.2187
  27 O3       -1.1094     4.0178    -0.0354  O.2     1  <O>11      -0.2753
  28 C20       1.0127     3.8541     0.9116  C.3     1  <O>11       0.0358
  29 C21       0.6487     4.5290     1.9130  C.3     1  <O>11      -0.0412
  30 C22       1.1485     3.1166     1.9237  C.3     1  <O>11      -0.0412
  31 C23      -0.7910     2.1449    -2.0524  C.3     1  <O>11       0.0305
  32 C24      -0.2067     2.2954    -3.4660  C.3     1  <O>11       0.0308
  33 H1        5.7960     1.0810    -6.4194  H       1  <O>11       0.0377
  34 H2        5.3663    -0.1829    -7.5952  H       1  <O>11       0.0377
  35 H3        9.6625    -0.3651    -4.4321  H       1  <O>11       0.1921
  36 H4        2.9477     1.2836    -2.8022  H       1  <O>11       0.0480
  37 H5        2.3535     2.9613    -2.8451  H       1  <O>11       0.0480
  38 H6        1.4071     0.7273    -0.9867  H       1  <O>11       0.0480
  39 H7        2.3250     2.1821    -0.5280  H       1  <O>11       0.0480
  40 H8        1.9178     4.1708     0.3904  H       1  <O>11       0.0394
  41 H9        1.2623     5.3456     2.2940  H       1  <O>11       0.0273
  42 H10      -0.4040     4.7541     2.0858  H       1  <O>11       0.0273
  43 H11       2.1377     2.8733     2.3140  H       1  <O>11       0.0273
  44 H12       0.4704     2.2812     2.1067  H       1  <O>11       0.0273
  45 H13      -1.0811     1.1069    -1.8892  H       1  <O>11       0.0480
  46 H14      -1.6644     2.7880    -1.9511  H       1  <O>11       0.0480
  47 H15      -0.9345     1.9349    -4.1924  H       1  <O>11       0.0480
  48 H16       0.0043     3.3482    -3.6533  H       1  <O>11       0.0480
  49 H17       3.2783     1.1266    -6.0659  H       1  <O>11       0.0629
  50 H18       9.7181    -4.1404    -7.2447  H       1  <O>11       0.0625
  51 H19       8.1463    -5.1411    -8.7901  H       1  <O>11       0.0618
  52 H20       5.9927    -4.0961    -9.1741  H       1  <O>11       0.0618
  53 H21       5.4154    -2.0530    -8.0138  H       1  <O>11       0.0624
  54 H22       5.6555    -2.1892    -5.0244  H       1  <O>11       0.0621
  55 H23       3.9008    -2.9682    -3.5343  H       1  <O>11       0.0646
@<TRIPOS>BOND
     1     1     2    2
     2     2     3    1
     3     3     4   ar
     4     4     5   ar
     5     5     6    1
     6     6     7    1
     7     7     8   ar
     8     8     9   ar
     9     9    10   ar
    10    10    11    2
    11    10    12   ar
    12    12    13   ar
    13    13    14   ar
    14    14    15   ar
    15    15    16   ar
    16    16    17   ar
    17     7    17   ar
    18    12    17   ar
    19     5    18   ar
    20    18    19   ar
    21    19    20   ar
    22     3    20   ar
    23    20    21    1
    24     2    22   am
    25    22    23    1
    26    23    24    1
    27    24    25    1
    28    25    26   am
    29    26    27    2
    30    26    28    1
    31    28    29    1
    32    29    30    1
    33    28    30    1
    34    25    31    1
    35    31    32    1
    36    22    32    1
    37     6    33    1
    38     6    34    1
    39     9    35    1
    40    23    36    1
    41    23    37    1
    42    24    38    1
    43    24    39    1
    44    28    40    1
    45    29    41    1
    46    29    42    1
    47    30    43    1
    48    30    44    1
    49    31    45    1
    50    31    46    1
    51    32    47    1
    52    32    48    1
    53     4    49    1
    54    13    50    1
    55    14    51    1
    56    15    52    1
    57    16    53    1
    58    18    54    1
    59    19    55    1
@<TRIPOS>MOLECULE
mol2_1_2
 55 59 0 0 0
SMALL
USER_CHARGES
****
VDW energy = -22.93
@<TRIPOS>ATOM
   1 O1        0.2060     0.3063    -5.2918  O.2     1  <O>11      -0.2699
   2 C1        1.1449     0.5535    -4.5497  C.2     1  <O>11       0.2495
   3 C2        2.3880    -0.1970    -4.6730  C.ar    1  <O>11       0.0723
   4 C3        2.5786    -1.3790    -3.9369  C.ar    1  <O>11      -0.0433
   5 C4        3.7767    -2.0922    -4.0461  C.ar    1  <O>11      -0.0406
   6 C5        3.9657    -3.3295    -3.2642  C.3     1  <O>11       0.0171
   7 C6        2.9198    -4.3166    -3.6397  C.ar    1  <O>11       0.0736
   8 N1        1.7025    -4.3412    -2.9480  N.ar    1  <O>11      -0.1750
   9 N2        0.7832    -5.2999    -3.2083  N.ar    1  <O>11      -0.2425
  10 C7        1.0501    -6.2289    -4.1560  C.ar    1  <O>11       0.2725
  11 O2        0.0958    -7.2521    -4.3090  O.2     1  <O>11      -0.2658
  12 C8        2.1963    -6.2131    -4.9639  C.ar    1  <O>11       0.0496
  13 C9        2.4506    -7.1472    -5.9931  C.ar    1  <O>11      -0.0487
  14 C10       3.6292    -7.0941    -6.7392  C.ar    1  <O>11      -0.0610
  15 C11       4.5770    -6.1142    -6.4667  C.ar    1  <O>11      -0.0611
  16 C12       4.3466    -5.1885    -5.4490  C.ar    1  <O>11      -0.0521
  17 C13       3.1553    -5.2214    -4.6886  C.ar    1  <O>11       0.0106
  18 C14       4.7920    -1.6376    -4.8919  C.ar    1  <O>11      -0.0555
  19 C15       4.5992    -0.4639    -5.6298  C.ar    1  <O>11      -0.0254
  20 C16       3.4066     0.2538    -5.5286  C.ar    1  <O>11       0.1355
  21 F1        3.2151     1.3995    -6.2566  F       1  <O>11      -0.2047
  22 N3        1.0300     1.5280    -3.6100  N.am    1  <O>11      -0.2945
  23 C17       2.0762     1.9226    -2.6612  C.3     1  <O>11       0.0308
  24 C18       1.5733     1.7815    -1.2078  C.3     1  <O>11       0.0305
  25 N4        0.2620     2.5482    -1.0164  N.am    1  <O>11      -0.2983
  26 C19      -0.0103     3.4846    -0.0691  C.2     1  <O>11       0.2187
  27 O3        0.8440     3.7924     0.7489  O.2     1  <O>11      -0.2753
  28 C20      -1.3266     4.1252    -0.0288  C.3     1  <O>11       0.0358
  29 C21      -2.3411     3.3780     0.0299  C.3     1  <O>11      -0.0412
  30 C22      -1.8556     4.3080     1.0996  C.3     1  <O>11      -0.0412
  31 C23      -0.7910     2.1449    -2.0524  C.3     1  <O>11       0.0305
  32 C24      -0.2067     2.2954    -3.4660  C.3     1  <O>11       0.0308
  33 H1        3.8872    -3.1041    -2.2016  H       1  <O>11       0.0377
  34 H2        4.9504    -3.7457    -3.4754  H       1  <O>11       0.0377
  35 H3       -0.0908    -5.3213    -2.7016  H       1  <O>11       0.1921
  36 H4        2.9477     1.2836    -2.8022  H       1  <O>11       0.0480
  37 H5        2.3535     2.9613    -2.8451  H       1  <O>11       0.0480
  38 H6        1.4071     0.7273    -0.9867  H       1  <O>11       0.0480
  39 H7        2.3250     2.1821    -0.5280  H       1  <O>11       0.0480
  40 H8       -1.3492     4.9535    -0.7391  H       1  <O>11       0.0394
  41 H9       -3.2391     3.6028    -0.5458  H       1  <O>11       0.0273
  42 H10      -2.2374     2.2977     0.1347  H       1  <O>11       0.0273
  43 H11      -2.3908     5.2309     1.3274  H       1  <O>11       0.0273
  44 H12      -1.3891     3.9249     2.0089  H       1  <O>11       0.0273
  45 H13      -1.0811     1.1069    -1.8892  H       1  <O>11       0.0480
  46 H14      -1.6644     2.7880    -1.9511  H       1  <O>11       0.0480
  47 H15      -0.9345     1.9349    -4.1924  H       1  <O>11       0.0480
  48 H16       0.0043     3.3482    -3.6533  H       1  <O>11       0.0480
  49 H17       1.8314    -1.7221    -3.3132  H       1  <O>11       0.0629
  50 H18       1.7536    -7.8807    -6.1965  H       1  <O>11       0.0625
  51 H19       3.7966    -7.7806    -7.4913  H       1  <O>11       0.0618
  52 H20       5.4494    -6.0718    -7.0164  H       1  <O>11       0.0618
  53 H21       5.0573    -4.4678    -5.2479  H       1  <O>11       0.0624
  54 H22       5.6766    -2.1629    -4.9719  H       1  <O>11       0.0621
  55 H23       5.3470    -0.1256    -6.2553  H       1  <O>11       0.0646
@<TRIPOS>BOND
     1     1     2    2
     2     2     3    1
     3     3     4   ar
     4     4     5   ar
     5     5     6    1
     6     6     7    1
     7     7     8   ar
     8     8     9   ar
     9     9    10   ar
    10    10    11    2
    11    10    12   ar
    12    12    13   ar
    13    13    14   ar
    14    14    15   ar
    15    15    16   ar
    16    16    17   ar
    17     7    17   ar
    18    12    17   ar
    19     5    18   ar
    20    18    19   ar
    21    19    20   ar
    22     3    20   ar
    23    20    21    1
    24     2    22   am
    25    22    23    1
    26    23    24    1
    27    24    25    1
    28    25    26   am
    29    26    27    2
    30    26    28    1
    31    28    29    1
    32    29    30    1
    33    28    30    1
    34    25    31    1
    35    31    32    1
    36    22    32    1
    37     6    33    1
    38     6    34    1
    39     9    35    1
    40    23    36    1
    41    23    37    1
    42    24    38    1
    43    24    39    1
    44    28    40    1
    45    29    41    1
    46    29    42    1
    47    30    43    1
    48    30    44    1
    49    31    45    1
    50    31    46    1
    51    32    47    1
    52    32    48    1
    53     4    49    1
    54    13    50    1
    55    14    51    1
    56    15    52    1
    57    16    53    1
    58    18    54    1
    59    19    55    1
@<TRIPOS>MOLECULE
mol2_1_3
 55 59 0 0 0
SMALL
USER_CHARGES
****
VDW energy = -22.92
@<TRIPOS>ATOM
   1 O1        0.2060     0.3063    -5.2918  O.2     1  <O>11      -0.2699
   2 C1        1.1449     0.5535    -4.5497  C.2     1  <O>11       0.2495
   3 C2        2.3880    -0.1970    -4.6730  C.ar    1  <O>11       0.0723
   4 C3        3.4071     0.2547    -5.5291  C.ar    1  <O>11      -0.0433
   5 C4        4.5948    -0.4725    -5.6565  C.ar    1  <O>11      -0.0406
   6 C5        5.6550     0.0106    -6.5623  C.3     1  <O>11       0.0171
   7 C6        5.1248     0.0861    -7.9487  C.ar    1  <O>11       0.0736
   8 N1        5.1099     1.3123    -8.6248  N.ar    1  <O>11      -0.1750
   9 N2        4.5359     1.4172    -9.8460  N.ar    1  <O>11      -0.2425
  10 C7        3.9864     0.3174   -10.4125  C.ar    1  <O>11       0.2725
  11 O2        3.3219     0.5156   -11.6373  O.2     1  <O>11      -0.2658
  12 C8        4.0512    -0.9657    -9.8501  C.ar    1  <O>11       0.0496
  13 C9        3.5296    -2.1256   -10.4657  C.ar    1  <O>11      -0.0487
  14 C10       3.5985    -3.3690    -9.8349  C.ar    1  <O>11      -0.0610
  15 C11       4.1811    -3.4754    -8.5772  C.ar    1  <O>11      -0.0611
  16 C12       4.6941    -2.3396    -7.9507  C.ar    1  <O>11      -0.0521
  17 C13       4.6410    -1.0736    -8.5775  C.ar    1  <O>11       0.0106
  18 C14       4.7797    -1.6517    -4.9298  C.ar    1  <O>11      -0.0555
  19 C15       3.7672    -2.0978    -4.0724  C.ar    1  <O>11      -0.0254
  20 C16       2.5791    -1.3782    -3.9373  C.ar    1  <O>11       0.1355
  21 F1        1.5904    -1.8113    -3.0923  F       1  <O>11      -0.2047
  22 N3        1.0300     1.5280    -3.6100  N.am    1  <O>11      -0.2945
  23 C17      -0.1601     2.3538    -3.3819  C.3     1  <O>11       0.0308
  24 C18       0.1827     3.8529    -3.5259  C.3     1  <O>11       0.0305
  25 N4        1.3598     4.2241    -2.6201  N.am    1  <O>11      -0.2983
  26 C19       1.4038     5.2241    -1.7001  C.2     1  <O>11       0.2187
  27 O3        2.4186     5.4062    -1.0439  O.2     1  <O>11      -0.2753
  28 C20       0.2359     6.0837    -1.4956  C.3     1  <O>11       0.0358
  29 C21       0.3957     7.1410    -0.8266  C.3     1  <O>11      -0.0412
  30 C22       0.0731     7.0501    -2.2870  C.3     1  <O>11      -0.0412
  31 C23       2.5679     3.3122    -2.8522  C.3     1  <O>11       0.0305
  32 C24       2.1391     1.8432    -2.7102  C.3     1  <O>11       0.0308
  33 H1        6.4994    -0.6767    -6.5336  H       1  <O>11       0.0377
  34 H2        5.9815     1.0003    -6.2439  H       1  <O>11       0.0377
  35 H3        4.5182     2.3050   -10.3282  H       1  <O>11       0.1921
  36 H4       -0.9251     2.0897    -4.1117  H       1  <O>11       0.0480
  37 H5       -0.5379     2.1678    -2.3758  H       1  <O>11       0.0480
  38 H6        0.4485     4.0619    -4.5620  H       1  <O>11       0.0480
  39 H7       -0.6863     4.4478    -3.2458  H       1  <O>11       0.0480
  40 H8       -0.6337     5.4659    -1.2647  H       1  <O>11       0.0394
  41 H9       -0.3528     7.4681    -0.1047  H       1  <O>11       0.0273
  42 H10       1.3857     7.4467    -0.4876  H       1  <O>11       0.0273
  43 H11      -0.9181     7.3103    -2.6610  H       1  <O>11       0.0273
  44 H12       0.8214     7.2898    -3.0444  H       1  <O>11       0.0273
  45 H13       2.9607     3.4792    -3.8553  H       1  <O>11       0.0480
  46 H14       3.3389     3.5373    -2.1163  H       1  <O>11       0.0480
  47 H15       2.9851     1.2003    -2.9513  H       1  <O>11       0.0480
  48 H16       1.8252     1.6621    -1.6821  H       1  <O>11       0.0480
  49 H17       3.2783     1.1266    -6.0659  H       1  <O>11       0.0629
  50 H18       3.0906    -2.0524   -11.3968  H       1  <O>11       0.0625
  51 H19       3.2178    -4.2073   -10.3011  H       1  <O>11       0.0618
  52 H20       4.2339    -4.3931    -8.1079  H       1  <O>11       0.0618
  53 H21       5.1195    -2.4249    -7.0143  H       1  <O>11       0.0624
  54 H22       5.6555    -2.1892    -5.0244  H       1  <O>11       0.0621
  55 H23       3.9008    -2.9682    -3.5343  H       1  <O>11       0.0646
@<TRIPOS>BOND
     1     1     2    2
     2     2     3    1
     3     3     4   ar
     4     4     5   ar
     5     5     6    1
     6     6     7    1
     7     7     8   ar
     8     8     9   ar
     9     9    10   ar
    10    10    11    2
    11    10    12   ar
    12    12    13   ar
    13    13    14   ar
    14    14    15   ar
    15    15    16   ar
    16    16    17   ar
    17     7    17   ar
    18    12    17   ar
    19     5    18   ar
    20    18    19   ar
    21    19    20   ar
    22     3    20   ar
    23    20    21    1
    24     2    22   am
    25    22    23    1
    26    23    24    1
    27    24    25    1
    28    25    26   am
    29    26    27    2
    30    26    28    1
    31    28    29    1
    32    29    30    1
    33    28    30    1
    34    25    31    1
    35    31    32    1
    36    22    32    1
    37     6    33    1
    38     6    34    1
    39     9    35    1
    40    23    36    1
    41    23    37    1
    42    24    38    1
    43    24    39    1
    44    28    40    1
    45    29    41    1
    46    29    42    1
    47    30    43    1
    48    30    44    1
    49    31    45    1
    50    31    46    1
    51    32    47    1
    52    32    48    1
    53     4    49    1
    54    13    50    1
    55    14    51    1
    56    15    52    1
    57    16    53    1
    58    18    54    1
    59    19    55    1
@<TRIPOS>MOLECULE
mol2_1_4
 55 59 0 0 0
SMALL
USER_CHARGES
****
VDW energy = -21.95
@<TRIPOS>ATOM
   1 O1        0.2060     0.3063    -5.2918  O.2     1  <O>11      -0.2699
   2 C1        1.1449     0.5535    -4.5497  C.2     1  <O>11       0.2495
   3 C2        2.3880    -0.1970    -4.6730  C.ar    1  <O>11       0.0723
   4 C3        3.4071     0.2547    -5.5291  C.ar    1  <O>11      -0.0433
   5 C4        4.5948    -0.4725    -5.6565  C.ar    1  <O>11      -0.0406
   6 C5        5.6550     0.0106    -6.5623  C.3     1  <O>11       0.0171
   7 C6        6.9249    -0.7007    -6.2614  C.ar    1  <O>11       0.0736
   8 N1        7.8137    -0.1732    -5.3165  N.ar    1  <O>11      -0.1750
   9 N2        9.0189    -0.7527    -5.1079  N.ar    1  <O>11      -0.2425
  10 C7        9.3503    -1.8577    -5.8160  C.ar    1  <O>11       0.2725
  11 O2       10.6534    -2.3528    -5.6213  O.2     1  <O>11      -0.2658
  12 C8        8.4791    -2.5074    -6.7024  C.ar    1  <O>11       0.0496
  13 C9        8.8007    -3.6937    -7.3993  C.ar    1  <O>11      -0.0487
  14 C10       7.8977    -4.2712    -8.2936  C.ar    1  <O>11      -0.0610
  15 C11       6.6628    -3.6719    -8.5138  C.ar    1  <O>11      -0.0611
  16 C12       6.3313    -2.4960    -7.8406  C.ar    1  <O>11      -0.0521
  17 C13       7.2293    -1.9012    -6.9251  C.ar    1  <O>11       0.0106
  18 C14       4.7797    -1.6517    -4.9298  C.ar    1  <O>11      -0.0555
  19 C15       3.7672    -2.0978    -4.0724  C.ar    1  <O>11      -0.0254
  20 C16       2.5791    -1.3782    -3.9373  C.ar    1  <O>11       0.1355
  21 F1        1.5904    -1.8113    -3.0923  F       1  <O>11      -0.2047
  22 N3        1.0300     1.5280    -3.6100  N.am    1  <O>11      -0.2945
  23 C17      -0.1601     2.3538    -3.3819  C.3     1  <O>11       0.0308
  24 C18       0.1827     3.8529    -3.5259  C.3     1  <O>11       0.0305
  25 N4        1.3598     4.2241    -2.6201  N.am    1  <O>11      -0.2983
  26 C19       1.4038     5.2241    -1.7001  C.2     1  <O>11       0.2187
  27 O3        2.4186     5.4062    -1.0439  O.2     1  <O>11      -0.2753
  28 C20       0.2359     6.0837    -1.4956  C.3     1  <O>11       0.0358
  29 C21       0.3957     7.1410    -0.8266  C.3     1  <O>11      -0.0412
  30 C22       0.0731     7.0501    -2.2870  C.3     1  <O>11      -0.0412
  31 C23       2.5679     3.3122    -2.8522  C.3     1  <O>11       0.0305
  32 C24       2.1391     1.8432    -2.7102  C.3     1  <O>11       0.0308
  33 H1        5.7960     1.0810    -6.4194  H       1  <O>11       0.0377
  34 H2        5.3663    -0.1829    -7.5952  H       1  <O>11       0.0377
  35 H3        9.6625    -0.3651    -4.4321  H       1  <O>11       0.1921
  36 H4       -0.9251     2.0897    -4.1117  H       1  <O>11       0.0480
  37 H5       -0.5379     2.1678    -2.3758  H       1  <O>11       0.0480
  38 H6        0.4485     4.0619    -4.5620  H       1  <O>11       0.0480
  39 H7       -0.6863     4.4478    -3.2458  H       1  <O>11       0.0480
  40 H8       -0.6337     5.4659    -1.2647  H       1  <O>11       0.0394
  41 H9       -0.3528     7.4681    -0.1047  H       1  <O>11       0.0273
  42 H10       1.3857     7.4467    -0.4876  H       1  <O>11       0.0273
  43 H11      -0.9181     7.3103    -2.6610  H       1  <O>11       0.0273
  44 H12       0.8214     7.2898    -3.0444  H       1  <O>11       0.0273
  45 H13       2.9607     3.4792    -3.8553  H       1  <O>11       0.0480
  46 H14       3.3389     3.5373    -2.1163  H       1  <O>11       0.0480
  47 H15       2.9851     1.2003    -2.9513  H       1  <O>11       0.0480
  48 H16       1.8252     1.6621    -1.6821  H       1  <O>11       0.0480
  49 H17       3.2783     1.1266    -6.0659  H       1  <O>11       0.0629
  50 H18       9.7181    -4.1404    -7.2447  H       1  <O>11       0.0625
  51 H19       8.1463    -5.1411    -8.7901  H       1  <O>11       0.0618
  52 H20       5.9927    -4.0961    -9.1741  H       1  <O>11       0.0618
  53 H21       5.4154    -2.0530    -8.0138  H       1  <O>11       0.0624
  54 H22       5.6555    -2.1892    -5.0244  H       1  <O>11       0.0621
  55 H23       3.9008    -2.9682    -3.5343  H       1  <O>11       0.0646
@<TRIPOS>BOND
     1     1     2    2
     2     2     3    1
     3     3     4   ar
     4     4     5   ar
     5     5     6    1
     6     6     7    1
     7     7     8   ar
     8     8     9   ar
     9     9    10   ar
    10    10    11    2
    11    10    12   ar
    12    12    13   ar
    13    13    14   ar
    14    14    15   ar
    15    15    16   ar
    16    16    17   ar
    17     7    17   ar
    18    12    17   ar
    19     5    18   ar
    20    18    19   ar
    21    19    20   ar
    22     3    20   ar
    23    20    21    1
    24     2    22   am
    25    22    23    1
    26    23    24    1
    27    24    25    1
    28    25    26   am
    29    26    27    2
    30    26    28    1
    31    28    29    1
    32    29    30    1
    33    28    30    1
    34    25    31    1
    35    31    32    1
    36    22    32    1
    37     6    33    1
    38     6    34    1
    39     9    35    1
    40    23    36    1
    41    23    37    1
    42    24    38    1
    43    24    39    1
    44    28    40    1
    45    29    41    1
    46    29    42    1
    47    30    43    1
    48    30    44    1
    49    31    45    1
    50    31    46    1
    51    32    47    1
    52    32    48    1
    53     4    49    1
    54    13    50    1
    55    14    51    1
    56    15    52    1
    57    16    53    1
    58    18    54    1
    59    19    55    1
@<TRIPOS>MOLECULE
mol2_1_5
 55 59 0 0 0
SMALL
USER_CHARGES
****
VDW energy = -21.66
@<TRIPOS>ATOM
   1 O1        0.2060     0.3063    -5.2918  O.2     1  <O>11      -0.2699
   2 C1        1.1449     0.5535    -4.5497  C.2     1  <O>11       0.2495
   3 C2        2.3880    -0.1970    -4.6730  C.ar    1  <O>11       0.0723
   4 C3        3.4071     0.2547    -5.5291  C.ar    1  <O>11      -0.0433
   5 C4        4.5948    -0.4725    -5.6565  C.ar    1  <O>11      -0.0406
   6 C5        5.6550     0.0106    -6.5623  C.3     1  <O>11       0.0171
   7 C6        6.9249    -0.7007    -6.2614  C.ar    1  <O>11       0.0736
   8 N1        7.8137    -0.1732    -5.3165  N.ar    1  <O>11      -0.1750
   9 N2        9.0189    -0.7527    -5.1079  N.ar    1  <O>11      -0.2425
  10 C7        9.3503    -1.8577    -5.8160  C.ar    1  <O>11       0.2725
  11 O2       10.6534    -2.3528    -5.6213  O.2     1  <O>11      -0.2658
  12 C8        8.4791    -2.5074    -6.7024  C.ar    1  <O>11       0.0496
  13 C9        8.8007    -3.6937    -7.3993  C.ar    1  <O>11      -0.0487
  14 C10       7.8977    -4.2712    -8.2936  C.ar    1  <O>11      -0.0610
  15 C11       6.6628    -3.6719    -8.5138  C.ar    1  <O>11      -0.0611
  16 C12       6.3313    -2.4960    -7.8406  C.ar    1  <O>11      -0.0521
  17 C13       7.2293    -1.9012    -6.9251  C.ar    1  <O>11       0.0106
  18 C14       4.7797    -1.6517    -4.9298  C.ar    1  <O>11      -0.0555
  19 C15       3.7672    -2.0978    -4.0724  C.ar    1  <O>11      -0.0254
  20 C16       2.5791    -1.3782    -3.9373  C.ar    1  <O>11       0.1355
  21 F1        1.5904    -1.8113    -3.0923  F       1  <O>11      -0.2047
  22 N3        1.0300     1.5280    -3.6100  N.am    1  <O>11      -0.2945
  23 C17       2.0762     1.9226    -2.6612  C.3     1  <O>11       0.0308
  24 C18       1.5733     1.7815    -1.2078  C.3     1  <O>11       0.0305
  25 N4        0.2620     2.5482    -1.0164  N.am    1  <O>11      -0.2983
  26 C19      -0.0103     3.4846    -0.0691  C.2     1  <O>11       0.2187
  27 O3        0.8442     3.7928     0.7485  O.2     1  <O>11      -0.2753
  28 C20      -1.3268     4.1247    -0.0284  C.3     1  <O>11       0.0358
  29 C21      -1.4578     5.1518     0.6919  C.3     1  <O>11      -0.0412
  30 C22      -1.5307     5.0964    -0.8036  C.3     1  <O>11      -0.0412
  31 C23      -0.7910     2.1449    -2.0524  C.3     1  <O>11       0.0305
  32 C24      -0.2067     2.2954    -3.4660  C.3     1  <O>11       0.0308
  33 H1        5.7960     1.0810    -6.4194  H       1  <O>11       0.0377
  34 H2        5.3663    -0.1829    -7.5952  H       1  <O>11       0.0377
  35 H3        9.6625    -0.3651    -4.4321  H       1  <O>11       0.1921
  36 H4        2.9477     1.2836    -2.8022  H       1  <O>11       0.0480
  37 H5        2.3535     2.9613    -2.8451  H       1  <O>11       0.0480
  38 H6        1.4071     0.7273    -0.9867  H       1  <O>11       0.0480
  39 H7        2.3250     2.1821    -0.5280  H       1  <O>11       0.0480
  40 H8       -2.1012     3.3585     0.0381  H       1  <O>11       0.0394
  41 H9       -2.3538     5.3062     1.2934  H       1  <O>11       0.0273
  42 H10      -0.5999     5.5965     1.1968  H       1  <O>11       0.0273
  43 H11      -2.4824     5.2106    -1.3245  H       1  <O>11       0.0273
  44 H12      -0.7277     5.5020    -1.4214  H       1  <O>11       0.0273
  45 H13      -1.0811     1.1069    -1.8892  H       1  <O>11       0.0480
  46 H14      -1.6644     2.7880    -1.9511  H       1  <O>11       0.0480
  47 H15      -0.9345     1.9349    -4.1924  H       1  <O>11       0.0480
  48 H16       0.0043     3.3482    -3.6533  H       1  <O>11       0.0480
  49 H17       3.2783     1.1266    -6.0659  H       1  <O>11       0.0629
  50 H18       9.7181    -4.1404    -7.2447  H       1  <O>11       0.0625
  51 H19       8.1463    -5.1411    -8.7901  H       1  <O>11       0.0618
  52 H20       5.9927    -4.0961    -9.1741  H       1  <O>11       0.0618
  53 H21       5.4154    -2.0530    -8.0138  H       1  <O>11       0.0624
  54 H22       5.6555    -2.1892    -5.0244  H       1  <O>11       0.0621
  55 H23       3.9008    -2.9682    -3.5343  H       1  <O>11       0.0646
@<TRIPOS>BOND
     1     1     2    2
     2     2     3    1
     3     3     4   ar
     4     4     5   ar
     5     5     6    1
     6     6     7    1
     7     7     8   ar
     8     8     9   ar
     9     9    10   ar
    10    10    11    2
    11    10    12   ar
    12    12    13   ar
    13    13    14   ar
    14    14    15   ar
    15    15    16   ar
    16    16    17   ar
    17     7    17   ar
    18    12    17   ar
    19     5    18   ar
    20    18    19   ar
    21    19    20   ar
    22     3    20   ar
    23    20    21    1
    24     2    22   am
    25    22    23    1
    26    23    24    1
    27    24    25    1
    28    25    26   am
    29    26    27    2
    30    26    28    1
    31    28    29    1
    32    29    30    1
    33    28    30    1
    34    25    31    1
    35    31    32    1
    36    22    32    1
    37     6    33    1
    38     6    34    1
    39     9    35    1
    40    23    36    1
    41    23    37    1
    42    24    38    1
    43    24    39    1
    44    28    40    1
    45    29    41    1
    46    29    42    1
    47    30    43    1
    48    30    44    1
    49    31    45    1
    50    31    46    1
    51    32    47    1
    52    32    48    1
    53     4    49    1
    54    13    50    1
    55    14    51    1
    56    15    52    1
    57    16    53    1
    58    18    54    1
    59    19    55    1
@<TRIPOS>MOLECULE
mol2_1_6
 55 59 0 0 0
SMALL
USER_CHARGES
****
VDW energy = -20.61
@<TRIPOS>ATOM
   1 O1        0.2060     0.3063    -5.2918  O.2     1  <O>11      -0.2699
   2 C1        1.1449     0.5535    -4.5497  C.2     1  <O>11       0.2495
   3 C2        2.3880    -0.1970    -4.6730  C.ar    1  <O>11       0.0723
   4 C3        3.4071     0.2547    -5.5291  C.ar    1  <O>11      -0.0433
   5 C4        4.5948    -0.4725    -5.6565  C.ar    1  <O>11      -0.0406
   6 C5        5.6550     0.0106    -6.5623  C.3     1  <O>11       0.0171
   7 C6        5.4472    -0.5631    -7.9176  C.ar    1  <O>11       0.0736
   8 N1        6.0378    -1.7869    -8.2558  N.ar    1  <O>11      -0.1750
   9 N2        5.9440    -2.2704    -9.5165  N.ar    1  <O>11      -0.2425
  10 C7        5.2603    -1.5613   -10.4451  C.ar    1  <O>11       0.2725
  11 O2        5.2832    -2.0710   -11.7568  O.2     1  <O>11      -0.2658
  12 C8        4.5541    -0.3829   -10.1634  C.ar    1  <O>11       0.0496
  13 C9        3.7918     0.3286   -11.1169  C.ar    1  <O>11      -0.0487
  14 C10       3.1391     1.5149   -10.7775  C.ar    1  <O>11      -0.0610
  15 C11       3.2417     2.0157    -9.4847  C.ar    1  <O>11      -0.0611
  16 C12       3.9966     1.3309    -8.5322  C.ar    1  <O>11      -0.0521
  17 C13       4.6576     0.1238    -8.8552  C.ar    1  <O>11       0.0106
  18 C14       4.7797    -1.6517    -4.9298  C.ar    1  <O>11      -0.0555
  19 C15       3.7672    -2.0978    -4.0724  C.ar    1  <O>11      -0.0254
  20 C16       2.5791    -1.3782    -3.9373  C.ar    1  <O>11       0.1355
  21 F1        1.5904    -1.8113    -3.0923  F       1  <O>11      -0.2047
  22 N3        1.0300     1.5280    -3.6100  N.am    1  <O>11      -0.2945
  23 C17      -0.1601     2.3538    -3.3819  C.3     1  <O>11       0.0308
  24 C18       0.1827     3.8529    -3.5259  C.3     1  <O>11       0.0305
  25 N4        1.3598     4.2241    -2.6201  N.am    1  <O>11      -0.2983
  26 C19       1.4038     5.2241    -1.7001  C.2     1  <O>11       0.2187
  27 O3        0.4285     5.9406    -1.5296  O.2     1  <O>11      -0.2753
  28 C20       2.6191     5.4427    -0.9128  C.3     1  <O>11       0.0358
  29 C21       2.5393     6.2030     0.0905  C.3     1  <O>11      -0.0412
  30 C22       2.7929     4.7264     0.1088  C.3     1  <O>11      -0.0412
  31 C23       2.5679     3.3122    -2.8522  C.3     1  <O>11       0.0305
  32 C24       2.1391     1.8432    -2.7102  C.3     1  <O>11       0.0308
  33 H1        6.6275    -0.2992    -6.1823  H       1  <O>11       0.0377
  34 H2        5.6169     1.0982    -6.6186  H       1  <O>11       0.0377
  35 H3        6.3787    -3.1492    -9.7608  H       1  <O>11       0.1921
  36 H4       -0.9251     2.0897    -4.1117  H       1  <O>11       0.0480
  37 H5       -0.5379     2.1678    -2.3758  H       1  <O>11       0.0480
  38 H6        0.4485     4.0619    -4.5620  H       1  <O>11       0.0480
  39 H7       -0.6863     4.4478    -3.2458  H       1  <O>11       0.0480
  40 H8        3.4676     5.5804    -1.5853  H       1  <O>11       0.0394
  41 H9        3.3334     6.9129     0.3226  H       1  <O>11       0.0273
  42 H10       1.5807     6.6127     0.4096  H       1  <O>11       0.0273
  43 H11       3.7781     4.3283     0.3559  H       1  <O>11       0.0273
  44 H12       2.0244     4.0277     0.4439  H       1  <O>11       0.0273
  45 H13       2.9607     3.4792    -3.8553  H       1  <O>11       0.0480
  46 H14       3.3389     3.5373    -2.1163  H       1  <O>11       0.0480
  47 H15       2.9851     1.2003    -2.9513  H       1  <O>11       0.0480
  48 H16       1.8252     1.6621    -1.6821  H       1  <O>11       0.0480
  49 H17       3.2783     1.1266    -6.0659  H       1  <O>11       0.0629
  50 H18       3.7163    -0.0347   -12.0799  H       1  <O>11       0.0625
  51 H19       2.5816     2.0191   -11.4846  H       1  <O>11       0.0618
  52 H20       2.7604     2.8923    -9.2301  H       1  <O>11       0.0618
  53 H21       4.0737     1.7118    -7.5762  H       1  <O>11       0.0624
  54 H22       5.6555    -2.1892    -5.0244  H       1  <O>11       0.0621
  55 H23       3.9008    -2.9682    -3.5343  H       1  <O>11       0.0646
@<TRIPOS>BOND
     1     1     2    2
     2     2     3    1
     3     3     4   ar
     4     4     5   ar
     5     5     6    1
     6     6     7    1
     7     7     8   ar
     8     8     9   ar
     9     9    10   ar
    10    10    11    2
    11    10    12   ar
    12    12    13   ar
    13    13    14   ar
    14    14    15   ar
    15    15    16   ar
    16    16    17   ar
    17     7    17   ar
    18    12    17   ar
    19     5    18   ar
    20    18    19   ar
    21    19    20   ar
    22     3    20   ar
    23    20    21    1
    24     2    22   am
    25    22    23    1
    26    23    24    1
    27    24    25    1
    28    25    26   am
    29    26    27    2
    30    26    28    1
    31    28    29    1
    32    29    30    1
    33    28    30    1
    34    25    31    1
    35    31    32    1
    36    22    32    1
    37     6    33    1
    38     6    34    1
    39     9    35    1
    40    23    36    1
    41    23    37    1
    42    24    38    1
    43    24    39    1
    44    28    40    1
    45    29    41    1
    46    29    42    1
    47    30    43    1
    48    30    44    1
    49    31    45    1
    50    31    46    1
    51    32    47    1
    52    32    48    1
    53     4    49    1
    54    13    50    1
    55    14    51    1
    56    15    52    1
    57    16    53    1
    58    18    54    1
    59    19    55    1
@<TRIPOS>MOLECULE
mol2_1_7
 55 59 0 0 0
SMALL
USER_CHARGES
****
VDW energy = -20.34
@<TRIPOS>ATOM
   1 O1        0.2060     0.3063    -5.2918  O.2     1  <O>11      -0.2699
   2 C1        1.1449     0.5535    -4.5497  C.2     1  <O>11       0.2495
   3 C2        2.3880    -0.1970    -4.6730  C.ar    1  <O>11       0.0723
   4 C3        2.5786    -1.3790    -3.9369  C.ar    1  <O>11      -0.0433
   5 C4        3.7767    -2.0922    -4.0461  C.ar    1  <O>11      -0.0406
   6 C5        3.9657    -3.3295    -3.2642  C.3     1  <O>11       0.0171
   7 C6        2.9198    -4.3166    -3.6397  C.ar    1  <O>11       0.0736
   8 N1        1.7025    -4.3412    -2.9480  N.ar    1  <O>11      -0.1750
   9 N2        0.7832    -5.2999    -3.2083  N.ar    1  <O>11      -0.2425
  10 C7        1.0501    -6.2289    -4.1560  C.ar    1  <O>11       0.2725
  11 O2        0.0958    -7.2521    -4.3090  O.2     1  <O>11      -0.2658
  12 C8        2.1963    -6.2131    -4.9639  C.ar    1  <O>11       0.0496
  13 C9        2.4506    -7.1472    -5.9931  C.ar    1  <O>11      -0.0487
  14 C10       3.6292    -7.0941    -6.7392  C.ar    1  <O>11      -0.0610
  15 C11       4.5770    -6.1142    -6.4667  C.ar    1  <O>11      -0.0611
  16 C12       4.3466    -5.1885    -5.4490  C.ar    1  <O>11      -0.0521
  17 C13       3.1553    -5.2214    -4.6886  C.ar    1  <O>11       0.0106
  18 C14       4.7920    -1.6376    -4.8919  C.ar    1  <O>11      -0.0555
  19 C15       4.5992    -0.4639    -5.6298  C.ar    1  <O>11      -0.0254
  20 C16       3.4066     0.2538    -5.5286  C.ar    1  <O>11       0.1355
  21 F1        3.2151     1.3995    -6.2566  F       1  <O>11      -0.2047
  22 N3        1.0300     1.5280    -3.6100  N.am    1  <O>11      -0.2945
  23 C17      -0.1600     2.3540    -3.3820  C.3     1  <O>11       0.0308
  24 C18       0.1830     3.8530    -3.5260  C.3     1  <O>11       0.0305
  25 N4        1.3600     4.2240    -2.6200  N.am    1  <O>11      -0.2983
  26 C19       1.4040     5.2240    -1.7000  C.2     1  <O>11       0.2187
  27 O3        0.4290     5.9410    -1.5300  O.2     1  <O>11      -0.2753
  28 C20       2.6190     5.4420    -0.9120  C.3     1  <O>11       0.0358
  29 C21       3.7029     5.6016    -1.5371  C.3     1  <O>11      -0.0412
  30 C22       2.9864     6.6311    -0.7175  C.3     1  <O>11      -0.0412
  31 C23       2.5680     3.3120    -2.8520  C.3     1  <O>11       0.0305
  32 C24       2.1390     1.8430    -2.7100  C.3     1  <O>11       0.0308
  33 H1        3.8872    -3.1041    -2.2016  H       1  <O>11       0.0377
  34 H2        4.9504    -3.7457    -3.4754  H       1  <O>11       0.0377
  35 H3       -0.0908    -5.3213    -2.7016  H       1  <O>11       0.1921
  36 H4       -0.9250     2.0900    -4.1120  H       1  <O>11       0.0480
  37 H5       -0.5380     2.1680    -2.3760  H       1  <O>11       0.0480
  38 H6        0.4490     4.0620    -4.5620  H       1  <O>11       0.0480
  39 H7       -0.6860     4.4480    -3.2460  H       1  <O>11       0.0480
  40 H8        2.6237     4.7639    -0.0568  H       1  <O>11       0.0394
  41 H9        4.6280     5.1457    -1.1839  H       1  <O>11       0.0273
  42 H10       3.7196     5.6617    -2.6255  H       1  <O>11       0.0273
  43 H11       3.3752     6.9486     0.2511  H       1  <O>11       0.0273
  44 H12       2.4669     7.4656    -1.1915  H       1  <O>11       0.0273
  45 H13       2.9610     3.4790    -3.8550  H       1  <O>11       0.0480
  46 H14       3.3390     3.5370    -2.1160  H       1  <O>11       0.0480
  47 H15       2.9850     1.2000    -2.9510  H       1  <O>11       0.0480
  48 H16       1.8250     1.6620    -1.6820  H       1  <O>11       0.0480
  49 H17       1.8314    -1.7221    -3.3132  H       1  <O>11       0.0629
  50 H18       1.7536    -7.8807    -6.1965  H       1  <O>11       0.0625
  51 H19       3.7966    -7.7806    -7.4913  H       1  <O>11       0.0618
  52 H20       5.4494    -6.0718    -7.0164  H       1  <O>11       0.0618
  53 H21       5.0573    -4.4678    -5.2479  H       1  <O>11       0.0624
  54 H22       5.6766    -2.1629    -4.9719  H       1  <O>11       0.0621
  55 H23       5.3470    -0.1256    -6.2553  H       1  <O>11       0.0646
@<TRIPOS>BOND
     1     1     2    2
     2     2     3    1
     3     3     4   ar
     4     4     5   ar
     5     5     6    1
     6     6     7    1
     7     7     8   ar
     8     8     9   ar
     9     9    10   ar
    10    10    11    2
    11    10    12   ar
    12    12    13   ar
    13    13    14   ar
    14    14    15   ar
    15    15    16   ar
    16    16    17   ar
    17     7    17   ar
    18    12    17   ar
    19     5    18   ar
    20    18    19   ar
    21    19    20   ar
    22     3    20   ar
    23    20    21    1
    24     2    22   am
    25    22    23    1
    26    23    24    1
    27    24    25    1
    28    25    26   am
    29    26    27    2
    30    26    28    1
    31    28    29    1
    32    29    30    1
    33    28    30    1
    34    25    31    1
    35    31    32    1
    36    22    32    1
    37     6    33    1
    38     6    34    1
    39     9    35    1
    40    23    36    1
    41    23    37    1
    42    24    38    1
    43    24    39    1
    44    28    40    1
    45    29    41    1
    46    29    42    1
    47    30    43    1
    48    30    44    1
    49    31    45    1
    50    31    46    1
    51    32    47    1
    52    32    48    1
    53     4    49    1
    54    13    50    1
    55    14    51    1
    56    15    52    1
    57    16    53    1
    58    18    54    1
    59    19    55    1
@<TRIPOS>MOLECULE
mol2_1_8
 55 59 0 0 0
SMALL
USER_CHARGES
****
VDW energy = -20.12
@<TRIPOS>ATOM
   1 O1        0.2060     0.3063    -5.2918  O.2     1  <O>11      -0.2699
   2 C1        1.1449     0.5535    -4.5497  C.2     1  <O>11       0.2495
   3 C2        2.3880    -0.1970    -4.6730  C.ar    1  <O>11       0.0723
   4 C3        3.4071     0.2547    -5.5291  C.ar    1  <O>11      -0.0433
   5 C4        4.5948    -0.4725    -5.6565  C.ar    1  <O>11      -0.0406
   6 C5        5.6550     0.0106    -6.5623  C.3     1  <O>11       0.0171
   7 C6        6.9249    -0.7007    -6.2614  C.ar    1  <O>11       0.0736
   8 N1        7.8137    -0.1732    -5.3165  N.ar    1  <O>11      -0.1750
   9 N2        9.0189    -0.7527    -5.1079  N.ar    1  <O>11      -0.2425
  10 C7        9.3503    -1.8577    -5.8160  C.ar    1  <O>11       0.2725
  11 O2       10.6534    -2.3528    -5.6213  O.2     1  <O>11      -0.2658
  12 C8        8.4791    -2.5074    -6.7024  C.ar    1  <O>11       0.0496
  13 C9        8.8007    -3.6937    -7.3993  C.ar    1  <O>11      -0.0487
  14 C10       7.8977    -4.2712    -8.2936  C.ar    1  <O>11      -0.0610
  15 C11       6.6628    -3.6719    -8.5138  C.ar    1  <O>11      -0.0611
  16 C12       6.3313    -2.4960    -7.8406  C.ar    1  <O>11      -0.0521
  17 C13       7.2293    -1.9012    -6.9251  C.ar    1  <O>11       0.0106
  18 C14       4.7797    -1.6517    -4.9298  C.ar    1  <O>11      -0.0555
  19 C15       3.7672    -2.0978    -4.0724  C.ar    1  <O>11      -0.0254
  20 C16       2.5791    -1.3782    -3.9373  C.ar    1  <O>11       0.1355
  21 F1        1.5904    -1.8113    -3.0923  F       1  <O>11      -0.2047
  22 N3        1.0300     1.5280    -3.6100  N.am    1  <O>11      -0.2945
  23 C17       2.0762     1.9226    -2.6612  C.3     1  <O>11       0.0308
  24 C18       1.5733     1.7815    -1.2078  C.3     1  <O>11       0.0305
  25 N4        0.2620     2.5482    -1.0164  N.am    1  <O>11      -0.2983
  26 C19      -0.0103     3.4846    -0.0691  C.2     1  <O>11       0.2187
  27 O3       -1.1094     4.0178    -0.0354  O.2     1  <O>11      -0.2753
  28 C20       1.0127     3.8541     0.9116  C.3     1  <O>11       0.0358
  29 C21       2.1352     4.2290     0.4754  C.3     1  <O>11      -0.0412
  30 C22       1.1335     5.0739     1.2018  C.3     1  <O>11      -0.0412
  31 C23      -0.7910     2.1449    -2.0524  C.3     1  <O>11       0.0305
  32 C24      -0.2067     2.2954    -3.4660  C.3     1  <O>11       0.0308
  33 H1        5.7960     1.0810    -6.4194  H       1  <O>11       0.0377
  34 H2        5.3663    -0.1829    -7.5952  H       1  <O>11       0.0377
  35 H3        9.6625    -0.3651    -4.4321  H       1  <O>11       0.1921
  36 H4        2.9477     1.2836    -2.8022  H       1  <O>11       0.0480
  37 H5        2.3535     2.9613    -2.8451  H       1  <O>11       0.0480
  38 H6        1.4071     0.7273    -0.9867  H       1  <O>11       0.0480
  39 H7        2.3250     2.1821    -0.5280  H       1  <O>11       0.0480
  40 H8        1.0038     3.1363     1.7336  H       1  <O>11       0.0394
  41 H9        3.0602     3.9132     0.9583  H       1  <O>11       0.0273
  42 H10       2.3082     4.3563    -0.5935  H       1  <O>11       0.0273
  43 H11       1.3078     5.3931     2.2303  H       1  <O>11       0.0273
  44 H12       0.5559     5.8373     0.6777  H       1  <O>11       0.0273
  45 H13      -1.0811     1.1069    -1.8892  H       1  <O>11       0.0480
  46 H14      -1.6644     2.7880    -1.9511  H       1  <O>11       0.0480
  47 H15      -0.9345     1.9349    -4.1924  H       1  <O>11       0.0480
  48 H16       0.0043     3.3482    -3.6533  H       1  <O>11       0.0480
  49 H17       3.2783     1.1266    -6.0659  H       1  <O>11       0.0629
  50 H18       9.7181    -4.1404    -7.2447  H       1  <O>11       0.0625
  51 H19       8.1463    -5.1411    -8.7901  H       1  <O>11       0.0618
  52 H20       5.9927    -4.0961    -9.1741  H       1  <O>11       0.0618
  53 H21       5.4154    -2.0530    -8.0138  H       1  <O>11       0.0624
  54 H22       5.6555    -2.1892    -5.0244  H       1  <O>11       0.0621
  55 H23       3.9008    -2.9682    -3.5343  H       1  <O>11       0.0646
@<TRIPOS>BOND
     1     1     2    2
     2     2     3    1
     3     3     4   ar
     4     4     5   ar
     5     5     6    1
     6     6     7    1
     7     7     8   ar
     8     8     9   ar
     9     9    10   ar
    10    10    11    2
    11    10    12   ar
    12    12    13   ar
    13    13    14   ar
    14    14    15   ar
    15    15    16   ar
    16    16    17   ar
    17     7    17   ar
    18    12    17   ar
    19     5    18   ar
    20    18    19   ar
    21    19    20   ar
    22     3    20   ar
    23    20    21    1
    24     2    22   am
    25    22    23    1
    26    23    24    1
    27    24    25    1
    28    25    26   am
    29    26    27    2
    30    26    28    1
    31    28    29    1
    32    29    30    1
    33    28    30    1
    34    25    31    1
    35    31    32    1
    36    22    32    1
    37     6    33    1
    38     6    34    1
    39     9    35    1
    40    23    36    1
    41    23    37    1
    42    24    38    1
    43    24    39    1
    44    28    40    1
    45    29    41    1
    46    29    42    1
    47    30    43    1
    48    30    44    1
    49    31    45    1
    50    31    46    1
    51    32    47    1
    52    32    48    1
    53     4    49    1
    54    13    50    1
    55    14    51    1
    56    15    52    1
    57    16    53    1
    58    18    54    1
    59    19    55    1
@<TRIPOS>MOLECULE
mol2_1_9
 55 59 0 0 0
SMALL
USER_CHARGES
****
VDW energy = -19.71
@<TRIPOS>ATOM
   1 O1        0.2060     0.3063    -5.2918  O.2     1  <O>11      -0.2699
   2 C1        1.1449     0.5535    -4.5497  C.2     1  <O>11       0.2495
   3 C2        2.3880    -0.1970    -4.6730  C.ar    1  <O>11       0.0723
   4 C3        3.4071     0.2547    -5.5291  C.ar    1  <O>11      -0.0433
   5 C4        4.5948    -0.4725    -5.6565  C.ar    1  <O>11      -0.0406
   6 C5        5.6550     0.0106    -6.5623  C.3     1  <O>11       0.0171
   7 C6        6.9249    -0.7007    -6.2614  C.ar    1  <O>11       0.0736
   8 N1        7.5478    -1.4674    -7.2538  N.ar    1  <O>11      -0.1750
   9 N2        8.6465    -2.2035    -6.9657  N.ar    1  <O>11      -0.2425
  10 C7        9.1442    -2.1796    -5.7070  C.ar    1  <O>11       0.2725
  11 O2       10.2277    -3.0407    -5.4510  O.2     1  <O>11      -0.2658
  12 C8        8.6436    -1.3601    -4.6850  C.ar    1  <O>11       0.0496
  13 C9        9.1965    -1.2894    -3.3866  C.ar    1  <O>11      -0.0487
  14 C10       8.6281    -0.4760    -2.4048  C.ar    1  <O>11      -0.0610
  15 C11       7.4950     0.2740    -2.6984  C.ar    1  <O>11      -0.0611
  16 C12       6.9308     0.2106    -3.9725  C.ar    1  <O>11      -0.0521
  17 C13       7.4973    -0.6008    -4.9820  C.ar    1  <O>11       0.0106
  18 C14       4.7797    -1.6517    -4.9298  C.ar    1  <O>11      -0.0555
  19 C15       3.7672    -2.0978    -4.0724  C.ar    1  <O>11      -0.0254
  20 C16       2.5791    -1.3782    -3.9373  C.ar    1  <O>11       0.1355
  21 F1        1.5904    -1.8113    -3.0923  F       1  <O>11      -0.2047
  22 N3        1.0300     1.5280    -3.6100  N.am    1  <O>11      -0.2945
  23 C17       2.0762     1.9226    -2.6612  C.3     1  <O>11       0.0308
  24 C18       1.5733     1.7815    -1.2078  C.3     1  <O>11       0.0305
  25 N4        0.2620     2.5482    -1.0164  N.am    1  <O>11      -0.2983
  26 C19      -0.0103     3.4846    -0.0691  C.2     1  <O>11       0.2187
  27 O3       -1.1094     4.0178    -0.0354  O.2     1  <O>11      -0.2753
  28 C20       1.0127     3.8541     0.9116  C.3     1  <O>11       0.0358
  29 C21       0.6487     4.5290     1.9130  C.3     1  <O>11      -0.0412
  30 C22       1.1485     3.1166     1.9237  C.3     1  <O>11      -0.0412
  31 C23      -0.7910     2.1449    -2.0524  C.3     1  <O>11       0.0305
  32 C24      -0.2067     2.2954    -3.4660  C.3     1  <O>11       0.0308
  33 H1        5.7960     1.0810    -6.4194  H       1  <O>11       0.0377
  34 H2        5.3663    -0.1829    -7.5952  H       1  <O>11       0.0377
  35 H3        9.0891    -2.7632    -7.6811  H       1  <O>11       0.1921
  36 H4        2.9477     1.2836    -2.8022  H       1  <O>11       0.0480
  37 H5        2.3535     2.9613    -2.8451  H       1  <O>11       0.0480
  38 H6        1.4071     0.7273    -0.9867  H       1  <O>11       0.0480
  39 H7        2.3250     2.1821    -0.5280  H       1  <O>11       0.0480
  40 H8        1.9178     4.1708     0.3904  H       1  <O>11       0.0394
  41 H9        1.2623     5.3456     2.2940  H       1  <O>11       0.0273
  42 H10      -0.4040     4.7541     2.0858  H       1  <O>11       0.0273
  43 H11       2.1377     2.8733     2.3140  H       1  <O>11       0.0273
  44 H12       0.4704     2.2812     2.1067  H       1  <O>11       0.0273
  45 H13      -1.0811     1.1069    -1.8892  H       1  <O>11       0.0480
  46 H14      -1.6644     2.7880    -1.9511  H       1  <O>11       0.0480
  47 H15      -0.9345     1.9349    -4.1924  H       1  <O>11       0.0480
  48 H16       0.0043     3.3482    -3.6533  H       1  <O>11       0.0480
  49 H17       3.2783     1.1266    -6.0659  H       1  <O>11       0.0629
  50 H18      10.0342    -1.8482    -3.1605  H       1  <O>11       0.0625
  51 H19       9.0480    -0.4316    -1.4631  H       1  <O>11       0.0618
  52 H20       7.0722     0.8766    -1.9751  H       1  <O>11       0.0618
  53 H21       6.0859     0.7652    -4.1816  H       1  <O>11       0.0624
  54 H22       5.6555    -2.1892    -5.0244  H       1  <O>11       0.0621
  55 H23       3.9008    -2.9682    -3.5343  H       1  <O>11       0.0646
@<TRIPOS>BOND
     1     1     2    2
     2     2     3    1
     3     3     4   ar
     4     4     5   ar
     5     5     6    1
     6     6     7    1
     7     7     8   ar
     8     8     9   ar
     9     9    10   ar
    10    10    11    2
    11    10    12   ar
    12    12    13   ar
    13    13    14   ar
    14    14    15   ar
    15    15    16   ar
    16    16    17   ar
    17     7    17   ar
    18    12    17   ar
    19     5    18   ar
    20    18    19   ar
    21    19    20   ar
    22     3    20   ar
    23    20    21    1
    24     2    22   am
    25    22    23    1
    26    23    24    1
    27    24    25    1
    28    25    26   am
    29    26    27    2
    30    26    28    1
    31    28    29    1
    32    29    30    1
    33    28    30    1
    34    25    31    1
    35    31    32    1
    36    22    32    1
    37     6    33    1
    38     6    34    1
    39     9    35    1
    40    23    36    1
    41    23    37    1
    42    24    38    1
    43    24    39    1
    44    28    40    1
    45    29    41    1
    46    29    42    1
    47    30    43    1
    48    30    44    1
    49    31    45    1
    50    31    46    1
    51    32    47    1
    52    32    48    1
    53     4    49    1
    54    13    50    1
    55    14    51    1
    56    15    52    1
    57    16    53    1
    58    18    54    1
    59    19    55    1
@<TRIPOS>MOLECULE
mol2_1_10
 55 59 0 0 0
SMALL
USER_CHARGES
****
VDW energy = -19.07
@<TRIPOS>ATOM
   1 O1        0.2060     0.3063    -5.2918  O.2     1  <O>11      -0.2699
   2 C1        1.1449     0.5535    -4.5497  C.2     1  <O>11       0.2495
   3 C2        2.3880    -0.1970    -4.6730  C.ar    1  <O>11       0.0723
   4 C3        3.4071     0.2547    -5.5291  C.ar    1  <O>11      -0.0433
   5 C4        4.5948    -0.4725    -5.6565  C.ar    1  <O>11      -0.0406
   6 C5        5.6550     0.0106    -6.5623  C.3     1  <O>11       0.0171
   7 C6        6.9249    -0.7007    -6.2614  C.ar    1  <O>11       0.0736
   8 N1        7.8137    -0.1732    -5.3165  N.ar    1  <O>11      -0.1750
   9 N2        9.0189    -0.7527    -5.1079  N.ar    1  <O>11      -0.2425
  10 C7        9.3503    -1.8577    -5.8160  C.ar    1  <O>11       0.2725
  11 O2       10.6534    -2.3528    -5.6213  O.2     1  <O>11      -0.2658
  12 C8        8.4791    -2.5074    -6.7024  C.ar    1  <O>11       0.0496
  13 C9        8.8007    -3.6937    -7.3993  C.ar    1  <O>11      -0.0487
  14 C10       7.8977    -4.2712    -8.2936  C.ar    1  <O>11      -0.0610
  15 C11       6.6628    -3.6719    -8.5138  C.ar    1  <O>11      -0.0611
  16 C12       6.3313    -2.4960    -7.8406  C.ar    1  <O>11      -0.0521
  17 C13       7.2293    -1.9012    -6.9251  C.ar    1  <O>11       0.0106
  18 C14       4.7797    -1.6517    -4.9298  C.ar    1  <O>11      -0.0555
  19 C15       3.7672    -2.0978    -4.0724  C.ar    1  <O>11      -0.0254
  20 C16       2.5791    -1.3782    -3.9373  C.ar    1  <O>11       0.1355
  21 F1        1.5904    -1.8113    -3.0923  F       1  <O>11      -0.2047
  22 N3        1.0300     1.5280    -3.6100  N.am    1  <O>11      -0.2945
  23 C17      -0.1600     2.3540    -3.3820  C.3     1  <O>11       0.0308
  24 C18       0.1830     3.8530    -3.5260  C.3     1  <O>11       0.0305
  25 N4        1.3600     4.2240    -2.6200  N.am    1  <O>11      -0.2983
  26 C19       1.4040     5.2240    -1.7000  C.2     1  <O>11       0.2187
  27 O3        2.4187     5.4060    -1.0437  O.2     1  <O>11      -0.2753
  28 C20       0.2362     6.0837    -1.4956  C.3     1  <O>11       0.0358
  29 C21      -0.8649     5.5258    -1.2362  C.3     1  <O>11      -0.0412
  30 C22      -0.0649     6.3923    -0.3120  C.3     1  <O>11      -0.0412
  31 C23       2.5680     3.3120    -2.8520  C.3     1  <O>11       0.0305
  32 C24       2.1390     1.8430    -2.7100  C.3     1  <O>11       0.0308
  33 H1        5.7960     1.0810    -6.4194  H       1  <O>11       0.0377
  34 H2        5.3663    -0.1829    -7.5952  H       1  <O>11       0.0377
  35 H3        9.6625    -0.3651    -4.4321  H       1  <O>11       0.1921
  36 H4       -0.9250     2.0900    -4.1120  H       1  <O>11       0.0480
  37 H5       -0.5380     2.1680    -2.3760  H       1  <O>11       0.0480
  38 H6        0.4490     4.0620    -4.5620  H       1  <O>11       0.0480
  39 H7       -0.6860     4.4480    -3.2460  H       1  <O>11       0.0480
  40 H8        0.2361     6.8797    -2.2423  H       1  <O>11       0.0394
  41 H9       -1.7946     5.8837    -1.6788  H       1  <O>11       0.0273
  42 H10      -0.9259     4.4479    -1.0840  H       1  <O>11       0.0273
  43 H11      -0.3956     7.4010    -0.0602  H       1  <O>11       0.0273
  44 H12       0.4730     5.9644     0.5357  H       1  <O>11       0.0273
  45 H13       2.9610     3.4790    -3.8550  H       1  <O>11       0.0480
  46 H14       3.3390     3.5370    -2.1160  H       1  <O>11       0.0480
  47 H15       2.9850     1.2000    -2.9510  H       1  <O>11       0.0480
  48 H16       1.8250     1.6620    -1.6820  H       1  <O>11       0.0480
  49 H17       3.2783     1.1266    -6.0659  H       1  <O>11       0.0629
  50 H18       9.7181    -4.1404    -7.2447  H       1  <O>11       0.0625
  51 H19       8.1463    -5.1411    -8.7901  H       1  <O>11       0.0618
  52 H20       5.9927    -4.0961    -9.1741  H       1  <O>11       0.0618
  53 H21       5.4154    -2.0530    -8.0138  H       1  <O>11       0.0624
  54 H22       5.6555    -2.1892    -5.0244  H       1  <O>11       0.0621
  55 H23       3.9008    -2.9682    -3.5343  H       1  <O>11       0.0646
@<TRIPOS>BOND
     1     1     2    2
     2     2     3    1
     3     3     4   ar
     4     4     5   ar
     5     5     6    1
     6     6     7    1
     7     7     8   ar
     8     8     9   ar
     9     9    10   ar
    10    10    11    2
    11    10    12   ar
    12    12    13   ar
    13    13    14   ar
    14    14    15   ar
    15    15    16   ar
    16    16    17   ar
    17     7    17   ar
    18    12    17   ar
    19     5    18   ar
    20    18    19   ar
    21    19    20   ar
    22     3    20   ar
    23    20    21    1
    24     2    22   am
    25    22    23    1
    26    23    24    1
    27    24    25    1
    28    25    26   am
    29    26    27    2
    30    26    28    1
    31    28    29    1
    32    29    30    1
    33    28    30    1
    34    25    31    1
    35    31    32    1
    36    22    32    1
    37     6    33    1
    38     6    34    1
    39     9    35    1
    40    23    36    1
    41    23    37    1
    42    24    38    1
    43    24    39    1
    44    28    40    1
    45    29    41    1
    46    29    42    1
    47    30    43    1
    48    30    44    1
    49    31    45    1
    50    31    46    1
    51    32    47    1
    52    32    48    1
    53     4    49    1
    54    13    50    1
    55    14    51    1
    56    15    52    1
    57    16    53    1
    58    18    54    1
    59    19    55    1
@<TRIPOS>MOLECULE
mol2_1_11
 55 59 0 0 0
SMALL
USER_CHARGES
****
VDW energy = -18.53
@<TRIPOS>ATOM
   1 O1        0.2060     0.3063    -5.2918  O.2     1  <O>11      -0.2699
   2 C1        1.1449     0.5535    -4.5497  C.2     1  <O>11       0.2495
   3 C2        2.3880    -0.1970    -4.6730  C.ar    1  <O>11       0.0723
   4 C3        3.4071     0.2547    -5.5291  C.ar    1  <O>11      -0.0433
   5 C4        4.5948    -0.4725    -5.6565  C.ar    1  <O>11      -0.0406
   6 C5        5.6550     0.0106    -6.5623  C.3     1  <O>11       0.0171
   7 C6        6.9249    -0.7007    -6.2614  C.ar    1  <O>11       0.0736
   8 N1        7.5478    -1.4674    -7.2538  N.ar    1  <O>11      -0.1750
   9 N2        8.6465    -2.2035    -6.9657  N.ar    1  <O>11      -0.2425
  10 C7        9.1442    -2.1796    -5.7070  C.ar    1  <O>11       0.2725
  11 O2       10.2277    -3.0407    -5.4510  O.2     1  <O>11      -0.2658
  12 C8        8.6436    -1.3601    -4.6850  C.ar    1  <O>11       0.0496
  13 C9        9.1965    -1.2894    -3.3866  C.ar    1  <O>11      -0.0487
  14 C10       8.6281    -0.4760    -2.4048  C.ar    1  <O>11      -0.0610
  15 C11       7.4950     0.2740    -2.6984  C.ar    1  <O>11      -0.0611
  16 C12       6.9308     0.2106    -3.9725  C.ar    1  <O>11      -0.0521
  17 C13       7.4973    -0.6008    -4.9820  C.ar    1  <O>11       0.0106
  18 C14       4.7797    -1.6517    -4.9298  C.ar    1  <O>11      -0.0555
  19 C15       3.7672    -2.0978    -4.0724  C.ar    1  <O>11      -0.0254
  20 C16       2.5791    -1.3782    -3.9373  C.ar    1  <O>11       0.1355
  21 F1        1.5904    -1.8113    -3.0923  F       1  <O>11      -0.2047
  22 N3        1.0300     1.5280    -3.6100  N.am    1  <O>11      -0.2945
  23 C17      -0.1601     2.3538    -3.3819  C.3     1  <O>11       0.0308
  24 C18       0.1827     3.8529    -3.5259  C.3     1  <O>11       0.0305
  25 N4        1.3598     4.2241    -2.6201  N.am    1  <O>11      -0.2983
  26 C19       1.4038     5.2241    -1.7001  C.2     1  <O>11       0.2187
  27 O3        2.4186     5.4062    -1.0439  O.2     1  <O>11      -0.2753
  28 C20       0.2359     6.0837    -1.4956  C.3     1  <O>11       0.0358
  29 C21       0.3957     7.1410    -0.8266  C.3     1  <O>11      -0.0412
  30 C22       0.0731     7.0501    -2.2870  C.3     1  <O>11      -0.0412
  31 C23       2.5679     3.3122    -2.8522  C.3     1  <O>11       0.0305
  32 C24       2.1391     1.8432    -2.7102  C.3     1  <O>11       0.0308
  33 H1        5.7960     1.0810    -6.4194  H       1  <O>11       0.0377
  34 H2        5.3663    -0.1829    -7.5952  H       1  <O>11       0.0377
  35 H3        9.0891    -2.7632    -7.6811  H       1  <O>11       0.1921
  36 H4       -0.9251     2.0897    -4.1117  H       1  <O>11       0.0480
  37 H5       -0.5379     2.1678    -2.3758  H       1  <O>11       0.0480
  38 H6        0.4485     4.0619    -4.5620  H       1  <O>11       0.0480
  39 H7       -0.6863     4.4478    -3.2458  H       1  <O>11       0.0480
  40 H8       -0.6337     5.4659    -1.2647  H       1  <O>11       0.0394
  41 H9       -0.3528     7.4681    -0.1047  H       1  <O>11       0.0273
  42 H10       1.3857     7.4467    -0.4876  H       1  <O>11       0.0273
  43 H11      -0.9181     7.3103    -2.6610  H       1  <O>11       0.0273
  44 H12       0.8214     7.2898    -3.0444  H       1  <O>11       0.0273
  45 H13       2.9607     3.4792    -3.8553  H       1  <O>11       0.0480
  46 H14       3.3389     3.5373    -2.1163  H       1  <O>11       0.0480
  47 H15       2.9851     1.2003    -2.9513  H       1  <O>11       0.0480
  48 H16       1.8252     1.6621    -1.6821  H       1  <O>11       0.0480
  49 H17       3.2783     1.1266    -6.0659  H       1  <O>11       0.0629
  50 H18      10.0342    -1.8482    -3.1605  H       1  <O>11       0.0625
  51 H19       9.0480    -0.4316    -1.4631  H       1  <O>11       0.0618
  52 H20       7.0722     0.8766    -1.9751  H       1  <O>11       0.0618
  53 H21       6.0859     0.7652    -4.1816  H       1  <O>11       0.0624
  54 H22       5.6555    -2.1892    -5.0244  H       1  <O>11       0.0621
  55 H23       3.9008    -2.9682    -3.5343  H       1  <O>11       0.0646
@<TRIPOS>BOND
     1     1     2    2
     2     2     3    1
     3     3     4   ar
     4     4     5   ar
     5     5     6    1
     6     6     7    1
     7     7     8   ar
     8     8     9   ar
     9     9    10   ar
    10    10    11    2
    11    10    12   ar
    12    12    13   ar
    13    13    14   ar
    14    14    15   ar
    15    15    16   ar
    16    16    17   ar
    17     7    17   ar
    18    12    17   ar
    19     5    18   ar
    20    18    19   ar
    21    19    20   ar
    22     3    20   ar
    23    20    21    1
    24     2    22   am
    25    22    23    1
    26    23    24    1
    27    24    25    1
    28    25    26   am
    29    26    27    2
    30    26    28    1
    31    28    29    1
    32    29    30    1
    33    28    30    1
    34    25    31    1
    35    31    32    1
    36    22    32    1
    37     6    33    1
    38     6    34    1
    39     9    35    1
    40    23    36    1
    41    23    37    1
    42    24    38    1
    43    24    39    1
    44    28    40    1
    45    29    41    1
    46    29    42    1
    47    30    43    1
    48    30    44    1
    49    31    45    1
    50    31    46    1
    51    32    47    1
    52    32    48    1
    53     4    49    1
    54    13    50    1
    55    14    51    1
    56    15    52    1
    57    16    53    1
    58    18    54    1
    59    19    55    1
@<TRIPOS>MOLECULE
mol2_1_12
 55 59 0 0 0
SMALL
USER_CHARGES
****
VDW energy = -18.22
@<TRIPOS>ATOM
   1 O1        0.2060     0.3063    -5.2918  O.2     1  <O>11      -0.2699
   2 C1        1.1449     0.5535    -4.5497  C.2     1  <O>11       0.2495
   3 C2        2.3880    -0.1970    -4.6730  C.ar    1  <O>11       0.0723
   4 C3        3.4071     0.2547    -5.5291  C.ar    1  <O>11      -0.0433
   5 C4        4.5948    -0.4725    -5.6565  C.ar    1  <O>11      -0.0406
   6 C5        5.6550     0.0106    -6.5623  C.3     1  <O>11       0.0171
   7 C6        6.9249    -0.7007    -6.2614  C.ar    1  <O>11       0.0736
   8 N1        7.8137    -0.1732    -5.3165  N.ar    1  <O>11      -0.1750
   9 N2        9.0189    -0.7527    -5.1079  N.ar    1  <O>11      -0.2425
  10 C7        9.3503    -1.8577    -5.8160  C.ar    1  <O>11       0.2725
  11 O2       10.6534    -2.3528    -5.6213  O.2     1  <O>11      -0.2658
  12 C8        8.4791    -2.5074    -6.7024  C.ar    1  <O>11       0.0496
  13 C9        8.8007    -3.6937    -7.3993  C.ar    1  <O>11      -0.0487
  14 C10       7.8977    -4.2712    -8.2936  C.ar    1  <O>11      -0.0610
  15 C11       6.6628    -3.6719    -8.5138  C.ar    1  <O>11      -0.0611
  16 C12       6.3313    -2.4960    -7.8406  C.ar    1  <O>11      -0.0521
  17 C13       7.2293    -1.9012    -6.9251  C.ar    1  <O>11       0.0106
  18 C14       4.7797    -1.6517    -4.9298  C.ar    1  <O>11      -0.0555
  19 C15       3.7672    -2.0978    -4.0724  C.ar    1  <O>11      -0.0254
  20 C16       2.5791    -1.3782    -3.9373  C.ar    1  <O>11       0.1355
  21 F1        1.5904    -1.8113    -3.0923  F       1  <O>11      -0.2047
  22 N3        1.0300     1.5280    -3.6100  N.am    1  <O>11      -0.2945
  23 C17      -0.1601     2.3538    -3.3819  C.3     1  <O>11       0.0308
  24 C18       0.1827     3.8529    -3.5259  C.3     1  <O>11       0.0305
  25 N4        1.3598     4.2241    -2.6201  N.am    1  <O>11      -0.2983
  26 C19       1.4038     5.2241    -1.7001  C.2     1  <O>11       0.2187
  27 O3        0.4285     5.9406    -1.5296  O.2     1  <O>11      -0.2753
  28 C20       2.6191     5.4427    -0.9128  C.3     1  <O>11       0.0358
  29 C21       2.5393     6.2030     0.0905  C.3     1  <O>11      -0.0412
  30 C22       2.7929     4.7264     0.1088  C.3     1  <O>11      -0.0412
  31 C23       2.5679     3.3122    -2.8522  C.3     1  <O>11       0.0305
  32 C24       2.1391     1.8432    -2.7102  C.3     1  <O>11       0.0308
  33 H1        5.7960     1.0810    -6.4194  H       1  <O>11       0.0377
  34 H2        5.3663    -0.1829    -7.5952  H       1  <O>11       0.0377
  35 H3        9.6625    -0.3651    -4.4321  H       1  <O>11       0.1921
  36 H4       -0.9251     2.0897    -4.1117  H       1  <O>11       0.0480
  37 H5       -0.5379     2.1678    -2.3758  H       1  <O>11       0.0480
  38 H6        0.4485     4.0619    -4.5620  H       1  <O>11       0.0480
  39 H7       -0.6863     4.4478    -3.2458  H       1  <O>11       0.0480
  40 H8        3.4676     5.5804    -1.5853  H       1  <O>11       0.0394
  41 H9        3.3334     6.9129     0.3226  H       1  <O>11       0.0273
  42 H10       1.5807     6.6127     0.4096  H       1  <O>11       0.0273
  43 H11       3.7781     4.3283     0.3559  H       1  <O>11       0.0273
  44 H12       2.0244     4.0277     0.4439  H       1  <O>11       0.0273
  45 H13       2.9607     3.4792    -3.8553  H       1  <O>11       0.0480
  46 H14       3.3389     3.5373    -2.1163  H       1  <O>11       0.0480
  47 H15       2.9851     1.2003    -2.9513  H       1  <O>11       0.0480
  48 H16       1.8252     1.6621    -1.6821  H       1  <O>11       0.0480
  49 H17       3.2783     1.1266    -6.0659  H       1  <O>11       0.0629
  50 H18       9.7181    -4.1404    -7.2447  H       1  <O>11       0.0625
  51 H19       8.1463    -5.1411    -8.7901  H       1  <O>11       0.0618
  52 H20       5.9927    -4.0961    -9.1741  H       1  <O>11       0.0618
  53 H21       5.4154    -2.0530    -8.0138  H       1  <O>11       0.0624
  54 H22       5.6555    -2.1892    -5.0244  H       1  <O>11       0.0621
  55 H23       3.9008    -2.9682    -3.5343  H       1  <O>11       0.0646
@<TRIPOS>BOND
     1     1     2    2
     2     2     3    1
     3     3     4   ar
     4     4     5   ar
     5     5     6    1
     6     6     7    1
     7     7     8   ar
     8     8     9   ar
     9     9    10   ar
    10    10    11    2
    11    10    12   ar
    12    12    13   ar
    13    13    14   ar
    14    14    15   ar
    15    15    16   ar
    16    16    17   ar
    17     7    17   ar
    18    12    17   ar
    19     5    18   ar
    20    18    19   ar
    21    19    20   ar
    22     3    20   ar
    23    20    21    1
    24     2    22   am
    25    22    23    1
    26    23    24    1
    27    24    25    1
    28    25    26   am
    29    26    27    2
    30    26    28    1
    31    28    29    1
    32    29    30    1
    33    28    30    1
    34    25    31    1
    35    31    32    1
    36    22    32    1
    37     6    33    1
    38     6    34    1
    39     9    35    1
    40    23    36    1
    41    23    37    1
    42    24    38    1
    43    24    39    1
    44    28    40    1
    45    29    41    1
    46    29    42    1
    47    30    43    1
    48    30    44    1
    49    31    45    1
    50    31    46    1
    51    32    47    1
    52    32    48    1
    53     4    49    1
    54    13    50    1
    55    14    51    1
    56    15    52    1
    57    16    53    1
    58    18    54    1
    59    19    55    1
@<TRIPOS>MOLECULE
mol2_1_13
 55 59 0 0 0
SMALL
USER_CHARGES
****
VDW energy = -17.19
@<TRIPOS>ATOM
   1 O1        0.2060     0.3063    -5.2918  O.2     1  <O>11      -0.2699
   2 C1        1.1449     0.5535    -4.5497  C.2     1  <O>11       0.2495
   3 C2        2.3880    -0.1970    -4.6730  C.ar    1  <O>11       0.0723
   4 C3        3.4071     0.2547    -5.5291  C.ar    1  <O>11      -0.0433
   5 C4        4.5948    -0.4725    -5.6565  C.ar    1  <O>11      -0.0406
   6 C5        5.6550     0.0106    -6.5623  C.3     1  <O>11       0.0171
   7 C6        6.9249    -0.7007    -6.2614  C.ar    1  <O>11       0.0736
   8 N1        7.8137    -0.1732    -5.3165  N.ar    1  <O>11      -0.1750
   9 N2        9.0189    -0.7527    -5.1079  N.ar    1  <O>11      -0.2425
  10 C7        9.3503    -1.8577    -5.8160  C.ar    1  <O>11       0.2725
  11 O2       10.6534    -2.3528    -5.6213  O.2     1  <O>11      -0.2658
  12 C8        8.4791    -2.5074    -6.7024  C.ar    1  <O>11       0.0496
  13 C9        8.8007    -3.6937    -7.3993  C.ar    1  <O>11      -0.0487
  14 C10       7.8977    -4.2712    -8.2936  C.ar    1  <O>11      -0.0610
  15 C11       6.6628    -3.6719    -8.5138  C.ar    1  <O>11      -0.0611
  16 C12       6.3313    -2.4960    -7.8406  C.ar    1  <O>11      -0.0521
  17 C13       7.2293    -1.9012    -6.9251  C.ar    1  <O>11       0.0106
  18 C14       4.7797    -1.6517    -4.9298  C.ar    1  <O>11      -0.0555
  19 C15       3.7672    -2.0978    -4.0724  C.ar    1  <O>11      -0.0254
  20 C16       2.5791    -1.3782    -3.9373  C.ar    1  <O>11       0.1355
  21 F1        1.5904    -1.8113    -3.0923  F       1  <O>11      -0.2047
  22 N3        1.0300     1.5280    -3.6100  N.am    1  <O>11      -0.2945
  23 C17       2.0762     1.9226    -2.6612  C.3     1  <O>11       0.0308
  24 C18       1.5733     1.7815    -1.2078  C.3     1  <O>11       0.0305
  25 N4        0.2620     2.5482    -1.0164  N.am    1  <O>11      -0.2983
  26 C19      -0.0103     3.4846    -0.0691  C.2     1  <O>11       0.2187
  27 O3        0.8440     3.7924     0.7489  O.2     1  <O>11      -0.2753
  28 C20      -1.3266     4.1252    -0.0288  C.3     1  <O>11       0.0358
  29 C21      -2.3411     3.3780     0.0299  C.3     1  <O>11      -0.0412
  30 C22      -1.8556     4.3080     1.0996  C.3     1  <O>11      -0.0412
  31 C23      -0.7910     2.1449    -2.0524  C.3     1  <O>11       0.0305
  32 C24      -0.2067     2.2954    -3.4660  C.3     1  <O>11       0.0308
  33 H1        5.7960     1.0810    -6.4194  H       1  <O>11       0.0377
  34 H2        5.3663    -0.1829    -7.5952  H       1  <O>11       0.0377
  35 H3        9.6625    -0.3651    -4.4321  H       1  <O>11       0.1921
  36 H4        2.9477     1.2836    -2.8022  H       1  <O>11       0.0480
  37 H5        2.3535     2.9613    -2.8451  H       1  <O>11       0.0480
  38 H6        1.4071     0.7273    -0.9867  H       1  <O>11       0.0480
  39 H7        2.3250     2.1821    -0.5280  H       1  <O>11       0.0480
  40 H8       -1.3492     4.9535    -0.7391  H       1  <O>11       0.0394
  41 H9       -3.2391     3.6028    -0.5458  H       1  <O>11       0.0273
  42 H10      -2.2374     2.2977     0.1347  H       1  <O>11       0.0273
  43 H11      -2.3908     5.2309     1.3274  H       1  <O>11       0.0273
  44 H12      -1.3891     3.9249     2.0089  H       1  <O>11       0.0273
  45 H13      -1.0811     1.1069    -1.8892  H       1  <O>11       0.0480
  46 H14      -1.6644     2.7880    -1.9511  H       1  <O>11       0.0480
  47 H15      -0.9345     1.9349    -4.1924  H       1  <O>11       0.0480
  48 H16       0.0043     3.3482    -3.6533  H       1  <O>11       0.0480
  49 H17       3.2783     1.1266    -6.0659  H       1  <O>11       0.0629
  50 H18       9.7181    -4.1404    -7.2447  H       1  <O>11       0.0625
  51 H19       8.1463    -5.1411    -8.7901  H       1  <O>11       0.0618
  52 H20       5.9927    -4.0961    -9.1741  H       1  <O>11       0.0618
  53 H21       5.4154    -2.0530    -8.0138  H       1  <O>11       0.0624
  54 H22       5.6555    -2.1892    -5.0244  H       1  <O>11       0.0621
  55 H23       3.9008    -2.9682    -3.5343  H       1  <O>11       0.0646
@<TRIPOS>BOND
     1     1     2    2
     2     2     3    1
     3     3     4   ar
     4     4     5   ar
     5     5     6    1
     6     6     7    1
     7     7     8   ar
     8     8     9   ar
     9     9    10   ar
    10    10    11    2
    11    10    12   ar
    12    12    13   ar
    13    13    14   ar
    14    14    15   ar
    15    15    16   ar
    16    16    17   ar
    17     7    17   ar
    18    12    17   ar
    19     5    18   ar
    20    18    19   ar
    21    19    20   ar
    22     3    20   ar
    23    20    21    1
    24     2    22   am
    25    22    23    1
    26    23    24    1
    27    24    25    1
    28    25    26   am
    29    26    27    2
    30    26    28    1
    31    28    29    1
    32    29    30    1
    33    28    30    1
    34    25    31    1
    35    31    32    1
    36    22    32    1
    37     6    33    1
    38     6    34    1
    39     9    35    1
    40    23    36    1
    41    23    37    1
    42    24    38    1
    43    24    39    1
    44    28    40    1
    45    29    41    1
    46    29    42    1
    47    30    43    1
    48    30    44    1
    49    31    45    1
    50    31    46    1
    51    32    47    1
    52    32    48    1
    53     4    49    1
    54    13    50    1
    55    14    51    1
    56    15    52    1
    57    16    53    1
    58    18    54    1
    59    19    55    1
@<TRIPOS>MOLECULE
mol2_1_14
 55 59 0 0 0
SMALL
USER_CHARGES
****
VDW energy = -17.14
@<TRIPOS>ATOM
   1 O1        0.2060     0.3063    -5.2918  O.2     1  <O>11      -0.2699
   2 C1        1.1449     0.5535    -4.5497  C.2     1  <O>11       0.2495
   3 C2        2.3880    -0.1970    -4.6730  C.ar    1  <O>11       0.0723
   4 C3        2.5786    -1.3790    -3.9369  C.ar    1  <O>11      -0.0433
   5 C4        3.7767    -2.0922    -4.0461  C.ar    1  <O>11      -0.0406
   6 C5        3.9657    -3.3295    -3.2642  C.3     1  <O>11       0.0171
   7 C6        5.1253    -4.0849    -3.8061  C.ar    1  <O>11       0.0736
   8 N1        4.9301    -5.0311    -4.8198  N.ar    1  <O>11      -0.1750
   9 N2        5.9577    -5.7998    -5.2499  N.ar    1  <O>11      -0.2425
  10 C7        7.1817    -5.6337    -4.6961  C.ar    1  <O>11       0.2725
  11 O2        8.1817    -6.5292    -5.1192  O.2     1  <O>11      -0.2658
  12 C8        7.4838    -4.6405    -3.7532  C.ar    1  <O>11       0.0496
  13 C9        8.7730    -4.4268    -3.2161  C.ar    1  <O>11      -0.0487
  14 C10       8.9984    -3.4401    -2.2546  C.ar    1  <O>11      -0.0610
  15 C11       7.9415    -2.6558    -1.8071  C.ar    1  <O>11      -0.0611
  16 C12       6.6603    -2.8580    -2.3203  C.ar    1  <O>11      -0.0521
  17 C13       6.4144    -3.8465    -3.3005  C.ar    1  <O>11       0.0106
  18 C14       4.7920    -1.6376    -4.8919  C.ar    1  <O>11      -0.0555
  19 C15       4.5992    -0.4639    -5.6298  C.ar    1  <O>11      -0.0254
  20 C16       3.4066     0.2538    -5.5286  C.ar    1  <O>11       0.1355
  21 F1        3.2151     1.3995    -6.2566  F       1  <O>11      -0.2047
  22 N3        1.0300     1.5280    -3.6100  N.am    1  <O>11      -0.2945
  23 C17       2.0762     1.9226    -2.6612  C.3     1  <O>11       0.0308
  24 C18       1.5733     1.7815    -1.2078  C.3     1  <O>11       0.0305
  25 N4        0.2620     2.5482    -1.0164  N.am    1  <O>11      -0.2983
  26 C19      -0.0103     3.4846    -0.0691  C.2     1  <O>11       0.2187
  27 O3        0.8440     3.7924     0.7489  O.2     1  <O>11      -0.2753
  28 C20      -1.3266     4.1252    -0.0288  C.3     1  <O>11       0.0358
  29 C21      -2.3411     3.3780     0.0299  C.3     1  <O>11      -0.0412
  30 C22      -1.8556     4.3080     1.0996  C.3     1  <O>11      -0.0412
  31 C23      -0.7910     2.1449    -2.0524  C.3     1  <O>11       0.0305
  32 C24      -0.2067     2.2954    -3.4660  C.3     1  <O>11       0.0308
  33 H1        3.0688    -3.9435    -3.3322  H       1  <O>11       0.0377
  34 H2        4.1533    -3.0750    -2.2214  H       1  <O>11       0.0377
  35 H3        5.8126    -6.4883    -5.9751  H       1  <O>11       0.1921
  36 H4        2.9477     1.2836    -2.8022  H       1  <O>11       0.0480
  37 H5        2.3535     2.9613    -2.8451  H       1  <O>11       0.0480
  38 H6        1.4071     0.7273    -0.9867  H       1  <O>11       0.0480
  39 H7        2.3250     2.1821    -0.5280  H       1  <O>11       0.0480
  40 H8       -1.3492     4.9535    -0.7391  H       1  <O>11       0.0394
  41 H9       -3.2391     3.6028    -0.5458  H       1  <O>11       0.0273
  42 H10      -2.2374     2.2977     0.1347  H       1  <O>11       0.0273
  43 H11      -2.3908     5.2309     1.3274  H       1  <O>11       0.0273
  44 H12      -1.3891     3.9249     2.0089  H       1  <O>11       0.0273
  45 H13      -1.0811     1.1069    -1.8892  H       1  <O>11       0.0480
  46 H14      -1.6644     2.7880    -1.9511  H       1  <O>11       0.0480
  47 H15      -0.9345     1.9349    -4.1924  H       1  <O>11       0.0480
  48 H16       0.0043     3.3482    -3.6533  H       1  <O>11       0.0480
  49 H17       1.8314    -1.7221    -3.3132  H       1  <O>11       0.0629
  50 H18       9.5609    -5.0095    -3.5398  H       1  <O>11       0.0625
  51 H19       9.9475    -3.2933    -1.8769  H       1  <O>11       0.0618
  52 H20       8.1045    -1.9253    -1.0965  H       1  <O>11       0.0618
  53 H21       5.8791    -2.2764    -1.9788  H       1  <O>11       0.0624
  54 H22       5.6766    -2.1629    -4.9719  H       1  <O>11       0.0621
  55 H23       5.3470    -0.1256    -6.2553  H       1  <O>11       0.0646
@<TRIPOS>BOND
     1     1     2    2
     2     2     3    1
     3     3     4   ar
     4     4     5   ar
     5     5     6    1
     6     6     7    1
     7     7     8   ar
     8     8     9   ar
     9     9    10   ar
    10    10    11    2
    11    10    12   ar
    12    12    13   ar
    13    13    14   ar
    14    14    15   ar
    15    15    16   ar
    16    16    17   ar
    17     7    17   ar
    18    12    17   ar
    19     5    18   ar
    20    18    19   ar
    21    19    20   ar
    22     3    20   ar
    23    20    21    1
    24     2    22   am
    25    22    23    1
    26    23    24    1
    27    24    25    1
    28    25    26   am
    29    26    27    2
    30    26    28    1
    31    28    29    1
    32    29    30    1
    33    28    30    1
    34    25    31    1
    35    31    32    1
    36    22    32    1
    37     6    33    1
    38     6    34    1
    39     9    35    1
    40    23    36    1
    41    23    37    1
    42    24    38    1
    43    24    39    1
    44    28    40    1
    45    29    41    1
    46    29    42    1
    47    30    43    1
    48    30    44    1
    49    31    45    1
    50    31    46    1
    51    32    47    1
    52    32    48    1
    53     4    49    1
    54    13    50    1
    55    14    51    1
    56    15    52    1
    57    16    53    1
    58    18    54    1
    59    19    55    1
@<TRIPOS>MOLECULE
mol2_1_15
 55 59 0 0 0
SMALL
USER_CHARGES
****
VDW energy = -15.65
@<TRIPOS>ATOM
   1 O1        0.2060     0.3063    -5.2918  O.2     1  <O>11      -0.2699
   2 C1        1.1449     0.5535    -4.5497  C.2     1  <O>11       0.2495
   3 C2        2.3880    -0.1970    -4.6730  C.ar    1  <O>11       0.0723
   4 C3        3.4071     0.2547    -5.5291  C.ar    1  <O>11      -0.0433
   5 C4        4.5948    -0.4725    -5.6565  C.ar    1  <O>11      -0.0406
   6 C5        5.6550     0.0106    -6.5623  C.3     1  <O>11       0.0171
   7 C6        6.9249    -0.7007    -6.2614  C.ar    1  <O>11       0.0736
   8 N1        7.5478    -1.4674    -7.2538  N.ar    1  <O>11      -0.1750
   9 N2        8.6465    -2.2035    -6.9657  N.ar    1  <O>11      -0.2425
  10 C7        9.1442    -2.1796    -5.7070  C.ar    1  <O>11       0.2725
  11 O2       10.2277    -3.0407    -5.4510  O.2     1  <O>11      -0.2658
  12 C8        8.6436    -1.3601    -4.6850  C.ar    1  <O>11       0.0496
  13 C9        9.1965    -1.2894    -3.3866  C.ar    1  <O>11      -0.0487
  14 C10       8.6281    -0.4760    -2.4048  C.ar    1  <O>11      -0.0610
  15 C11       7.4950     0.2740    -2.6984  C.ar    1  <O>11      -0.0611
  16 C12       6.9308     0.2106    -3.9725  C.ar    1  <O>11      -0.0521
  17 C13       7.4973    -0.6008    -4.9820  C.ar    1  <O>11       0.0106
  18 C14       4.7797    -1.6517    -4.9298  C.ar    1  <O>11      -0.0555
  19 C15       3.7672    -2.0978    -4.0724  C.ar    1  <O>11      -0.0254
  20 C16       2.5791    -1.3782    -3.9373  C.ar    1  <O>11       0.1355
  21 F1        1.5904    -1.8113    -3.0923  F       1  <O>11      -0.2047
  22 N3        1.0300     1.5280    -3.6100  N.am    1  <O>11      -0.2945
  23 C17      -0.1601     2.3538    -3.3819  C.3     1  <O>11       0.0308
  24 C18       0.1827     3.8529    -3.5259  C.3     1  <O>11       0.0305
  25 N4        1.3598     4.2241    -2.6201  N.am    1  <O>11      -0.2983
  26 C19       1.4038     5.2241    -1.7001  C.2     1  <O>11       0.2187
  27 O3        2.4186     5.4062    -1.0439  O.2     1  <O>11      -0.2753
  28 C20       0.2359     6.0837    -1.4956  C.3     1  <O>11       0.0358
  29 C21      -0.8651     5.5256    -1.2360  C.3     1  <O>11      -0.0412
  30 C22      -0.0651     6.3922    -0.3120  C.3     1  <O>11      -0.0412
  31 C23       2.5679     3.3122    -2.8522  C.3     1  <O>11       0.0305
  32 C24       2.1391     1.8432    -2.7102  C.3     1  <O>11       0.0308
  33 H1        5.7960     1.0810    -6.4194  H       1  <O>11       0.0377
  34 H2        5.3663    -0.1829    -7.5952  H       1  <O>11       0.0377
  35 H3        9.0891    -2.7632    -7.6811  H       1  <O>11       0.1921
  36 H4       -0.9251     2.0897    -4.1117  H       1  <O>11       0.0480
  37 H5       -0.5379     2.1678    -2.3758  H       1  <O>11       0.0480
  38 H6        0.4485     4.0619    -4.5620  H       1  <O>11       0.0480
  39 H7       -0.6863     4.4478    -3.2458  H       1  <O>11       0.0480
  40 H8        0.2356     6.8796    -2.2423  H       1  <O>11       0.0394
  41 H9       -1.7949     5.8833    -1.6785  H       1  <O>11       0.0273
  42 H10      -0.9260     4.4477    -1.0838  H       1  <O>11       0.0273
  43 H11      -0.3959     7.4009    -0.0601  H       1  <O>11       0.0273
  44 H12       0.4730     5.9644     0.5357  H       1  <O>11       0.0273
  45 H13       2.9607     3.4792    -3.8553  H       1  <O>11       0.0480
  46 H14       3.3389     3.5373    -2.1163  H       1  <O>11       0.0480
  47 H15       2.9851     1.2003    -2.9513  H       1  <O>11       0.0480
  48 H16       1.8252     1.6621    -1.6821  H       1  <O>11       0.0480
  49 H17       3.2783     1.1266    -6.0659  H       1  <O>11       0.0629
  50 H18      10.0342    -1.8482    -3.1605  H       1  <O>11       0.0625
  51 H19       9.0480    -0.4316    -1.4631  H       1  <O>11       0.0618
  52 H20       7.0722     0.8766    -1.9751  H       1  <O>11       0.0618
  53 H21       6.0859     0.7652    -4.1816  H       1  <O>11       0.0624
  54 H22       5.6555    -2.1892    -5.0244  H       1  <O>11       0.0621
  55 H23       3.9008    -2.9682    -3.5343  H       1  <O>11       0.0646
@<TRIPOS>BOND
     1     1     2    2
     2     2     3    1
     3     3     4   ar
     4     4     5   ar
     5     5     6    1
     6     6     7    1
     7     7     8   ar
     8     8     9   ar
     9     9    10   ar
    10    10    11    2
    11    10    12   ar
    12    12    13   ar
    13    13    14   ar
    14    14    15   ar
    15    15    16   ar
    16    16    17   ar
    17     7    17   ar
    18    12    17   ar
    19     5    18   ar
    20    18    19   ar
    21    19    20   ar
    22     3    20   ar
    23    20    21    1
    24     2    22   am
    25    22    23    1
    26    23    24    1
    27    24    25    1
    28    25    26   am
    29    26    27    2
    30    26    28    1
    31    28    29    1
    32    29    30    1
    33    28    30    1
    34    25    31    1
    35    31    32    1
    36    22    32    1
    37     6    33    1
    38     6    34    1
    39     9    35    1
    40    23    36    1
    41    23    37    1
    42    24    38    1
    43    24    39    1
    44    28    40    1
    45    29    41    1
    46    29    42    1
    47    30    43    1
    48    30    44    1
    49    31    45    1
    50    31    46    1
    51    32    47    1
    52    32    48    1
    53     4    49    1
    54    13    50    1
    55    14    51    1
    56    15    52    1
    57    16    53    1
    58    18    54    1
    59    19    55    1
@<TRIPOS>MOLECULE
mol2_1_16
 55 59 0 0 0
SMALL
USER_CHARGES
****
VDW energy = -14.68
@<TRIPOS>ATOM
   1 O1        0.2060     0.3063    -5.2918  O.2     1  <O>11      -0.2699
   2 C1        1.1449     0.5535    -4.5497  C.2     1  <O>11       0.2495
   3 C2        2.3880    -0.1970    -4.6730  C.ar    1  <O>11       0.0723
   4 C3        2.5786    -1.3790    -3.9369  C.ar    1  <O>11      -0.0433
   5 C4        3.7767    -2.0922    -4.0461  C.ar    1  <O>11      -0.0406
   6 C5        3.9657    -3.3295    -3.2642  C.3     1  <O>11       0.0171
   7 C6        5.1253    -4.0849    -3.8061  C.ar    1  <O>11       0.0736
   8 N1        4.9301    -5.0311    -4.8198  N.ar    1  <O>11      -0.1750
   9 N2        5.9577    -5.7998    -5.2499  N.ar    1  <O>11      -0.2425
  10 C7        7.1817    -5.6337    -4.6961  C.ar    1  <O>11       0.2725
  11 O2        8.1817    -6.5292    -5.1192  O.2     1  <O>11      -0.2658
  12 C8        7.4838    -4.6405    -3.7532  C.ar    1  <O>11       0.0496
  13 C9        8.7730    -4.4268    -3.2161  C.ar    1  <O>11      -0.0487
  14 C10       8.9984    -3.4401    -2.2546  C.ar    1  <O>11      -0.0610
  15 C11       7.9415    -2.6558    -1.8071  C.ar    1  <O>11      -0.0611
  16 C12       6.6603    -2.8580    -2.3203  C.ar    1  <O>11      -0.0521
  17 C13       6.4144    -3.8465    -3.3005  C.ar    1  <O>11       0.0106
  18 C14       4.7920    -1.6376    -4.8919  C.ar    1  <O>11      -0.0555
  19 C15       4.5992    -0.4639    -5.6298  C.ar    1  <O>11      -0.0254
  20 C16       3.4066     0.2538    -5.5286  C.ar    1  <O>11       0.1355
  21 F1        3.2151     1.3995    -6.2566  F       1  <O>11      -0.2047
  22 N3        1.0300     1.5280    -3.6100  N.am    1  <O>11      -0.2945
  23 C17      -0.1600     2.3540    -3.3820  C.3     1  <O>11       0.0308
  24 C18       0.1830     3.8530    -3.5260  C.3     1  <O>11       0.0305
  25 N4        1.3600     4.2240    -2.6200  N.am    1  <O>11      -0.2983
  26 C19       1.4040     5.2240    -1.7000  C.2     1  <O>11       0.2187
  27 O3        0.4290     5.9410    -1.5300  O.2     1  <O>11      -0.2753
  28 C20       2.6190     5.4420    -0.9120  C.3     1  <O>11       0.0358
  29 C21       3.7029     5.6016    -1.5371  C.3     1  <O>11      -0.0412
  30 C22       2.9864     6.6311    -0.7175  C.3     1  <O>11      -0.0412
  31 C23       2.5680     3.3120    -2.8520  C.3     1  <O>11       0.0305
  32 C24       2.1390     1.8430    -2.7100  C.3     1  <O>11       0.0308
  33 H1        3.0688    -3.9435    -3.3322  H       1  <O>11       0.0377
  34 H2        4.1533    -3.0750    -2.2214  H       1  <O>11       0.0377
  35 H3        5.8126    -6.4883    -5.9751  H       1  <O>11       0.1921
  36 H4       -0.9250     2.0900    -4.1120  H       1  <O>11       0.0480
  37 H5       -0.5380     2.1680    -2.3760  H       1  <O>11       0.0480
  38 H6        0.4490     4.0620    -4.5620  H       1  <O>11       0.0480
  39 H7       -0.6860     4.4480    -3.2460  H       1  <O>11       0.0480
  40 H8        2.6237     4.7639    -0.0568  H       1  <O>11       0.0394
  41 H9        4.6280     5.1457    -1.1839  H       1  <O>11       0.0273
  42 H10       3.7196     5.6617    -2.6255  H       1  <O>11       0.0273
  43 H11       3.3752     6.9486     0.2511  H       1  <O>11       0.0273
  44 H12       2.4669     7.4656    -1.1915  H       1  <O>11       0.0273
  45 H13       2.9610     3.4790    -3.8550  H       1  <O>11       0.0480
  46 H14       3.3390     3.5370    -2.1160  H       1  <O>11       0.0480
  47 H15       2.9850     1.2000    -2.9510  H       1  <O>11       0.0480
  48 H16       1.8250     1.6620    -1.6820  H       1  <O>11       0.0480
  49 H17       1.8314    -1.7221    -3.3132  H       1  <O>11       0.0629
  50 H18       9.5609    -5.0095    -3.5398  H       1  <O>11       0.0625
  51 H19       9.9475    -3.2933    -1.8769  H       1  <O>11       0.0618
  52 H20       8.1045    -1.9253    -1.0965  H       1  <O>11       0.0618
  53 H21       5.8791    -2.2764    -1.9788  H       1  <O>11       0.0624
  54 H22       5.6766    -2.1629    -4.9719  H       1  <O>11       0.0621
  55 H23       5.3470    -0.1256    -6.2553  H       1  <O>11       0.0646
@<TRIPOS>BOND
     1     1     2    2
     2     2     3    1
     3     3     4   ar
     4     4     5   ar
     5     5     6    1
     6     6     7    1
     7     7     8   ar
     8     8     9   ar
     9     9    10   ar
    10    10    11    2
    11    10    12   ar
    12    12    13   ar
    13    13    14   ar
    14    14    15   ar
    15    15    16   ar
    16    16    17   ar
    17     7    17   ar
    18    12    17   ar
    19     5    18   ar
    20    18    19   ar
    21    19    20   ar
    22     3    20   ar
    23    20    21    1
    24     2    22   am
    25    22    23    1
    26    23    24    1
    27    24    25    1
    28    25    26   am
    29    26    27    2
    30    26    28    1
    31    28    29    1
    32    29    30    1
    33    28    30    1
    34    25    31    1
    35    31    32    1
    36    22    32    1
    37     6    33    1
    38     6    34    1
    39     9    35    1
    40    23    36    1
    41    23    37    1
    42    24    38    1
    43    24    39    1
    44    28    40    1
    45    29    41    1
    46    29    42    1
    47    30    43    1
    48    30    44    1
    49    31    45    1
    50    31    46    1
    51    32    47    1
    52    32    48    1
    53     4    49    1
    54    13    50    1
    55    14    51    1
    56    15    52    1
    57    16    53    1
    58    18    54    1
    59    19    55    1
@<TRIPOS>MOLECULE
mol2_1_17
 55 59 0 0 0
SMALL
USER_CHARGES
****
VDW energy = -13.76
@<TRIPOS>ATOM
   1 O1        0.2060     0.3063    -5.2918  O.2     1  <O>11      -0.2699
   2 C1        1.1449     0.5535    -4.5497  C.2     1  <O>11       0.2495
   3 C2        2.3880    -0.1970    -4.6730  C.ar    1  <O>11       0.0723
   4 C3        3.4071     0.2547    -5.5291  C.ar    1  <O>11      -0.0433
   5 C4        4.5948    -0.4725    -5.6565  C.ar    1  <O>11      -0.0406
   6 C5        5.6550     0.0106    -6.5623  C.3     1  <O>11       0.0171
   7 C6        6.9249    -0.7007    -6.2614  C.ar    1  <O>11       0.0736
   8 N1        7.8137    -0.1732    -5.3165  N.ar    1  <O>11      -0.1750
   9 N2        9.0189    -0.7527    -5.1079  N.ar    1  <O>11      -0.2425
  10 C7        9.3503    -1.8577    -5.8160  C.ar    1  <O>11       0.2725
  11 O2       10.6534    -2.3528    -5.6213  O.2     1  <O>11      -0.2658
  12 C8        8.4791    -2.5074    -6.7024  C.ar    1  <O>11       0.0496
  13 C9        8.8007    -3.6937    -7.3993  C.ar    1  <O>11      -0.0487
  14 C10       7.8977    -4.2712    -8.2936  C.ar    1  <O>11      -0.0610
  15 C11       6.6628    -3.6719    -8.5138  C.ar    1  <O>11      -0.0611
  16 C12       6.3313    -2.4960    -7.8406  C.ar    1  <O>11      -0.0521
  17 C13       7.2293    -1.9012    -6.9251  C.ar    1  <O>11       0.0106
  18 C14       4.7797    -1.6517    -4.9298  C.ar    1  <O>11      -0.0555
  19 C15       3.7672    -2.0978    -4.0724  C.ar    1  <O>11      -0.0254
  20 C16       2.5791    -1.3782    -3.9373  C.ar    1  <O>11       0.1355
  21 F1        1.5904    -1.8113    -3.0923  F       1  <O>11      -0.2047
  22 N3        1.0300     1.5280    -3.6100  N.am    1  <O>11      -0.2945
  23 C17      -0.1600     2.3540    -3.3820  C.3     1  <O>11       0.0308
  24 C18       0.1830     3.8530    -3.5260  C.3     1  <O>11       0.0305
  25 N4        1.3600     4.2240    -2.6200  N.am    1  <O>11      -0.2983
  26 C19       1.4040     5.2240    -1.7000  C.2     1  <O>11       0.2187
  27 O3        0.4290     5.9410    -1.5300  O.2     1  <O>11      -0.2753
  28 C20       2.6190     5.4420    -0.9120  C.3     1  <O>11       0.0358
  29 C21       3.7029     5.6016    -1.5371  C.3     1  <O>11      -0.0412
  30 C22       2.9864     6.6311    -0.7175  C.3     1  <O>11      -0.0412
  31 C23       2.5680     3.3120    -2.8520  C.3     1  <O>11       0.0305
  32 C24       2.1390     1.8430    -2.7100  C.3     1  <O>11       0.0308
  33 H1        5.7960     1.0810    -6.4194  H       1  <O>11       0.0377
  34 H2        5.3663    -0.1829    -7.5952  H       1  <O>11       0.0377
  35 H3        9.6625    -0.3651    -4.4321  H       1  <O>11       0.1921
  36 H4       -0.9250     2.0900    -4.1120  H       1  <O>11       0.0480
  37 H5       -0.5380     2.1680    -2.3760  H       1  <O>11       0.0480
  38 H6        0.4490     4.0620    -4.5620  H       1  <O>11       0.0480
  39 H7       -0.6860     4.4480    -3.2460  H       1  <O>11       0.0480
  40 H8        2.6237     4.7639    -0.0568  H       1  <O>11       0.0394
  41 H9        4.6280     5.1457    -1.1839  H       1  <O>11       0.0273
  42 H10       3.7196     5.6617    -2.6255  H       1  <O>11       0.0273
  43 H11       3.3752     6.9486     0.2511  H       1  <O>11       0.0273
  44 H12       2.4669     7.4656    -1.1915  H       1  <O>11       0.0273
  45 H13       2.9610     3.4790    -3.8550  H       1  <O>11       0.0480
  46 H14       3.3390     3.5370    -2.1160  H       1  <O>11       0.0480
  47 H15       2.9850     1.2000    -2.9510  H       1  <O>11       0.0480
  48 H16       1.8250     1.6620    -1.6820  H       1  <O>11       0.0480
  49 H17       3.2783     1.1266    -6.0659  H       1  <O>11       0.0629
  50 H18       9.7181    -4.1404    -7.2447  H       1  <O>11       0.0625
  51 H19       8.1463    -5.1411    -8.7901  H       1  <O>11       0.0618
  52 H20       5.9927    -4.0961    -9.1741  H       1  <O>11       0.0618
  53 H21       5.4154    -2.0530    -8.0138  H       1  <O>11       0.0624
  54 H22       5.6555    -2.1892    -5.0244  H       1  <O>11       0.0621
  55 H23       3.9008    -2.9682    -3.5343  H       1  <O>11       0.0646
@<TRIPOS>BOND
     1     1     2    2
     2     2     3    1
     3     3     4   ar
     4     4     5   ar
     5     5     6    1
     6     6     7    1
     7     7     8   ar
     8     8     9   ar
     9     9    10   ar
    10    10    11    2
    11    10    12   ar
    12    12    13   ar
    13    13    14   ar
    14    14    15   ar
    15    15    16   ar
    16    16    17   ar
    17     7    17   ar
    18    12    17   ar
    19     5    18   ar
    20    18    19   ar
    21    19    20   ar
    22     3    20   ar
    23    20    21    1
    24     2    22   am
    25    22    23    1
    26    23    24    1
    27    24    25    1
    28    25    26   am
    29    26    27    2
    30    26    28    1
    31    28    29    1
    32    29    30    1
    33    28    30    1
    34    25    31    1
    35    31    32    1
    36    22    32    1
    37     6    33    1
    38     6    34    1
    39     9    35    1
    40    23    36    1
    41    23    37    1
    42    24    38    1
    43    24    39    1
    44    28    40    1
    45    29    41    1
    46    29    42    1
    47    30    43    1
    48    30    44    1
    49    31    45    1
    50    31    46    1
    51    32    47    1
    52    32    48    1
    53     4    49    1
    54    13    50    1
    55    14    51    1
    56    15    52    1
    57    16    53    1
    58    18    54    1
    59    19    55    1
@<TRIPOS>MOLECULE
mol2_1_18
 55 59 0 0 0
SMALL
USER_CHARGES
****
VDW energy = -10.66
@<TRIPOS>ATOM
   1 O1        0.2060     0.3063    -5.2918  O.2     1  <O>11      -0.2699
   2 C1        1.1449     0.5535    -4.5497  C.2     1  <O>11       0.2495
   3 C2        2.3880    -0.1970    -4.6730  C.ar    1  <O>11       0.0723
   4 C3        3.4071     0.2547    -5.5291  C.ar    1  <O>11      -0.0433
   5 C4        4.5948    -0.4725    -5.6565  C.ar    1  <O>11      -0.0406
   6 C5        5.6550     0.0106    -6.5623  C.3     1  <O>11       0.0171
   7 C6        6.9249    -0.7007    -6.2614  C.ar    1  <O>11       0.0736
   8 N1        7.5478    -1.4674    -7.2538  N.ar    1  <O>11      -0.1750
   9 N2        8.6465    -2.2035    -6.9657  N.ar    1  <O>11      -0.2425
  10 C7        9.1442    -2.1796    -5.7070  C.ar    1  <O>11       0.2725
  11 O2       10.2277    -3.0407    -5.4510  O.2     1  <O>11      -0.2658
  12 C8        8.6436    -1.3601    -4.6850  C.ar    1  <O>11       0.0496
  13 C9        9.1965    -1.2894    -3.3866  C.ar    1  <O>11      -0.0487
  14 C10       8.6281    -0.4760    -2.4048  C.ar    1  <O>11      -0.0610
  15 C11       7.4950     0.2740    -2.6984  C.ar    1  <O>11      -0.0611
  16 C12       6.9308     0.2106    -3.9725  C.ar    1  <O>11      -0.0521
  17 C13       7.4973    -0.6008    -4.9820  C.ar    1  <O>11       0.0106
  18 C14       4.7797    -1.6517    -4.9298  C.ar    1  <O>11      -0.0555
  19 C15       3.7672    -2.0978    -4.0724  C.ar    1  <O>11      -0.0254
  20 C16       2.5791    -1.3782    -3.9373  C.ar    1  <O>11       0.1355
  21 F1        1.5904    -1.8113    -3.0923  F       1  <O>11      -0.2047
  22 N3        1.0300     1.5280    -3.6100  N.am    1  <O>11      -0.2945
  23 C17      -0.1601     2.3538    -3.3819  C.3     1  <O>11       0.0308
  24 C18       0.1827     3.8529    -3.5259  C.3     1  <O>11       0.0305
  25 N4        1.3598     4.2241    -2.6201  N.am    1  <O>11      -0.2983
  26 C19       1.4038     5.2241    -1.7001  C.2     1  <O>11       0.2187
  27 O3        0.4285     5.9406    -1.5296  O.2     1  <O>11      -0.2753
  28 C20       2.6191     5.4427    -0.9128  C.3     1  <O>11       0.0358
  29 C21       3.7025     5.6028    -1.5384  C.3     1  <O>11      -0.0412
  30 C22       2.9860     6.6319    -0.7184  C.3     1  <O>11      -0.0412
  31 C23       2.5679     3.3122    -2.8522  C.3     1  <O>11       0.0305
  32 C24       2.1391     1.8432    -2.7102  C.3     1  <O>11       0.0308
  33 H1        5.7960     1.0810    -6.4194  H       1  <O>11       0.0377
  34 H2        5.3663    -0.1829    -7.5952  H       1  <O>11       0.0377
  35 H3        9.0891    -2.7632    -7.6811  H       1  <O>11       0.1921
  36 H4       -0.9251     2.0897    -4.1117  H       1  <O>11       0.0480
  37 H5       -0.5379     2.1678    -2.3758  H       1  <O>11       0.0480
  38 H6        0.4485     4.0619    -4.5620  H       1  <O>11       0.0480
  39 H7       -0.6863     4.4478    -3.2458  H       1  <O>11       0.0480
  40 H8        2.6246     4.7646    -0.0576  H       1  <O>11       0.0394
  41 H9        4.6281     5.1474    -1.1857  H       1  <O>11       0.0273
  42 H10       3.7187     5.6630    -2.6269  H       1  <O>11       0.0273
  43 H11       3.3752     6.9497     0.2499  H       1  <O>11       0.0273
  44 H12       2.4658     7.4663    -1.1921  H       1  <O>11       0.0273
  45 H13       2.9607     3.4792    -3.8553  H       1  <O>11       0.0480
  46 H14       3.3389     3.5373    -2.1163  H       1  <O>11       0.0480
  47 H15       2.9851     1.2003    -2.9513  H       1  <O>11       0.0480
  48 H16       1.8252     1.6621    -1.6821  H       1  <O>11       0.0480
  49 H17       3.2783     1.1266    -6.0659  H       1  <O>11       0.0629
  50 H18      10.0342    -1.8482    -3.1605  H       1  <O>11       0.0625
  51 H19       9.0480    -0.4316    -1.4631  H       1  <O>11       0.0618
  52 H20       7.0722     0.8766    -1.9751  H       1  <O>11       0.0618
  53 H21       6.0859     0.7652    -4.1816  H       1  <O>11       0.0624
  54 H22       5.6555    -2.1892    -5.0244  H       1  <O>11       0.0621
  55 H23       3.9008    -2.9682    -3.5343  H       1  <O>11       0.0646
@<TRIPOS>BOND
     1     1     2    2
     2     2     3    1
     3     3     4   ar
     4     4     5   ar
     5     5     6    1
     6     6     7    1
     7     7     8   ar
     8     8     9   ar
     9     9    10   ar
    10    10    11    2
    11    10    12   ar
    12    12    13   ar
    13    13    14   ar
    14    14    15   ar
    15    15    16   ar
    16    16    17   ar
    17     7    17   ar
    18    12    17   ar
    19     5    18   ar
    20    18    19   ar
    21    19    20   ar
    22     3    20   ar
    23    20    21    1
    24     2    22   am
    25    22    23    1
    26    23    24    1
    27    24    25    1
    28    25    26   am
    29    26    27    2
    30    26    28    1
    31    28    29    1
    32    29    30    1
    33    28    30    1
    34    25    31    1
    35    31    32    1
    36    22    32    1
    37     6    33    1
    38     6    34    1
    39     9    35    1
    40    23    36    1
    41    23    37    1
    42    24    38    1
    43    24    39    1
    44    28    40    1
    45    29    41    1
    46    29    42    1
    47    30    43    1
    48    30    44    1
    49    31    45    1
    50    31    46    1
    51    32    47    1
    52    32    48    1
    53     4    49    1
    54    13    50    1
    55    14    51    1
    56    15    52    1
    57    16    53    1
    58    18    54    1
    59    19    55    1
@<TRIPOS>MOLECULE
mol2_1_19
 55 59 0 0 0
SMALL
USER_CHARGES
****
VDW energy = 1.77
@<TRIPOS>ATOM
   1 O1        0.2060     0.3063    -5.2918  O.2     1  <O>11      -0.2699
   2 C1        1.1449     0.5535    -4.5497  C.2     1  <O>11       0.2495
   3 C2        2.3880    -0.1970    -4.6730  C.ar    1  <O>11       0.0723
   4 C3        2.3596    -1.5795    -4.9247  C.ar    1  <O>11      -0.0433
   5 C4        3.5527    -2.3015    -5.0306  C.ar    1  <O>11      -0.0406
   6 C5        3.5087    -3.7535    -5.2907  C.3     1  <O>11       0.0171
   7 C6        4.8537    -4.2208    -5.7167  C.ar    1  <O>11       0.0736
   8 N1        5.1944    -4.2229    -7.0749  N.ar    1  <O>11      -0.1750
   9 N2        6.3745    -4.7420    -7.4870  N.ar    1  <O>11      -0.2425
  10 C7        7.2286    -5.2486    -6.5671  C.ar    1  <O>11       0.2725
  11 O2        8.3927    -5.8592    -7.0701  O.2     1  <O>11      -0.2658
  12 C8        7.0098    -5.1906    -5.1831  C.ar    1  <O>11       0.0496
  13 C9        7.9254    -5.6662    -4.2177  C.ar    1  <O>11      -0.0487
  14 C10       7.6302    -5.6078    -2.8545  C.ar    1  <O>11      -0.0610
  15 C11       6.4149    -5.0818    -2.4317  C.ar    1  <O>11      -0.0611
  16 C12       5.4954    -4.6149    -3.3709  C.ar    1  <O>11      -0.0521
  17 C13       5.7802    -4.6581    -4.7549  C.ar    1  <O>11       0.0106
  18 C14       4.7827    -1.6530    -4.8917  C.ar    1  <O>11      -0.0555
  19 C15       4.8106    -0.2750    -4.6475  C.ar    1  <O>11      -0.0254
  20 C16       3.6255     0.4543    -4.5417  C.ar    1  <O>11       0.1355
  21 F1        3.6530     1.8051    -4.3095  F       1  <O>11      -0.2047
  22 N3        1.0300     1.5280    -3.6100  N.am    1  <O>11      -0.2945
  23 C17       2.0762     1.9226    -2.6612  C.3     1  <O>11       0.0308
  24 C18       1.5733     1.7815    -1.2078  C.3     1  <O>11       0.0305
  25 N4        0.2620     2.5482    -1.0164  N.am    1  <O>11      -0.2983
  26 C19      -0.0103     3.4846    -0.0691  C.2     1  <O>11       0.2187
  27 O3       -1.1094     4.0178    -0.0354  O.2     1  <O>11      -0.2753
  28 C20       1.0127     3.8541     0.9116  C.3     1  <O>11       0.0358
  29 C21       0.7133     4.7276     1.7708  C.3     1  <O>11      -0.0412
  30 C22       0.9871     3.2777     2.0313  C.3     1  <O>11      -0.0412
  31 C23      -0.7910     2.1449    -2.0524  C.3     1  <O>11       0.0305
  32 C24      -0.2067     2.2954    -3.4660  C.3     1  <O>11       0.0308
  33 H1        2.7862    -3.9603    -6.0789  H       1  <O>11       0.0377
  34 H2        3.2136    -4.2766    -4.3813  H       1  <O>11       0.0377
  35 H3        6.6144    -4.7507    -8.4685  H       1  <O>11       0.1921
  36 H4        2.9477     1.2836    -2.8022  H       1  <O>11       0.0480
  37 H5        2.3535     2.9613    -2.8451  H       1  <O>11       0.0480
  38 H6        1.4071     0.7273    -0.9867  H       1  <O>11       0.0480
  39 H7        2.3250     2.1821    -0.5280  H       1  <O>11       0.0480
  40 H8        1.9784     3.9470     0.4116  H       1  <O>11       0.0394
  41 H9        1.4284     5.4965     2.0638  H       1  <O>11       0.0273
  42 H10      -0.2984     5.1289     1.8345  H       1  <O>11       0.0273
  43 H11       1.9082     2.9588     2.5213  H       1  <O>11       0.0273
  44 H12       0.1802     2.5910     2.2928  H       1  <O>11       0.0273
  45 H13      -1.0811     1.1069    -1.8892  H       1  <O>11       0.0480
  46 H14      -1.6644     2.7880    -1.9511  H       1  <O>11       0.0480
  47 H15      -0.9345     1.9349    -4.1924  H       1  <O>11       0.0480
  48 H16       0.0043     3.3482    -3.6533  H       1  <O>11       0.0480
  49 H17       1.4547    -2.0638    -5.0319  H       1  <O>11       0.0629
  50 H18       8.8270    -6.0631    -4.5253  H       1  <O>11       0.0625
  51 H19       8.3127    -5.9543    -2.1623  H       1  <O>11       0.0618
  52 H20       6.1934    -5.0369    -1.4247  H       1  <O>11       0.0618
  53 H21       4.5924    -4.2316    -3.0502  H       1  <O>11       0.0624
  54 H22       5.6633    -2.1856    -4.9686  H       1  <O>11       0.0621
  55 H23       5.7174     0.2068    -4.5445  H       1  <O>11       0.0646
@<TRIPOS>BOND
     1     1     2    2
     2     2     3    1
     3     3     4   ar
     4     4     5   ar
     5     5     6    1
     6     6     7    1
     7     7     8   ar
     8     8     9   ar
     9     9    10   ar
    10    10    11    2
    11    10    12   ar
    12    12    13   ar
    13    13    14   ar
    14    14    15   ar
    15    15    16   ar
    16    16    17   ar
    17     7    17   ar
    18    12    17   ar
    19     5    18   ar
    20    18    19   ar
    21    19    20   ar
    22     3    20   ar
    23    20    21    1
    24     2    22   am
    25    22    23    1
    26    23    24    1
    27    24    25    1
    28    25    26   am
    29    26    27    2
    30    26    28    1
    31    28    29    1
    32    29    30    1
    33    28    30    1
    34    25    31    1
    35    31    32    1
    36    22    32    1
    37     6    33    1
    38     6    34    1
    39     9    35    1
    40    23    36    1
    41    23    37    1
    42    24    38    1
    43    24    39    1
    44    28    40    1
    45    29    41    1
    46    29    42    1
    47    30    43    1
    48    30    44    1
    49    31    45    1
    50    31    46    1
    51    32    47    1
    52    32    48    1
    53     4    49    1
    54    13    50    1
    55    14    51    1
    56    15    52    1
    57    16    53    1
    58    18    54    1
    59    19    55    1
@<TRIPOS>MOLECULE
mol2_1_20
 55 59 0 0 0
SMALL
USER_CHARGES
****
VDW energy = 2.51
@<TRIPOS>ATOM
   1 O1        0.2060     0.3063    -5.2918  O.2     1  <O>11      -0.2699
   2 C1        1.1449     0.5535    -4.5497  C.2     1  <O>11       0.2495
   3 C2        2.3880    -0.1970    -4.6730  C.ar    1  <O>11       0.0723
   4 C3        2.3596    -1.5795    -4.9247  C.ar    1  <O>11      -0.0433
   5 C4        3.5527    -2.3015    -5.0306  C.ar    1  <O>11      -0.0406
   6 C5        3.5087    -3.7535    -5.2907  C.3     1  <O>11       0.0171
   7 C6        4.8537    -4.2208    -5.7167  C.ar    1  <O>11       0.0736
   8 N1        5.1944    -4.2229    -7.0749  N.ar    1  <O>11      -0.1750
   9 N2        6.3745    -4.7420    -7.4870  N.ar    1  <O>11      -0.2425
  10 C7        7.2286    -5.2486    -6.5671  C.ar    1  <O>11       0.2725
  11 O2        8.3927    -5.8592    -7.0701  O.2     1  <O>11      -0.2658
  12 C8        7.0098    -5.1906    -5.1831  C.ar    1  <O>11       0.0496
  13 C9        7.9254    -5.6662    -4.2177  C.ar    1  <O>11      -0.0487
  14 C10       7.6302    -5.6078    -2.8545  C.ar    1  <O>11      -0.0610
  15 C11       6.4149    -5.0818    -2.4317  C.ar    1  <O>11      -0.0611
  16 C12       5.4954    -4.6149    -3.3709  C.ar    1  <O>11      -0.0521
  17 C13       5.7802    -4.6581    -4.7549  C.ar    1  <O>11       0.0106
  18 C14       4.7827    -1.6530    -4.8917  C.ar    1  <O>11      -0.0555
  19 C15       4.8106    -0.2750    -4.6475  C.ar    1  <O>11      -0.0254
  20 C16       3.6255     0.4543    -4.5417  C.ar    1  <O>11       0.1355
  21 F1        3.6530     1.8051    -4.3095  F       1  <O>11      -0.2047
  22 N3        1.0300     1.5280    -3.6100  N.am    1  <O>11      -0.2945
  23 C17       2.0762     1.9226    -2.6612  C.3     1  <O>11       0.0308
  24 C18       1.5733     1.7815    -1.2078  C.3     1  <O>11       0.0305
  25 N4        0.2620     2.5482    -1.0164  N.am    1  <O>11      -0.2983
  26 C19      -0.0103     3.4846    -0.0691  C.2     1  <O>11       0.2187
  27 O3        0.8442     3.7928     0.7485  O.2     1  <O>11      -0.2753
  28 C20      -1.3268     4.1247    -0.0284  C.3     1  <O>11       0.0358
  29 C21      -1.4578     5.1518     0.6919  C.3     1  <O>11      -0.0412
  30 C22      -1.5307     5.0964    -0.8036  C.3     1  <O>11      -0.0412
  31 C23      -0.7910     2.1449    -2.0524  C.3     1  <O>11       0.0305
  32 C24      -0.2067     2.2954    -3.4660  C.3     1  <O>11       0.0308
  33 H1        2.7862    -3.9603    -6.0789  H       1  <O>11       0.0377
  34 H2        3.2136    -4.2766    -4.3813  H       1  <O>11       0.0377
  35 H3        6.6144    -4.7507    -8.4685  H       1  <O>11       0.1921
  36 H4        2.9477     1.2836    -2.8022  H       1  <O>11       0.0480
  37 H5        2.3535     2.9613    -2.8451  H       1  <O>11       0.0480
  38 H6        1.4071     0.7273    -0.9867  H       1  <O>11       0.0480
  39 H7        2.3250     2.1821    -0.5280  H       1  <O>11       0.0480
  40 H8       -2.1012     3.3585     0.0381  H       1  <O>11       0.0394
  41 H9       -2.3538     5.3062     1.2934  H       1  <O>11       0.0273
  42 H10      -0.5999     5.5965     1.1968  H       1  <O>11       0.0273
  43 H11      -2.4824     5.2106    -1.3245  H       1  <O>11       0.0273
  44 H12      -0.7277     5.5020    -1.4214  H       1  <O>11       0.0273
  45 H13      -1.0811     1.1069    -1.8892  H       1  <O>11       0.0480
  46 H14      -1.6644     2.7880    -1.9511  H       1  <O>11       0.0480
  47 H15      -0.9345     1.9349    -4.1924  H       1  <O>11       0.0480
  48 H16       0.0043     3.3482    -3.6533  H       1  <O>11       0.0480
  49 H17       1.4547    -2.0638    -5.0319  H       1  <O>11       0.0629
  50 H18       8.8270    -6.0631    -4.5253  H       1  <O>11       0.0625
  51 H19       8.3127    -5.9543    -2.1623  H       1  <O>11       0.0618
  52 H20       6.1934    -5.0369    -1.4247  H       1  <O>11       0.0618
  53 H21       4.5924    -4.2316    -3.0502  H       1  <O>11       0.0624
  54 H22       5.6633    -2.1856    -4.9686  H       1  <O>11       0.0621
  55 H23       5.7174     0.2068    -4.5445  H       1  <O>11       0.0646
@<TRIPOS>BOND
     1     1     2    2
     2     2     3    1
     3     3     4   ar
     4     4     5   ar
     5     5     6    1
     6     6     7    1
     7     7     8   ar
     8     8     9   ar
     9     9    10   ar
    10    10    11    2
    11    10    12   ar
    12    12    13   ar
    13    13    14   ar
    14    14    15   ar
    15    15    16   ar
    16    16    17   ar
    17     7    17   ar
    18    12    17   ar
    19     5    18   ar
    20    18    19   ar
    21    19    20   ar
    22     3    20   ar
    23    20    21    1
    24     2    22   am
    25    22    23    1
    26    23    24    1
    27    24    25    1
    28    25    26   am
    29    26    27    2
    30    26    28    1
    31    28    29    1
    32    29    30    1
    33    28    30    1
    34    25    31    1
    35    31    32    1
    36    22    32    1
    37     6    33    1
    38     6    34    1
    39     9    35    1
    40    23    36    1
    41    23    37    1
    42    24    38    1
    43    24    39    1
    44    28    40    1
    45    29    41    1
    46    29    42    1
    47    30    43    1
    48    30    44    1
    49    31    45    1
    50    31    46    1
    51    32    47    1
    52    32    48    1
    53     4    49    1
    54    13    50    1
    55    14    51    1
    56    15    52    1
    57    16    53    1
    58    18    54    1
    59    19    55    1
@<TRIPOS>MOLECULE
mol2_1_21
 55 59 0 0 0
SMALL
USER_CHARGES
****
VDW energy = 3.52
@<TRIPOS>ATOM
   1 O1        0.2060     0.3063    -5.2918  O.2     1  <O>11      -0.2699
   2 C1        1.1449     0.5535    -4.5497  C.2     1  <O>11       0.2495
   3 C2        2.3880    -0.1970    -4.6730  C.ar    1  <O>11       0.0723
   4 C3        2.3596    -1.5795    -4.9247  C.ar    1  <O>11      -0.0433
   5 C4        3.5527    -2.3015    -5.0306  C.ar    1  <O>11      -0.0406
   6 C5        3.5087    -3.7535    -5.2907  C.3     1  <O>11       0.0171
   7 C6        4.8537    -4.2208    -5.7167  C.ar    1  <O>11       0.0736
   8 N1        5.1944    -4.2229    -7.0749  N.ar    1  <O>11      -0.1750
   9 N2        6.3745    -4.7420    -7.4870  N.ar    1  <O>11      -0.2425
  10 C7        7.2286    -5.2486    -6.5671  C.ar    1  <O>11       0.2725
  11 O2        8.3927    -5.8592    -7.0701  O.2     1  <O>11      -0.2658
  12 C8        7.0098    -5.1906    -5.1831  C.ar    1  <O>11       0.0496
  13 C9        7.9254    -5.6662    -4.2177  C.ar    1  <O>11      -0.0487
  14 C10       7.6302    -5.6078    -2.8545  C.ar    1  <O>11      -0.0610
  15 C11       6.4149    -5.0818    -2.4317  C.ar    1  <O>11      -0.0611
  16 C12       5.4954    -4.6149    -3.3709  C.ar    1  <O>11      -0.0521
  17 C13       5.7802    -4.6581    -4.7549  C.ar    1  <O>11       0.0106
  18 C14       4.7827    -1.6530    -4.8917  C.ar    1  <O>11      -0.0555
  19 C15       4.8106    -0.2750    -4.6475  C.ar    1  <O>11      -0.0254
  20 C16       3.6255     0.4543    -4.5417  C.ar    1  <O>11       0.1355
  21 F1        3.6530     1.8051    -4.3095  F       1  <O>11      -0.2047
  22 N3        1.0300     1.5280    -3.6100  N.am    1  <O>11      -0.2945
  23 C17       2.0762     1.9226    -2.6612  C.3     1  <O>11       0.0308
  24 C18       1.5733     1.7815    -1.2078  C.3     1  <O>11       0.0305
  25 N4        0.2620     2.5482    -1.0164  N.am    1  <O>11      -0.2983
  26 C19      -0.0103     3.4846    -0.0691  C.2     1  <O>11       0.2187
  27 O3       -1.1094     4.0178    -0.0354  O.2     1  <O>11      -0.2753
  28 C20       1.0127     3.8541     0.9116  C.3     1  <O>11       0.0358
  29 C21       2.1352     4.2290     0.4754  C.3     1  <O>11      -0.0412
  30 C22       1.1335     5.0739     1.2018  C.3     1  <O>11      -0.0412
  31 C23      -0.7910     2.1449    -2.0524  C.3     1  <O>11       0.0305
  32 C24      -0.2067     2.2954    -3.4660  C.3     1  <O>11       0.0308
  33 H1        2.7862    -3.9603    -6.0789  H       1  <O>11       0.0377
  34 H2        3.2136    -4.2766    -4.3813  H       1  <O>11       0.0377
  35 H3        6.6144    -4.7507    -8.4685  H       1  <O>11       0.1921
  36 H4        2.9477     1.2836    -2.8022  H       1  <O>11       0.0480
  37 H5        2.3535     2.9613    -2.8451  H       1  <O>11       0.0480
  38 H6        1.4071     0.7273    -0.9867  H       1  <O>11       0.0480
  39 H7        2.3250     2.1821    -0.5280  H       1  <O>11       0.0480
  40 H8        1.0038     3.1363     1.7336  H       1  <O>11       0.0394
  41 H9        3.0602     3.9132     0.9583  H       1  <O>11       0.0273
  42 H10       2.3082     4.3563    -0.5935  H       1  <O>11       0.0273
  43 H11       1.3078     5.3931     2.2303  H       1  <O>11       0.0273
  44 H12       0.5559     5.8373     0.6777  H       1  <O>11       0.0273
  45 H13      -1.0811     1.1069    -1.8892  H       1  <O>11       0.0480
  46 H14      -1.6644     2.7880    -1.9511  H       1  <O>11       0.0480
  47 H15      -0.9345     1.9349    -4.1924  H       1  <O>11       0.0480
  48 H16       0.0043     3.3482    -3.6533  H       1  <O>11       0.0480
  49 H17       1.4547    -2.0638    -5.0319  H       1  <O>11       0.0629
  50 H18       8.8270    -6.0631    -4.5253  H       1  <O>11       0.0625
  51 H19       8.3127    -5.9543    -2.1623  H       1  <O>11       0.0618
  52 H20       6.1934    -5.0369    -1.4247  H       1  <O>11       0.0618
  53 H21       4.5924    -4.2316    -3.0502  H       1  <O>11       0.0624
  54 H22       5.6633    -2.1856    -4.9686  H       1  <O>11       0.0621
  55 H23       5.7174     0.2068    -4.5445  H       1  <O>11       0.0646
@<TRIPOS>BOND
     1     1     2    2
     2     2     3    1
     3     3     4   ar
     4     4     5   ar
     5     5     6    1
     6     6     7    1
     7     7     8   ar
     8     8     9   ar
     9     9    10   ar
    10    10    11    2
    11    10    12   ar
    12    12    13   ar
    13    13    14   ar
    14    14    15   ar
    15    15    16   ar
    16    16    17   ar
    17     7    17   ar
    18    12    17   ar
    19     5    18   ar
    20    18    19   ar
    21    19    20   ar
    22     3    20   ar
    23    20    21    1
    24     2    22   am
    25    22    23    1
    26    23    24    1
    27    24    25    1
    28    25    26   am
    29    26    27    2
    30    26    28    1
    31    28    29    1
    32    29    30    1
    33    28    30    1
    34    25    31    1
    35    31    32    1
    36    22    32    1
    37     6    33    1
    38     6    34    1
    39     9    35    1
    40    23    36    1
    41    23    37    1
    42    24    38    1
    43    24    39    1
    44    28    40    1
    45    29    41    1
    46    29    42    1
    47    30    43    1
    48    30    44    1
    49    31    45    1
    50    31    46    1
    51    32    47    1
    52    32    48    1
    53     4    49    1
    54    13    50    1
    55    14    51    1
    56    15    52    1
    57    16    53    1
    58    18    54    1
    59    19    55    1
@<TRIPOS>MOLECULE
mol2_1_22
 55 59 0 0 0
SMALL
USER_CHARGES
****
VDW energy = 4.50
@<TRIPOS>ATOM
   1 O1        0.2060     0.3063    -5.2918  O.2     1  <O>11      -0.2699
   2 C1        1.1449     0.5535    -4.5497  C.2     1  <O>11       0.2495
   3 C2        2.3880    -0.1970    -4.6730  C.ar    1  <O>11       0.0723
   4 C3        2.3596    -1.5795    -4.9247  C.ar    1  <O>11      -0.0433
   5 C4        3.5527    -2.3015    -5.0306  C.ar    1  <O>11      -0.0406
   6 C5        3.5087    -3.7535    -5.2907  C.3     1  <O>11       0.0171
   7 C6        3.5206    -3.9939    -6.7573  C.ar    1  <O>11       0.0736
   8 N1        2.3132    -4.0660    -7.4629  N.ar    1  <O>11      -0.1750
   9 N2        2.3033    -4.3873    -8.7776  N.ar    1  <O>11      -0.2425
  10 C7        3.4780    -4.6263    -9.4064  C.ar    1  <O>11       0.2725
  11 O2        3.3907    -5.0490   -10.7461  O.2     1  <O>11      -0.2658
  12 C8        4.7333    -4.4736    -8.8002  C.ar    1  <O>11       0.0496
  13 C9        5.9627    -4.6659    -9.4695  C.ar    1  <O>11      -0.0487
  14 C10       7.1783    -4.5297    -8.7967  C.ar    1  <O>11      -0.0610
  15 C11       7.1883    -4.2073    -7.4445  C.ar    1  <O>11      -0.0611
  16 C12       5.9840    -4.0216    -6.7655  C.ar    1  <O>11      -0.0521
  17 C13       4.7437    -4.1471    -7.4319  C.ar    1  <O>11       0.0106
  18 C14       4.7827    -1.6530    -4.8917  C.ar    1  <O>11      -0.0555
  19 C15       4.8106    -0.2750    -4.6475  C.ar    1  <O>11      -0.0254
  20 C16       3.6255     0.4543    -4.5417  C.ar    1  <O>11       0.1355
  21 F1        3.6530     1.8051    -4.3095  F       1  <O>11      -0.2047
  22 N3        1.0300     1.5280    -3.6100  N.am    1  <O>11      -0.2945
  23 C17       2.0762     1.9226    -2.6612  C.3     1  <O>11       0.0308
  24 C18       1.5733     1.7815    -1.2078  C.3     1  <O>11       0.0305
  25 N4        0.2620     2.5482    -1.0164  N.am    1  <O>11      -0.2983
  26 C19      -0.0103     3.4846    -0.0691  C.2     1  <O>11       0.2187
  27 O3        0.8440     3.7924     0.7489  O.2     1  <O>11      -0.2753
  28 C20      -1.3266     4.1252    -0.0288  C.3     1  <O>11       0.0358
  29 C21      -2.3411     3.3780     0.0299  C.3     1  <O>11      -0.0412
  30 C22      -1.8556     4.3080     1.0996  C.3     1  <O>11      -0.0412
  31 C23      -0.7910     2.1449    -2.0524  C.3     1  <O>11       0.0305
  32 C24      -0.2067     2.2954    -3.4660  C.3     1  <O>11       0.0308
  33 H1        2.5997    -4.1727    -4.8616  H       1  <O>11       0.0377
  34 H2        4.3775    -4.2302    -4.8374  H       1  <O>11       0.0377
  35 H3        1.4302    -4.4477    -9.2827  H       1  <O>11       0.1921
  36 H4        2.9477     1.2836    -2.8022  H       1  <O>11       0.0480
  37 H5        2.3535     2.9613    -2.8451  H       1  <O>11       0.0480
  38 H6        1.4071     0.7273    -0.9867  H       1  <O>11       0.0480
  39 H7        2.3250     2.1821    -0.5280  H       1  <O>11       0.0480
  40 H8       -1.3492     4.9535    -0.7391  H       1  <O>11       0.0394
  41 H9       -3.2391     3.6028    -0.5458  H       1  <O>11       0.0273
  42 H10      -2.2374     2.2977     0.1347  H       1  <O>11       0.0273
  43 H11      -2.3908     5.2309     1.3274  H       1  <O>11       0.0273
  44 H12      -1.3891     3.9249     2.0089  H       1  <O>11       0.0273
  45 H13      -1.0811     1.1069    -1.8892  H       1  <O>11       0.0480
  46 H14      -1.6644     2.7880    -1.9511  H       1  <O>11       0.0480
  47 H15      -0.9345     1.9349    -4.1924  H       1  <O>11       0.0480
  48 H16       0.0043     3.3482    -3.6533  H       1  <O>11       0.0480
  49 H17       1.4547    -2.0638    -5.0319  H       1  <O>11       0.0629
  50 H18       5.9621    -4.9110   -10.4719  H       1  <O>11       0.0625
  51 H19       8.0674    -4.6679    -9.3020  H       1  <O>11       0.0618
  52 H20       8.0851    -4.1056    -6.9439  H       1  <O>11       0.0618
  53 H21       5.9988    -3.7888    -5.7601  H       1  <O>11       0.0624
  54 H22       5.6633    -2.1856    -4.9686  H       1  <O>11       0.0621
  55 H23       5.7174     0.2068    -4.5445  H       1  <O>11       0.0646
@<TRIPOS>BOND
     1     1     2    2
     2     2     3    1
     3     3     4   ar
     4     4     5   ar
     5     5     6    1
     6     6     7    1
     7     7     8   ar
     8     8     9   ar
     9     9    10   ar
    10    10    11    2
    11    10    12   ar
    12    12    13   ar
    13    13    14   ar
    14    14    15   ar
    15    15    16   ar
    16    16    17   ar
    17     7    17   ar
    18    12    17   ar
    19     5    18   ar
    20    18    19   ar
    21    19    20   ar
    22     3    20   ar
    23    20    21    1
    24     2    22   am
    25    22    23    1
    26    23    24    1
    27    24    25    1
    28    25    26   am
    29    26    27    2
    30    26    28    1
    31    28    29    1
    32    29    30    1
    33    28    30    1
    34    25    31    1
    35    31    32    1
    36    22    32    1
    37     6    33    1
    38     6    34    1
    39     9    35    1
    40    23    36    1
    41    23    37    1
    42    24    38    1
    43    24    39    1
    44    28    40    1
    45    29    41    1
    46    29    42    1
    47    30    43    1
    48    30    44    1
    49    31    45    1
    50    31    46    1
    51    32    47    1
    52    32    48    1
    53     4    49    1
    54    13    50    1
    55    14    51    1
    56    15    52    1
    57    16    53    1
    58    18    54    1
    59    19    55    1
@<TRIPOS>MOLECULE
mol2_1_23
 55 59 0 0 0
SMALL
USER_CHARGES
****
VDW energy = 6.98
@<TRIPOS>ATOM
   1 O1        0.2060     0.3063    -5.2918  O.2     1  <O>11      -0.2699
   2 C1        1.1449     0.5535    -4.5497  C.2     1  <O>11       0.2495
   3 C2        2.3880    -0.1970    -4.6730  C.ar    1  <O>11       0.0723
   4 C3        2.3596    -1.5795    -4.9247  C.ar    1  <O>11      -0.0433
   5 C4        3.5527    -2.3015    -5.0306  C.ar    1  <O>11      -0.0406
   6 C5        3.5087    -3.7535    -5.2907  C.3     1  <O>11       0.0171
   7 C6        4.8537    -4.2208    -5.7167  C.ar    1  <O>11       0.0736
   8 N1        5.1944    -4.2229    -7.0749  N.ar    1  <O>11      -0.1750
   9 N2        6.3745    -4.7420    -7.4870  N.ar    1  <O>11      -0.2425
  10 C7        7.2286    -5.2486    -6.5671  C.ar    1  <O>11       0.2725
  11 O2        8.3927    -5.8592    -7.0701  O.2     1  <O>11      -0.2658
  12 C8        7.0098    -5.1906    -5.1831  C.ar    1  <O>11       0.0496
  13 C9        7.9254    -5.6662    -4.2177  C.ar    1  <O>11      -0.0487
  14 C10       7.6302    -5.6078    -2.8545  C.ar    1  <O>11      -0.0610
  15 C11       6.4149    -5.0818    -2.4317  C.ar    1  <O>11      -0.0611
  16 C12       5.4954    -4.6149    -3.3709  C.ar    1  <O>11      -0.0521
  17 C13       5.7802    -4.6581    -4.7549  C.ar    1  <O>11       0.0106
  18 C14       4.7827    -1.6530    -4.8917  C.ar    1  <O>11      -0.0555
  19 C15       4.8106    -0.2750    -4.6475  C.ar    1  <O>11      -0.0254
  20 C16       3.6255     0.4543    -4.5417  C.ar    1  <O>11       0.1355
  21 F1        3.6530     1.8051    -4.3095  F       1  <O>11      -0.2047
  22 N3        1.0300     1.5280    -3.6100  N.am    1  <O>11      -0.2945
  23 C17       2.0762     1.9226    -2.6612  C.3     1  <O>11       0.0308
  24 C18       1.5733     1.7815    -1.2078  C.3     1  <O>11       0.0305
  25 N4        0.2620     2.5482    -1.0164  N.am    1  <O>11      -0.2983
  26 C19      -0.0103     3.4846    -0.0691  C.2     1  <O>11       0.2187
  27 O3        0.8440     3.7924     0.7489  O.2     1  <O>11      -0.2753
  28 C20      -1.3266     4.1252    -0.0288  C.3     1  <O>11       0.0358
  29 C21      -2.3411     3.3780     0.0299  C.3     1  <O>11      -0.0412
  30 C22      -1.8556     4.3080     1.0996  C.3     1  <O>11      -0.0412
  31 C23      -0.7910     2.1449    -2.0524  C.3     1  <O>11       0.0305
  32 C24      -0.2067     2.2954    -3.4660  C.3     1  <O>11       0.0308
  33 H1        2.7862    -3.9603    -6.0789  H       1  <O>11       0.0377
  34 H2        3.2136    -4.2766    -4.3813  H       1  <O>11       0.0377
  35 H3        6.6144    -4.7507    -8.4685  H       1  <O>11       0.1921
  36 H4        2.9477     1.2836    -2.8022  H       1  <O>11       0.0480
  37 H5        2.3535     2.9613    -2.8451  H       1  <O>11       0.0480
  38 H6        1.4071     0.7273    -0.9867  H       1  <O>11       0.0480
  39 H7        2.3250     2.1821    -0.5280  H       1  <O>11       0.0480
  40 H8       -1.3492     4.9535    -0.7391  H       1  <O>11       0.0394
  41 H9       -3.2391     3.6028    -0.5458  H       1  <O>11       0.0273
  42 H10      -2.2374     2.2977     0.1347  H       1  <O>11       0.0273
  43 H11      -2.3908     5.2309     1.3274  H       1  <O>11       0.0273
  44 H12      -1.3891     3.9249     2.0089  H       1  <O>11       0.0273
  45 H13      -1.0811     1.1069    -1.8892  H       1  <O>11       0.0480
  46 H14      -1.6644     2.7880    -1.9511  H       1  <O>11       0.0480
  47 H15      -0.9345     1.9349    -4.1924  H       1  <O>11       0.0480
  48 H16       0.0043     3.3482    -3.6533  H       1  <O>11       0.0480
  49 H17       1.4547    -2.0638    -5.0319  H       1  <O>11       0.0629
  50 H18       8.8270    -6.0631    -4.5253  H       1  <O>11       0.0625
  51 H19       8.3127    -5.9543    -2.1623  H       1  <O>11       0.0618
  52 H20       6.1934    -5.0369    -1.4247  H       1  <O>11       0.0618
  53 H21       4.5924    -4.2316    -3.0502  H       1  <O>11       0.0624
  54 H22       5.6633    -2.1856    -4.9686  H       1  <O>11       0.0621
  55 H23       5.7174     0.2068    -4.5445  H       1  <O>11       0.0646
@<TRIPOS>BOND
     1     1     2    2
     2     2     3    1
     3     3     4   ar
     4     4     5   ar
     5     5     6    1
     6     6     7    1
     7     7     8   ar
     8     8     9   ar
     9     9    10   ar
    10    10    11    2
    11    10    12   ar
    12    12    13   ar
    13    13    14   ar
    14    14    15   ar
    15    15    16   ar
    16    16    17   ar
    17     7    17   ar
    18    12    17   ar
    19     5    18   ar
    20    18    19   ar
    21    19    20   ar
    22     3    20   ar
    23    20    21    1
    24     2    22   am
    25    22    23    1
    26    23    24    1
    27    24    25    1
    28    25    26   am
    29    26    27    2
    30    26    28    1
    31    28    29    1
    32    29    30    1
    33    28    30    1
    34    25    31    1
    35    31    32    1
    36    22    32    1
    37     6    33    1
    38     6    34    1
    39     9    35    1
    40    23    36    1
    41    23    37    1
    42    24    38    1
    43    24    39    1
    44    28    40    1
    45    29    41    1
    46    29    42    1
    47    30    43    1
    48    30    44    1
    49    31    45    1
    50    31    46    1
    51    32    47    1
    52    32    48    1
    53     4    49    1
    54    13    50    1
    55    14    51    1
    56    15    52    1
    57    16    53    1
    58    18    54    1
    59    19    55    1
@<TRIPOS>MOLECULE
mol2_1_24
 55 59 0 0 0
SMALL
USER_CHARGES
****
VDW energy = 8.92
@<TRIPOS>ATOM
   1 O1        0.2060     0.3063    -5.2918  O.2     1  <O>11      -0.2699
   2 C1        1.1449     0.5535    -4.5497  C.2     1  <O>11       0.2495
   3 C2        2.3880    -0.1970    -4.6730  C.ar    1  <O>11       0.0723
   4 C3        2.8888    -0.5359    -5.9418  C.ar    1  <O>11      -0.0433
   5 C4        4.0753    -1.2669    -6.0592  C.ar    1  <O>11      -0.0406
   6 C5        4.5878    -1.6200    -7.3973  C.3     1  <O>11       0.0171
   7 C6        6.0033    -2.0591    -7.2850  C.ar    1  <O>11       0.0736
   8 N1        7.0363    -1.1198    -7.3922  N.ar    1  <O>11      -0.1750
   9 N2        8.3299    -1.5180    -7.3962  N.ar    1  <O>11      -0.2425
  10 C7        8.6138    -2.8367    -7.2824  C.ar    1  <O>11       0.2725
  11 O2        9.9716    -3.1914    -7.3908  O.2     1  <O>11      -0.2658
  12 C8        7.6456    -3.8280    -7.0669  C.ar    1  <O>11       0.0496
  13 C9        7.9431    -5.1979    -6.8898  C.ar    1  <O>11      -0.0487
  14 C10       6.9271    -6.1386    -6.7121  C.ar    1  <O>11      -0.0610
  15 C11       5.5981    -5.7308    -6.7157  C.ar    1  <O>11      -0.0611
  16 C12       5.2852    -4.3836    -6.8972  C.ar    1  <O>11      -0.0521
  17 C13       6.3007    -3.4155    -7.0702  C.ar    1  <O>11       0.0106
  18 C14       4.7749    -1.6620    -4.9159  C.ar    1  <O>11      -0.0555
  19 C15       4.2792    -1.3187    -3.6527  C.ar    1  <O>11      -0.0254
  20 C16       3.0970    -0.5882    -3.5253  C.ar    1  <O>11       0.1355
  21 F1        2.6152    -0.2459    -2.2883  F       1  <O>11      -0.2047
  22 N3        1.0300     1.5280    -3.6100  N.am    1  <O>11      -0.2945
  23 C17       2.0762     1.9226    -2.6612  C.3     1  <O>11       0.0308
  24 C18       1.5733     1.7815    -1.2078  C.3     1  <O>11       0.0305
  25 N4        0.2620     2.5482    -1.0164  N.am    1  <O>11      -0.2983
  26 C19      -0.0103     3.4846    -0.0691  C.2     1  <O>11       0.2187
  27 O3       -1.1094     4.0178    -0.0354  O.2     1  <O>11      -0.2753
  28 C20       1.0127     3.8541     0.9116  C.3     1  <O>11       0.0358
  29 C21       0.7133     4.7276     1.7708  C.3     1  <O>11      -0.0412
  30 C22       0.9871     3.2777     2.0313  C.3     1  <O>11      -0.0412
  31 C23      -0.7910     2.1449    -2.0524  C.3     1  <O>11       0.0305
  32 C24      -0.2067     2.2954    -3.4660  C.3     1  <O>11       0.0308
  33 H1        4.5283    -0.7508    -8.0509  H       1  <O>11       0.0377
  34 H2        3.9885    -2.4292    -7.8139  H       1  <O>11       0.0377
  35 H3        9.0735    -0.8394    -7.4829  H       1  <O>11       0.1921
  36 H4        2.9477     1.2836    -2.8022  H       1  <O>11       0.0480
  37 H5        2.3535     2.9613    -2.8451  H       1  <O>11       0.0480
  38 H6        1.4071     0.7273    -0.9867  H       1  <O>11       0.0480
  39 H7        2.3250     2.1821    -0.5280  H       1  <O>11       0.0480
  40 H8        1.9784     3.9470     0.4116  H       1  <O>11       0.0394
  41 H9        1.4284     5.4965     2.0638  H       1  <O>11       0.0273
  42 H10      -0.2984     5.1289     1.8345  H       1  <O>11       0.0273
  43 H11       1.9082     2.9588     2.5213  H       1  <O>11       0.0273
  44 H12       0.1802     2.5910     2.2928  H       1  <O>11       0.0273
  45 H13      -1.0811     1.1069    -1.8892  H       1  <O>11       0.0480
  46 H14      -1.6644     2.7880    -1.9511  H       1  <O>11       0.0480
  47 H15      -0.9345     1.9349    -4.1924  H       1  <O>11       0.0480
  48 H16       0.0043     3.3482    -3.6533  H       1  <O>11       0.0480
  49 H17       2.3789    -0.2441    -6.7902  H       1  <O>11       0.0629
  50 H18       8.9274    -5.5080    -6.8918  H       1  <O>11       0.0625
  51 H19       7.1621    -7.1346    -6.5782  H       1  <O>11       0.0618
  52 H20       4.8445    -6.4235    -6.5844  H       1  <O>11       0.0618
  53 H21       4.2962    -4.0888    -6.9052  H       1  <O>11       0.0624
  54 H22       5.6498    -2.2024    -5.0021  H       1  <O>11       0.0621
  55 H23       4.7936    -1.6089    -2.8064  H       1  <O>11       0.0646
@<TRIPOS>BOND
     1     1     2    2
     2     2     3    1
     3     3     4   ar
     4     4     5   ar
     5     5     6    1
     6     6     7    1
     7     7     8   ar
     8     8     9   ar
     9     9    10   ar
    10    10    11    2
    11    10    12   ar
    12    12    13   ar
    13    13    14   ar
    14    14    15   ar
    15    15    16   ar
    16    16    17   ar
    17     7    17   ar
    18    12    17   ar
    19     5    18   ar
    20    18    19   ar
    21    19    20   ar
    22     3    20   ar
    23    20    21    1
    24     2    22   am
    25    22    23    1
    26    23    24    1
    27    24    25    1
    28    25    26   am
    29    26    27    2
    30    26    28    1
    31    28    29    1
    32    29    30    1
    33    28    30    1
    34    25    31    1
    35    31    32    1
    36    22    32    1
    37     6    33    1
    38     6    34    1
    39     9    35    1
    40    23    36    1
    41    23    37    1
    42    24    38    1
    43    24    39    1
    44    28    40    1
    45    29    41    1
    46    29    42    1
    47    30    43    1
    48    30    44    1
    49    31    45    1
    50    31    46    1
    51    32    47    1
    52    32    48    1
    53     4    49    1
    54    13    50    1
    55    14    51    1
    56    15    52    1
    57    16    53    1
    58    18    54    1
    59    19    55    1
@<TRIPOS>MOLECULE
mol2_1_25
 55 59 0 0 0
SMALL
USER_CHARGES
****
VDW energy = 9.21
@<TRIPOS>ATOM
   1 O1        0.2060     0.3063    -5.2918  O.2     1  <O>11      -0.2699
   2 C1        1.1449     0.5535    -4.5497  C.2     1  <O>11       0.2495
   3 C2        2.3880    -0.1970    -4.6730  C.ar    1  <O>11       0.0723
   4 C3        3.4071     0.2547    -5.5291  C.ar    1  <O>11      -0.0433
   5 C4        4.5948    -0.4725    -5.6565  C.ar    1  <O>11      -0.0406
   6 C5        5.6550     0.0106    -6.5623  C.3     1  <O>11       0.0171
   7 C6        6.9249    -0.7007    -6.2614  C.ar    1  <O>11       0.0736
   8 N1        7.1657    -1.1829    -4.9689  N.ar    1  <O>11      -0.1750
   9 N2        8.3586    -1.7394    -4.6540  N.ar    1  <O>11      -0.2425
  10 C7        9.3134    -1.8359    -5.6087  C.ar    1  <O>11       0.2725
  11 O2       10.5615    -2.3349    -5.1910  O.2     1  <O>11      -0.2658
  12 C8        9.1166    -1.4737    -6.9491  C.ar    1  <O>11       0.0496
  13 C9       10.0914    -1.6268    -7.9604  C.ar    1  <O>11      -0.0487
  14 C10       9.8415    -1.2143    -9.2704  C.ar    1  <O>11      -0.0610
  15 C11       8.6191    -0.6356    -9.5923  C.ar    1  <O>11      -0.0611
  16 C12       7.6478    -0.4692    -8.6051  C.ar    1  <O>11      -0.0521
  17 C13       7.8796    -0.8883    -7.2751  C.ar    1  <O>11       0.0106
  18 C14       4.7797    -1.6517    -4.9298  C.ar    1  <O>11      -0.0555
  19 C15       3.7672    -2.0978    -4.0724  C.ar    1  <O>11      -0.0254
  20 C16       2.5791    -1.3782    -3.9373  C.ar    1  <O>11       0.1355
  21 F1        1.5904    -1.8113    -3.0923  F       1  <O>11      -0.2047
  22 N3        1.0300     1.5280    -3.6100  N.am    1  <O>11      -0.2945
  23 C17      -0.1600     2.3540    -3.3820  C.3     1  <O>11       0.0308
  24 C18       0.1830     3.8530    -3.5260  C.3     1  <O>11       0.0305
  25 N4        1.3600     4.2240    -2.6200  N.am    1  <O>11      -0.2983
  26 C19       1.4040     5.2240    -1.7000  C.2     1  <O>11       0.2187
  27 O3        0.4290     5.9410    -1.5300  O.2     1  <O>11      -0.2753
  28 C20       2.6190     5.4420    -0.9120  C.3     1  <O>11       0.0358
  29 C21       3.7029     5.6016    -1.5371  C.3     1  <O>11      -0.0412
  30 C22       2.9864     6.6311    -0.7175  C.3     1  <O>11      -0.0412
  31 C23       2.5680     3.3120    -2.8520  C.3     1  <O>11       0.0305
  32 C24       2.1390     1.8430    -2.7100  C.3     1  <O>11       0.0308
  33 H1        5.7960     1.0810    -6.4194  H       1  <O>11       0.0377
  34 H2        5.3663    -0.1829    -7.5952  H       1  <O>11       0.0377
  35 H3        8.5336    -2.0785    -3.7183  H       1  <O>11       0.1921
  36 H4       -0.9250     2.0900    -4.1120  H       1  <O>11       0.0480
  37 H5       -0.5380     2.1680    -2.3760  H       1  <O>11       0.0480
  38 H6        0.4490     4.0620    -4.5620  H       1  <O>11       0.0480
  39 H7       -0.6860     4.4480    -3.2460  H       1  <O>11       0.0480
  40 H8        2.6237     4.7639    -0.0568  H       1  <O>11       0.0394
  41 H9        4.6280     5.1457    -1.1839  H       1  <O>11       0.0273
  42 H10       3.7196     5.6617    -2.6255  H       1  <O>11       0.0273
  43 H11       3.3752     6.9486     0.2511  H       1  <O>11       0.0273
  44 H12       2.4669     7.4656    -1.1915  H       1  <O>11       0.0273
  45 H13       2.9610     3.4790    -3.8550  H       1  <O>11       0.0480
  46 H14       3.3390     3.5370    -2.1160  H       1  <O>11       0.0480
  47 H15       2.9850     1.2000    -2.9510  H       1  <O>11       0.0480
  48 H16       1.8250     1.6620    -1.6820  H       1  <O>11       0.0480
  49 H17       3.2783     1.1266    -6.0659  H       1  <O>11       0.0629
  50 H18      11.0030    -2.0504    -7.7268  H       1  <O>11       0.0625
  51 H19      10.5624    -1.3388    -9.9983  H       1  <O>11       0.0618
  52 H20       8.4308    -0.3297   -10.5598  H       1  <O>11       0.0618
  53 H21       6.7450    -0.0330    -8.8498  H       1  <O>11       0.0624
  54 H22       5.6555    -2.1892    -5.0244  H       1  <O>11       0.0621
  55 H23       3.9008    -2.9682    -3.5343  H       1  <O>11       0.0646
@<TRIPOS>BOND
     1     1     2    2
     2     2     3    1
     3     3     4   ar
     4     4     5   ar
     5     5     6    1
     6     6     7    1
     7     7     8   ar
     8     8     9   ar
     9     9    10   ar
    10    10    11    2
    11    10    12   ar
    12    12    13   ar
    13    13    14   ar
    14    14    15   ar
    15    15    16   ar
    16    16    17   ar
    17     7    17   ar
    18    12    17   ar
    19     5    18   ar
    20    18    19   ar
    21    19    20   ar
    22     3    20   ar
    23    20    21    1
    24     2    22   am
    25    22    23    1
    26    23    24    1
    27    24    25    1
    28    25    26   am
    29    26    27    2
    30    26    28    1
    31    28    29    1
    32    29    30    1
    33    28    30    1
    34    25    31    1
    35    31    32    1
    36    22    32    1
    37     6    33    1
    38     6    34    1
    39     9    35    1
    40    23    36    1
    41    23    37    1
    42    24    38    1
    43    24    39    1
    44    28    40    1
    45    29    41    1
    46    29    42    1
    47    30    43    1
    48    30    44    1
    49    31    45    1
    50    31    46    1
    51    32    47    1
    52    32    48    1
    53     4    49    1
    54    13    50    1
    55    14    51    1
    56    15    52    1
    57    16    53    1
    58    18    54    1
    59    19    55    1
@<TRIPOS>MOLECULE
mol2_1_26
 55 59 0 0 0
SMALL
USER_CHARGES
****
VDW energy = 10.70
@<TRIPOS>ATOM
   1 O1        0.2060     0.3063    -5.2918  O.2     1  <O>11      -0.2699
   2 C1        1.1449     0.5535    -4.5497  C.2     1  <O>11       0.2495
   3 C2        2.3880    -0.1970    -4.6730  C.ar    1  <O>11       0.0723
   4 C3        2.8888    -0.5359    -5.9418  C.ar    1  <O>11      -0.0433
   5 C4        4.0753    -1.2669    -6.0592  C.ar    1  <O>11      -0.0406
   6 C5        4.5878    -1.6200    -7.3973  C.3     1  <O>11       0.0171
   7 C6        6.0033    -2.0591    -7.2850  C.ar    1  <O>11       0.0736
   8 N1        7.0363    -1.1198    -7.3922  N.ar    1  <O>11      -0.1750
   9 N2        8.3299    -1.5180    -7.3962  N.ar    1  <O>11      -0.2425
  10 C7        8.6138    -2.8367    -7.2824  C.ar    1  <O>11       0.2725
  11 O2        9.9716    -3.1914    -7.3908  O.2     1  <O>11      -0.2658
  12 C8        7.6456    -3.8280    -7.0669  C.ar    1  <O>11       0.0496
  13 C9        7.9431    -5.1979    -6.8898  C.ar    1  <O>11      -0.0487
  14 C10       6.9271    -6.1386    -6.7121  C.ar    1  <O>11      -0.0610
  15 C11       5.5981    -5.7308    -6.7157  C.ar    1  <O>11      -0.0611
  16 C12       5.2852    -4.3836    -6.8972  C.ar    1  <O>11      -0.0521
  17 C13       6.3007    -3.4155    -7.0702  C.ar    1  <O>11       0.0106
  18 C14       4.7749    -1.6620    -4.9159  C.ar    1  <O>11      -0.0555
  19 C15       4.2792    -1.3187    -3.6527  C.ar    1  <O>11      -0.0254
  20 C16       3.0970    -0.5882    -3.5253  C.ar    1  <O>11       0.1355
  21 F1        2.6152    -0.2459    -2.2883  F       1  <O>11      -0.2047
  22 N3        1.0300     1.5280    -3.6100  N.am    1  <O>11      -0.2945
  23 C17       2.0762     1.9226    -2.6612  C.3     1  <O>11       0.0308
  24 C18       1.5733     1.7815    -1.2078  C.3     1  <O>11       0.0305
  25 N4        0.2620     2.5482    -1.0164  N.am    1  <O>11      -0.2983
  26 C19      -0.0103     3.4846    -0.0691  C.2     1  <O>11       0.2187
  27 O3       -1.1094     4.0178    -0.0354  O.2     1  <O>11      -0.2753
  28 C20       1.0127     3.8541     0.9116  C.3     1  <O>11       0.0358
  29 C21       2.1352     4.2290     0.4754  C.3     1  <O>11      -0.0412
  30 C22       1.1335     5.0739     1.2018  C.3     1  <O>11      -0.0412
  31 C23      -0.7910     2.1449    -2.0524  C.3     1  <O>11       0.0305
  32 C24      -0.2067     2.2954    -3.4660  C.3     1  <O>11       0.0308
  33 H1        4.5283    -0.7508    -8.0509  H       1  <O>11       0.0377
  34 H2        3.9885    -2.4292    -7.8139  H       1  <O>11       0.0377
  35 H3        9.0735    -0.8394    -7.4829  H       1  <O>11       0.1921
  36 H4        2.9477     1.2836    -2.8022  H       1  <O>11       0.0480
  37 H5        2.3535     2.9613    -2.8451  H       1  <O>11       0.0480
  38 H6        1.4071     0.7273    -0.9867  H       1  <O>11       0.0480
  39 H7        2.3250     2.1821    -0.5280  H       1  <O>11       0.0480
  40 H8        1.0038     3.1363     1.7336  H       1  <O>11       0.0394
  41 H9        3.0602     3.9132     0.9583  H       1  <O>11       0.0273
  42 H10       2.3082     4.3563    -0.5935  H       1  <O>11       0.0273
  43 H11       1.3078     5.3931     2.2303  H       1  <O>11       0.0273
  44 H12       0.5559     5.8373     0.6777  H       1  <O>11       0.0273
  45 H13      -1.0811     1.1069    -1.8892  H       1  <O>11       0.0480
  46 H14      -1.6644     2.7880    -1.9511  H       1  <O>11       0.0480
  47 H15      -0.9345     1.9349    -4.1924  H       1  <O>11       0.0480
  48 H16       0.0043     3.3482    -3.6533  H       1  <O>11       0.0480
  49 H17       2.3789    -0.2441    -6.7902  H       1  <O>11       0.0629
  50 H18       8.9274    -5.5080    -6.8918  H       1  <O>11       0.0625
  51 H19       7.1621    -7.1346    -6.5782  H       1  <O>11       0.0618
  52 H20       4.8445    -6.4235    -6.5844  H       1  <O>11       0.0618
  53 H21       4.2962    -4.0888    -6.9052  H       1  <O>11       0.0624
  54 H22       5.6498    -2.2024    -5.0021  H       1  <O>11       0.0621
  55 H23       4.7936    -1.6089    -2.8064  H       1  <O>11       0.0646
@<TRIPOS>BOND
     1     1     2    2
     2     2     3    1
     3     3     4   ar
     4     4     5   ar
     5     5     6    1
     6     6     7    1
     7     7     8   ar
     8     8     9   ar
     9     9    10   ar
    10    10    11    2
    11    10    12   ar
    12    12    13   ar
    13    13    14   ar
    14    14    15   ar
    15    15    16   ar
    16    16    17   ar
    17     7    17   ar
    18    12    17   ar
    19     5    18   ar
    20    18    19   ar
    21    19    20   ar
    22     3    20   ar
    23    20    21    1
    24     2    22   am
    25    22    23    1
    26    23    24    1
    27    24    25    1
    28    25    26   am
    29    26    27    2
    30    26    28    1
    31    28    29    1
    32    29    30    1
    33    28    30    1
    34    25    31    1
    35    31    32    1
    36    22    32    1
    37     6    33    1
    38     6    34    1
    39     9    35    1
    40    23    36    1
    41    23    37    1
    42    24    38    1
    43    24    39    1
    44    28    40    1
    45    29    41    1
    46    29    42    1
    47    30    43    1
    48    30    44    1
    49    31    45    1
    50    31    46    1
    51    32    47    1
    52    32    48    1
    53     4    49    1
    54    13    50    1
    55    14    51    1
    56    15    52    1
    57    16    53    1
    58    18    54    1
    59    19    55    1
@<TRIPOS>MOLECULE
mol2_1_27
 55 59 0 0 0
SMALL
USER_CHARGES
****
VDW energy = 11.69
@<TRIPOS>ATOM
   1 O1        0.2060     0.3063    -5.2918  O.2     1  <O>11      -0.2699
   2 C1        1.1449     0.5535    -4.5497  C.2     1  <O>11       0.2495
   3 C2        2.3880    -0.1970    -4.6730  C.ar    1  <O>11       0.0723
   4 C3        2.8888    -0.5359    -5.9418  C.ar    1  <O>11      -0.0433
   5 C4        4.0753    -1.2669    -6.0592  C.ar    1  <O>11      -0.0406
   6 C5        4.5878    -1.6200    -7.3973  C.3     1  <O>11       0.0171
   7 C6        5.4921    -0.5439    -7.8805  C.ar    1  <O>11       0.0736
   8 N1        4.9716     0.5269    -8.6175  N.ar    1  <O>11      -0.1750
   9 N2        5.7953     1.4583    -9.1523  N.ar    1  <O>11      -0.2425
  10 C7        7.1300     1.3487    -8.9550  C.ar    1  <O>11       0.2725
  11 O2        7.9356     2.2936    -9.6178  O.2     1  <O>11      -0.2658
  12 C8        7.7217     0.3686    -8.1450  C.ar    1  <O>11       0.0496
  13 C9        9.1090     0.2860    -7.8902  C.ar    1  <O>11      -0.0487
  14 C10       9.6367    -0.7364    -7.0997  C.ar    1  <O>11      -0.0610
  15 C11       8.7916    -1.6975    -6.5568  C.ar    1  <O>11      -0.0611
  16 C12       7.4202    -1.6364    -6.8044  C.ar    1  <O>11      -0.0521
  17 C13       6.8666    -0.6038    -7.5954  C.ar    1  <O>11       0.0106
  18 C14       4.7749    -1.6620    -4.9159  C.ar    1  <O>11      -0.0555
  19 C15       4.2792    -1.3187    -3.6527  C.ar    1  <O>11      -0.0254
  20 C16       3.0970    -0.5882    -3.5253  C.ar    1  <O>11       0.1355
  21 F1        2.6152    -0.2459    -2.2883  F       1  <O>11      -0.2047
  22 N3        1.0300     1.5280    -3.6100  N.am    1  <O>11      -0.2945
  23 C17       2.0762     1.9226    -2.6612  C.3     1  <O>11       0.0308
  24 C18       1.5733     1.7815    -1.2078  C.3     1  <O>11       0.0305
  25 N4        0.2620     2.5482    -1.0164  N.am    1  <O>11      -0.2983
  26 C19      -0.0103     3.4846    -0.0691  C.2     1  <O>11       0.2187
  27 O3        0.8440     3.7924     0.7489  O.2     1  <O>11      -0.2753
  28 C20      -1.3266     4.1252    -0.0288  C.3     1  <O>11       0.0358
  29 C21      -2.3411     3.3780     0.0299  C.3     1  <O>11      -0.0412
  30 C22      -1.8556     4.3080     1.0996  C.3     1  <O>11      -0.0412
  31 C23      -0.7910     2.1449    -2.0524  C.3     1  <O>11       0.0305
  32 C24      -0.2067     2.2954    -3.4660  C.3     1  <O>11       0.0308
  33 H1        3.7538    -1.7309    -8.0889  H       1  <O>11       0.0377
  34 H2        5.1386    -2.5585    -7.3393  H       1  <O>11       0.0377
  35 H3        5.4183     2.2252    -9.6915  H       1  <O>11       0.1921
  36 H4        2.9477     1.2836    -2.8022  H       1  <O>11       0.0480
  37 H5        2.3535     2.9613    -2.8451  H       1  <O>11       0.0480
  38 H6        1.4071     0.7273    -0.9867  H       1  <O>11       0.0480
  39 H7        2.3250     2.1821    -0.5280  H       1  <O>11       0.0480
  40 H8       -1.3492     4.9535    -0.7391  H       1  <O>11       0.0394
  41 H9       -3.2391     3.6028    -0.5458  H       1  <O>11       0.0273
  42 H10      -2.2374     2.2977     0.1347  H       1  <O>11       0.0273
  43 H11      -2.3908     5.2309     1.3274  H       1  <O>11       0.0273
  44 H12      -1.3891     3.9249     2.0089  H       1  <O>11       0.0273
  45 H13      -1.0811     1.1069    -1.8892  H       1  <O>11       0.0480
  46 H14      -1.6644     2.7880    -1.9511  H       1  <O>11       0.0480
  47 H15      -0.9345     1.9349    -4.1924  H       1  <O>11       0.0480
  48 H16       0.0043     3.3482    -3.6533  H       1  <O>11       0.0480
  49 H17       2.3789    -0.2441    -6.7902  H       1  <O>11       0.0629
  50 H18       9.7425     0.9931    -8.2950  H       1  <O>11       0.0625
  51 H19      10.6518    -0.7787    -6.9187  H       1  <O>11       0.0618
  52 H20       9.1782    -2.4547    -5.9718  H       1  <O>11       0.0618
  53 H21       6.7995    -2.3569    -6.4034  H       1  <O>11       0.0624
  54 H22       5.6498    -2.2024    -5.0021  H       1  <O>11       0.0621
  55 H23       4.7936    -1.6089    -2.8064  H       1  <O>11       0.0646
@<TRIPOS>BOND
     1     1     2    2
     2     2     3    1
     3     3     4   ar
     4     4     5   ar
     5     5     6    1
     6     6     7    1
     7     7     8   ar
     8     8     9   ar
     9     9    10   ar
    10    10    11    2
    11    10    12   ar
    12    12    13   ar
    13    13    14   ar
    14    14    15   ar
    15    15    16   ar
    16    16    17   ar
    17     7    17   ar
    18    12    17   ar
    19     5    18   ar
    20    18    19   ar
    21    19    20   ar
    22     3    20   ar
    23    20    21    1
    24     2    22   am
    25    22    23    1
    26    23    24    1
    27    24    25    1
    28    25    26   am
    29    26    27    2
    30    26    28    1
    31    28    29    1
    32    29    30    1
    33    28    30    1
    34    25    31    1
    35    31    32    1
    36    22    32    1
    37     6    33    1
    38     6    34    1
    39     9    35    1
    40    23    36    1
    41    23    37    1
    42    24    38    1
    43    24    39    1
    44    28    40    1
    45    29    41    1
    46    29    42    1
    47    30    43    1
    48    30    44    1
    49    31    45    1
    50    31    46    1
    51    32    47    1
    52    32    48    1
    53     4    49    1
    54    13    50    1
    55    14    51    1
    56    15    52    1
    57    16    53    1
    58    18    54    1
    59    19    55    1
@<TRIPOS>MOLECULE
mol2_1_28
 55 59 0 0 0
SMALL
USER_CHARGES
****
VDW energy = 14.34
@<TRIPOS>ATOM
   1 O1        0.2060     0.3063    -5.2918  O.2     1  <O>11      -0.2699
   2 C1        1.1449     0.5535    -4.5497  C.2     1  <O>11       0.2495
   3 C2        2.3880    -0.1970    -4.6730  C.ar    1  <O>11       0.0723
   4 C3        2.8888    -0.5359    -5.9418  C.ar    1  <O>11      -0.0433
   5 C4        4.0753    -1.2669    -6.0592  C.ar    1  <O>11      -0.0406
   6 C5        4.5878    -1.6200    -7.3973  C.3     1  <O>11       0.0171
   7 C6        6.0033    -2.0591    -7.2850  C.ar    1  <O>11       0.0736
   8 N1        7.0363    -1.1198    -7.3922  N.ar    1  <O>11      -0.1750
   9 N2        8.3299    -1.5180    -7.3962  N.ar    1  <O>11      -0.2425
  10 C7        8.6138    -2.8367    -7.2824  C.ar    1  <O>11       0.2725
  11 O2        9.9716    -3.1914    -7.3908  O.2     1  <O>11      -0.2658
  12 C8        7.6456    -3.8280    -7.0669  C.ar    1  <O>11       0.0496
  13 C9        7.9431    -5.1979    -6.8898  C.ar    1  <O>11      -0.0487
  14 C10       6.9271    -6.1386    -6.7121  C.ar    1  <O>11      -0.0610
  15 C11       5.5981    -5.7308    -6.7157  C.ar    1  <O>11      -0.0611
  16 C12       5.2852    -4.3836    -6.8972  C.ar    1  <O>11      -0.0521
  17 C13       6.3007    -3.4155    -7.0702  C.ar    1  <O>11       0.0106
  18 C14       4.7749    -1.6620    -4.9159  C.ar    1  <O>11      -0.0555
  19 C15       4.2792    -1.3187    -3.6527  C.ar    1  <O>11      -0.0254
  20 C16       3.0970    -0.5882    -3.5253  C.ar    1  <O>11       0.1355
  21 F1        2.6152    -0.2459    -2.2883  F       1  <O>11      -0.2047
  22 N3        1.0300     1.5280    -3.6100  N.am    1  <O>11      -0.2945
  23 C17       2.0762     1.9226    -2.6612  C.3     1  <O>11       0.0308
  24 C18       1.5733     1.7815    -1.2078  C.3     1  <O>11       0.0305
  25 N4        0.2620     2.5482    -1.0164  N.am    1  <O>11      -0.2983
  26 C19      -0.0103     3.4846    -0.0691  C.2     1  <O>11       0.2187
  27 O3        0.8440     3.7924     0.7489  O.2     1  <O>11      -0.2753
  28 C20      -1.3266     4.1252    -0.0288  C.3     1  <O>11       0.0358
  29 C21      -2.3411     3.3780     0.0299  C.3     1  <O>11      -0.0412
  30 C22      -1.8556     4.3080     1.0996  C.3     1  <O>11      -0.0412
  31 C23      -0.7910     2.1449    -2.0524  C.3     1  <O>11       0.0305
  32 C24      -0.2067     2.2954    -3.4660  C.3     1  <O>11       0.0308
  33 H1        4.5283    -0.7508    -8.0509  H       1  <O>11       0.0377
  34 H2        3.9885    -2.4292    -7.8139  H       1  <O>11       0.0377
  35 H3        9.0735    -0.8394    -7.4829  H       1  <O>11       0.1921
  36 H4        2.9477     1.2836    -2.8022  H       1  <O>11       0.0480
  37 H5        2.3535     2.9613    -2.8451  H       1  <O>11       0.0480
  38 H6        1.4071     0.7273    -0.9867  H       1  <O>11       0.0480
  39 H7        2.3250     2.1821    -0.5280  H       1  <O>11       0.0480
  40 H8       -1.3492     4.9535    -0.7391  H       1  <O>11       0.0394
  41 H9       -3.2391     3.6028    -0.5458  H       1  <O>11       0.0273
  42 H10      -2.2374     2.2977     0.1347  H       1  <O>11       0.0273
  43 H11      -2.3908     5.2309     1.3274  H       1  <O>11       0.0273
  44 H12      -1.3891     3.9249     2.0089  H       1  <O>11       0.0273
  45 H13      -1.0811     1.1069    -1.8892  H       1  <O>11       0.0480
  46 H14      -1.6644     2.7880    -1.9511  H       1  <O>11       0.0480
  47 H15      -0.9345     1.9349    -4.1924  H       1  <O>11       0.0480
  48 H16       0.0043     3.3482    -3.6533  H       1  <O>11       0.0480
  49 H17       2.3789    -0.2441    -6.7902  H       1  <O>11       0.0629
  50 H18       8.9274    -5.5080    -6.8918  H       1  <O>11       0.0625
  51 H19       7.1621    -7.1346    -6.5782  H       1  <O>11       0.0618
  52 H20       4.8445    -6.4235    -6.5844  H       1  <O>11       0.0618
  53 H21       4.2962    -4.0888    -6.9052  H       1  <O>11       0.0624
  54 H22       5.6498    -2.2024    -5.0021  H       1  <O>11       0.0621
  55 H23       4.7936    -1.6089    -2.8064  H       1  <O>11       0.0646
@<TRIPOS>BOND
     1     1     2    2
     2     2     3    1
     3     3     4   ar
     4     4     5   ar
     5     5     6    1
     6     6     7    1
     7     7     8   ar
     8     8     9   ar
     9     9    10   ar
    10    10    11    2
    11    10    12   ar
    12    12    13   ar
    13    13    14   ar
    14    14    15   ar
    15    15    16   ar
    16    16    17   ar
    17     7    17   ar
    18    12    17   ar
    19     5    18   ar
    20    18    19   ar
    21    19    20   ar
    22     3    20   ar
    23    20    21    1
    24     2    22   am
    25    22    23    1
    26    23    24    1
    27    24    25    1
    28    25    26   am
    29    26    27    2
    30    26    28    1
    31    28    29    1
    32    29    30    1
    33    28    30    1
    34    25    31    1
    35    31    32    1
    36    22    32    1
    37     6    33    1
    38     6    34    1
    39     9    35    1
    40    23    36    1
    41    23    37    1
    42    24    38    1
    43    24    39    1
    44    28    40    1
    45    29    41    1
    46    29    42    1
    47    30    43    1
    48    30    44    1
    49    31    45    1
    50    31    46    1
    51    32    47    1
    52    32    48    1
    53     4    49    1
    54    13    50    1
    55    14    51    1
    56    15    52    1
    57    16    53    1
    58    18    54    1
    59    19    55    1
@<TRIPOS>MOLECULE
mol2_1_29
 55 59 0 0 0
SMALL
USER_CHARGES
****
VDW energy = 22.85
@<TRIPOS>ATOM
   1 O1        0.2060     0.3063    -5.2918  O.2     1  <O>11      -0.2699
   2 C1        1.1449     0.5535    -4.5497  C.2     1  <O>11       0.2495
   3 C2        2.3880    -0.1970    -4.6730  C.ar    1  <O>11       0.0723
   4 C3        2.3596    -1.5795    -4.9247  C.ar    1  <O>11      -0.0433
   5 C4        3.5527    -2.3015    -5.0306  C.ar    1  <O>11      -0.0406
   6 C5        3.5087    -3.7535    -5.2907  C.3     1  <O>11       0.0171
   7 C6        4.8537    -4.2208    -5.7167  C.ar    1  <O>11       0.0736
   8 N1        5.1944    -4.2229    -7.0749  N.ar    1  <O>11      -0.1750
   9 N2        6.3745    -4.7420    -7.4870  N.ar    1  <O>11      -0.2425
  10 C7        7.2286    -5.2486    -6.5671  C.ar    1  <O>11       0.2725
  11 O2        8.3927    -5.8592    -7.0701  O.2     1  <O>11      -0.2658
  12 C8        7.0098    -5.1906    -5.1831  C.ar    1  <O>11       0.0496
  13 C9        7.9254    -5.6662    -4.2177  C.ar    1  <O>11      -0.0487
  14 C10       7.6302    -5.6078    -2.8545  C.ar    1  <O>11      -0.0610
  15 C11       6.4149    -5.0818    -2.4317  C.ar    1  <O>11      -0.0611
  16 C12       5.4954    -4.6149    -3.3709  C.ar    1  <O>11      -0.0521
  17 C13       5.7802    -4.6581    -4.7549  C.ar    1  <O>11       0.0106
  18 C14       4.7827    -1.6530    -4.8917  C.ar    1  <O>11      -0.0555
  19 C15       4.8106    -0.2750    -4.6475  C.ar    1  <O>11      -0.0254
  20 C16       3.6255     0.4543    -4.5417  C.ar    1  <O>11       0.1355
  21 F1        3.6530     1.8051    -4.3095  F       1  <O>11      -0.2047
  22 N3        1.0300     1.5280    -3.6100  N.am    1  <O>11      -0.2945
  23 C17      -0.1601     2.3538    -3.3819  C.3     1  <O>11       0.0308
  24 C18       0.1827     3.8529    -3.5259  C.3     1  <O>11       0.0305
  25 N4        1.3598     4.2241    -2.6201  N.am    1  <O>11      -0.2983
  26 C19       1.4038     5.2241    -1.7001  C.2     1  <O>11       0.2187
  27 O3        2.4186     5.4062    -1.0439  O.2     1  <O>11      -0.2753
  28 C20       0.2359     6.0837    -1.4956  C.3     1  <O>11       0.0358
  29 C21       0.3245     6.9978    -0.6310  C.3     1  <O>11      -0.0412
  30 C22       0.2001     7.1811    -2.1128  C.3     1  <O>11      -0.0412
  31 C23       2.5679     3.3122    -2.8522  C.3     1  <O>11       0.0305
  32 C24       2.1391     1.8432    -2.7102  C.3     1  <O>11       0.0308
  33 H1        2.7862    -3.9603    -6.0789  H       1  <O>11       0.0377
  34 H2        3.2136    -4.2766    -4.3813  H       1  <O>11       0.0377
  35 H3        6.6144    -4.7507    -8.4685  H       1  <O>11       0.1921
  36 H4       -0.9251     2.0897    -4.1117  H       1  <O>11       0.0480
  37 H5       -0.5379     2.1678    -2.3758  H       1  <O>11       0.0480
  38 H6        0.4485     4.0619    -4.5620  H       1  <O>11       0.0480
  39 H7       -0.6863     4.4478    -3.2458  H       1  <O>11       0.0480
  40 H8       -0.6687     5.4731    -1.4948  H       1  <O>11       0.0394
  41 H9       -0.5080     7.2240     0.0355  H       1  <O>11       0.0273
  42 H10       1.2656     7.1953    -0.1173  H       1  <O>11       0.0273
  43 H11      -0.7265     7.5463    -2.5582  H       1  <O>11       0.0273
  44 H12       1.0482     7.5185    -2.7112  H       1  <O>11       0.0273
  45 H13       2.9607     3.4792    -3.8553  H       1  <O>11       0.0480
  46 H14       3.3389     3.5373    -2.1163  H       1  <O>11       0.0480
  47 H15       2.9851     1.2003    -2.9513  H       1  <O>11       0.0480
  48 H16       1.8252     1.6621    -1.6821  H       1  <O>11       0.0480
  49 H17       1.4547    -2.0638    -5.0319  H       1  <O>11       0.0629
  50 H18       8.8270    -6.0631    -4.5253  H       1  <O>11       0.0625
  51 H19       8.3127    -5.9543    -2.1623  H       1  <O>11       0.0618
  52 H20       6.1934    -5.0369    -1.4247  H       1  <O>11       0.0618
  53 H21       4.5924    -4.2316    -3.0502  H       1  <O>11       0.0624
  54 H22       5.6633    -2.1856    -4.9686  H       1  <O>11       0.0621
  55 H23       5.7174     0.2068    -4.5445  H       1  <O>11       0.0646
@<TRIPOS>BOND
     1     1     2    2
     2     2     3    1
     3     3     4   ar
     4     4     5   ar
     5     5     6    1
     6     6     7    1
     7     7     8   ar
     8     8     9   ar
     9     9    10   ar
    10    10    11    2
    11    10    12   ar
    12    12    13   ar
    13    13    14   ar
    14    14    15   ar
    15    15    16   ar
    16    16    17   ar
    17     7    17   ar
    18    12    17   ar
    19     5    18   ar
    20    18    19   ar
    21    19    20   ar
    22     3    20   ar
    23    20    21    1
    24     2    22   am
    25    22    23    1
    26    23    24    1
    27    24    25    1
    28    25    26   am
    29    26    27    2
    30    26    28    1
    31    28    29    1
    32    29    30    1
    33    28    30    1
    34    25    31    1
    35    31    32    1
    36    22    32    1
    37     6    33    1
    38     6    34    1
    39     9    35    1
    40    23    36    1
    41    23    37    1
    42    24    38    1
    43    24    39    1
    44    28    40    1
    45    29    41    1
    46    29    42    1
    47    30    43    1
    48    30    44    1
    49    31    45    1
    50    31    46    1
    51    32    47    1
    52    32    48    1
    53     4    49    1
    54    13    50    1
    55    14    51    1
    56    15    52    1
    57    16    53    1
    58    18    54    1
    59    19    55    1
@<TRIPOS>MOLECULE
mol2_1_30
 55 59 0 0 0
SMALL
USER_CHARGES
****
VDW energy = 24.36
@<TRIPOS>ATOM
   1 O1        0.2060     0.3063    -5.2918  O.2     1  <O>11      -0.2699
   2 C1        1.1449     0.5535    -4.5497  C.2     1  <O>11       0.2495
   3 C2        2.3880    -0.1970    -4.6730  C.ar    1  <O>11       0.0723
   4 C3        2.3596    -1.5795    -4.9247  C.ar    1  <O>11      -0.0433
   5 C4        3.5527    -2.3015    -5.0306  C.ar    1  <O>11      -0.0406
   6 C5        3.5087    -3.7535    -5.2907  C.3     1  <O>11       0.0171
   7 C6        4.8537    -4.2208    -5.7167  C.ar    1  <O>11       0.0736
   8 N1        5.1944    -4.2229    -7.0749  N.ar    1  <O>11      -0.1750
   9 N2        6.3745    -4.7420    -7.4870  N.ar    1  <O>11      -0.2425
  10 C7        7.2286    -5.2486    -6.5671  C.ar    1  <O>11       0.2725
  11 O2        8.3927    -5.8592    -7.0701  O.2     1  <O>11      -0.2658
  12 C8        7.0098    -5.1906    -5.1831  C.ar    1  <O>11       0.0496
  13 C9        7.9254    -5.6662    -4.2177  C.ar    1  <O>11      -0.0487
  14 C10       7.6302    -5.6078    -2.8545  C.ar    1  <O>11      -0.0610
  15 C11       6.4149    -5.0818    -2.4317  C.ar    1  <O>11      -0.0611
  16 C12       5.4954    -4.6149    -3.3709  C.ar    1  <O>11      -0.0521
  17 C13       5.7802    -4.6581    -4.7549  C.ar    1  <O>11       0.0106
  18 C14       4.7827    -1.6530    -4.8917  C.ar    1  <O>11      -0.0555
  19 C15       4.8106    -0.2750    -4.6475  C.ar    1  <O>11      -0.0254
  20 C16       3.6255     0.4543    -4.5417  C.ar    1  <O>11       0.1355
  21 F1        3.6530     1.8051    -4.3095  F       1  <O>11      -0.2047
  22 N3        1.0300     1.5280    -3.6100  N.am    1  <O>11      -0.2945
  23 C17      -0.1600     2.3540    -3.3820  C.3     1  <O>11       0.0308
  24 C18       0.1830     3.8530    -3.5260  C.3     1  <O>11       0.0305
  25 N4        1.3600     4.2240    -2.6200  N.am    1  <O>11      -0.2983
  26 C19       1.4040     5.2240    -1.7000  C.2     1  <O>11       0.2187
  27 O3        0.4290     5.9410    -1.5300  O.2     1  <O>11      -0.2753
  28 C20       2.6190     5.4420    -0.9120  C.3     1  <O>11       0.0358
  29 C21       2.5390     6.2023     0.0912  C.3     1  <O>11      -0.0412
  30 C22       2.7919     4.7257     0.1096  C.3     1  <O>11      -0.0412
  31 C23       2.5680     3.3120    -2.8520  C.3     1  <O>11       0.0305
  32 C24       2.1390     1.8430    -2.7100  C.3     1  <O>11       0.0308
  33 H1        2.7862    -3.9603    -6.0789  H       1  <O>11       0.0377
  34 H2        3.2136    -4.2766    -4.3813  H       1  <O>11       0.0377
  35 H3        6.6144    -4.7507    -8.4685  H       1  <O>11       0.1921
  36 H4       -0.9250     2.0900    -4.1120  H       1  <O>11       0.0480
  37 H5       -0.5380     2.1680    -2.3760  H       1  <O>11       0.0480
  38 H6        0.4490     4.0620    -4.5620  H       1  <O>11       0.0480
  39 H7       -0.6860     4.4480    -3.2460  H       1  <O>11       0.0480
  40 H8        3.4679     5.5793    -1.5840  H       1  <O>11       0.0394
  41 H9        3.3334     6.9119     0.3237  H       1  <O>11       0.0273
  42 H10       1.5805     6.6125     0.4098  H       1  <O>11       0.0273
  43 H11       3.7767     4.3270     0.3573  H       1  <O>11       0.0273
  44 H12       2.0228     4.0274     0.4444  H       1  <O>11       0.0273
  45 H13       2.9610     3.4790    -3.8550  H       1  <O>11       0.0480
  46 H14       3.3390     3.5370    -2.1160  H       1  <O>11       0.0480
  47 H15       2.9850     1.2000    -2.9510  H       1  <O>11       0.0480
  48 H16       1.8250     1.6620    -1.6820  H       1  <O>11       0.0480
  49 H17       1.4547    -2.0638    -5.0319  H       1  <O>11       0.0629
  50 H18       8.8270    -6.0631    -4.5253  H       1  <O>11       0.0625
  51 H19       8.3127    -5.9543    -2.1623  H       1  <O>11       0.0618
  52 H20       6.1934    -5.0369    -1.4247  H       1  <O>11       0.0618
  53 H21       4.5924    -4.2316    -3.0502  H       1  <O>11       0.0624
  54 H22       5.6633    -2.1856    -4.9686  H       1  <O>11       0.0621
  55 H23       5.7174     0.2068    -4.5445  H       1  <O>11       0.0646
@<TRIPOS>BOND
     1     1     2    2
     2     2     3    1
     3     3     4   ar
     4     4     5   ar
     5     5     6    1
     6     6     7    1
     7     7     8   ar
     8     8     9   ar
     9     9    10   ar
    10    10    11    2
    11    10    12   ar
    12    12    13   ar
    13    13    14   ar
    14    14    15   ar
    15    15    16   ar
    16    16    17   ar
    17     7    17   ar
    18    12    17   ar
    19     5    18   ar
    20    18    19   ar
    21    19    20   ar
    22     3    20   ar
    23    20    21    1
    24     2    22   am
    25    22    23    1
    26    23    24    1
    27    24    25    1
    28    25    26   am
    29    26    27    2
    30    26    28    1
    31    28    29    1
    32    29    30    1
    33    28    30    1
    34    25    31    1
    35    31    32    1
    36    22    32    1
    37     6    33    1
    38     6    34    1
    39     9    35    1
    40    23    36    1
    41    23    37    1
    42    24    38    1
    43    24    39    1
    44    28    40    1
    45    29    41    1
    46    29    42    1
    47    30    43    1
    48    30    44    1
    49    31    45    1
    50    31    46    1
    51    32    47    1
    52    32    48    1
    53     4    49    1
    54    13    50    1
    55    14    51    1
    56    15    52    1
    57    16    53    1
    58    18    54    1
    59    19    55    1
