@<TRIPOS>MOLECULE
mol24_1_1
 47 50 0 0 0
SMALL
USER_CHARGES
****
VDW energy = 23.33
@<TRIPOS>ATOM
   1 O1        7.3129    -1.0371    -2.8426  O.2     1  <O>11      -0.2684
   2 C1        6.7640    -0.2742    -2.0616  C.2     1  <O>11       0.2650
   3 N1        5.5270    -0.5800    -1.5610  N.am    1  <O>11      -0.3059
   4 C2        4.8640    -1.8180    -1.9600  C.3     1  <O>11       0.0372
   5 C3        3.4572    -1.8029    -1.4810  C.ar    1  <O>11      -0.0301
   6 C4        2.4380    -1.2741    -2.2920  C.ar    1  <O>11      -0.0544
   7 C5        1.1159    -1.2488    -1.8347  C.ar    1  <O>11      -0.0261
   8 C6        0.7978    -1.7529    -0.5708  C.ar    1  <O>11       0.1234
   9 F1       -0.4956    -1.7283    -0.1166  F       1  <O>11      -0.2055
  10 C7        1.8119    -2.2857     0.2328  C.ar    1  <O>11      -0.0261
  11 C8        3.1345    -2.3167    -0.2147  C.ar    1  <O>11      -0.0544
  12 C9        7.4210     0.9530    -1.6660  C.ar    1  <O>11       0.1535
  13 N2        8.2115     0.8700    -0.5687  N.ar    1  <O>11      -0.1626
  14 N3        8.7772     1.9952    -0.0736  N.ar    1  <O>11      -0.2239
  15 C10       9.6148     1.9361     1.0975  C.3     1  <O>11       0.0703
  16 C11       8.9622     2.6730     2.2108  C.ar    1  <O>11      -0.0260
  17 C12       9.7211     3.1238     3.3045  C.ar    1  <O>11      -0.0568
  18 C13       9.1032     3.8066     4.3574  C.ar    1  <O>11      -0.0614
  19 C14       7.7273     4.0485     4.3277  C.ar    1  <O>11      -0.0617
  20 C15       6.9733     3.6054     3.2357  C.ar    1  <O>11      -0.0614
  21 C16       7.5815     2.9256     2.1779  C.ar    1  <O>11      -0.0568
  22 C17       8.5466     3.1761    -0.6940  C.ar    1  <O>11       0.2753
  23 O2        9.0834     4.3202    -0.0739  O.2     1  <O>11      -0.2655
  24 C18       7.8206     3.3018    -1.8874  C.ar    1  <O>11       0.0503
  25 C19       7.6261     4.5249    -2.5697  C.ar    1  <O>11      -0.0487
  26 C20       6.8657     4.5853    -3.7370  C.ar    1  <O>11      -0.0610
  27 C21       6.2783     3.4299    -4.2409  C.ar    1  <O>11      -0.0611
  28 C22       6.4524     2.2147    -3.5766  C.ar    1  <O>11      -0.0516
  29 C23       7.2277     2.1338    -2.3974  C.ar    1  <O>11       0.0195
  30 H1        5.0690     0.0560    -0.9090  H       1  <O>11       0.1494
  31 H2        5.3876    -2.6685    -1.5217  H       1  <O>11       0.0512
  32 H3        4.8776    -1.9039    -3.0462  H       1  <O>11       0.0512
  33 H4       10.5811     2.3905     0.8775  H       1  <O>11       0.0560
  34 H5        9.7602     0.8947     1.3876  H       1  <O>11       0.0560
  35 H6        2.6656    -0.9034    -3.2278  H       1  <O>11       0.0622
  36 H7        0.3726    -0.8562    -2.4332  H       1  <O>11       0.0646
  37 H8        1.5800    -2.6598     1.1663  H       1  <O>11       0.0646
  38 H9        3.8735    -2.7166     0.3845  H       1  <O>11       0.0622
  39 H10      10.7381     2.9504     3.3310  H       1  <O>11       0.0621
  40 H11       9.6654     4.1329     5.1590  H       1  <O>11       0.0618
  41 H12       7.2708     4.5502     5.1054  H       1  <O>11       0.0618
  42 H13       5.9570     3.7827     3.2115  H       1  <O>11       0.0618
  43 H14       7.0171     2.6097     1.3737  H       1  <O>11       0.0621
  44 H15       8.0539     5.3872    -2.1976  H       1  <O>11       0.0625
  45 H16       6.7391     5.4853    -4.2259  H       1  <O>11       0.0618
  46 H17       5.7146     3.4709    -5.1044  H       1  <O>11       0.0618
  47 H18       6.0081     1.3622    -3.9521  H       1  <O>11       0.0624
@<TRIPOS>BOND
     1     1     2    2
     2     2     3   am
     3     3     4    1
     4     4     5    1
     5     5     6   ar
     6     6     7   ar
     7     7     8   ar
     8     8     9    1
     9     8    10   ar
    10    10    11   ar
    11     5    11   ar
    12     2    12    1
    13    12    13   ar
    14    13    14   ar
    15    14    15    1
    16    15    16    1
    17    16    17   ar
    18    17    18   ar
    19    18    19   ar
    20    19    20   ar
    21    20    21   ar
    22    16    21   ar
    23    14    22   ar
    24    22    23    2
    25    22    24   ar
    26    24    25   ar
    27    25    26   ar
    28    26    27   ar
    29    27    28   ar
    30    28    29   ar
    31    12    29   ar
    32    24    29   ar
    33     3    30    1
    34     4    31    1
    35     4    32    1
    36    15    33    1
    37    15    34    1
    38     6    35    1
    39     7    36    1
    40    10    37    1
    41    11    38    1
    42    17    39    1
    43    18    40    1
    44    19    41    1
    45    20    42    1
    46    21    43    1
    47    25    44    1
    48    26    45    1
    49    27    46    1
    50    28    47    1
@<TRIPOS>MOLECULE
mol24_1_2
 47 50 0 0 0
SMALL
USER_CHARGES
****
VDW energy = 24.07
@<TRIPOS>ATOM
   1 O1        7.3129    -1.0371    -2.8426  O.2     1  <O>11      -0.2684
   2 C1        6.7640    -0.2742    -2.0616  C.2     1  <O>11       0.2650
   3 N1        5.5270    -0.5800    -1.5610  N.am    1  <O>11      -0.3059
   4 C2        4.8640    -1.8180    -1.9600  C.3     1  <O>11       0.0372
   5 C3        3.4572    -1.8029    -1.4810  C.ar    1  <O>11      -0.0301
   6 C4        3.1346    -2.3172    -0.2131  C.ar    1  <O>11      -0.0544
   7 C5        1.8080    -2.3140     0.2314  C.ar    1  <O>11      -0.0261
   8 C6        0.7945    -1.7955    -0.5791  C.ar    1  <O>11       0.1234
   9 F1       -0.5075    -1.7922    -0.1495  F       1  <O>11      -0.2055
  10 C7        1.1177    -1.2771    -1.8380  C.ar    1  <O>11      -0.0261
  11 C8        2.4388    -1.2746    -2.2907  C.ar    1  <O>11      -0.0544
  12 C9        7.4210     0.9530    -1.6660  C.ar    1  <O>11       0.1535
  13 N2        7.1648     2.0340    -2.4416  N.ar    1  <O>11      -0.1626
  14 N3        7.8217     3.1925    -2.2006  N.ar    1  <O>11      -0.2239
  15 C10       7.5745     4.3544    -3.0161  C.3     1  <O>11       0.0703
  16 C11       8.8019     4.6911    -3.7833  C.ar    1  <O>11      -0.0260
  17 C12       8.9744     5.9801    -4.3162  C.ar    1  <O>11      -0.0568
  18 C13      10.1248     6.2918    -5.0485  C.ar    1  <O>11      -0.0614
  19 C14      11.1124     5.3246    -5.2526  C.ar    1  <O>11      -0.0617
  20 C15      10.9432     4.0435    -4.7164  C.ar    1  <O>11      -0.0614
  21 C16       9.7998     3.7234    -3.9809  C.ar    1  <O>11      -0.0568
  22 C17       8.7125     3.2448    -1.1826  C.ar    1  <O>11       0.2753
  23 O2        9.4319     4.4471    -1.0463  O.2     1  <O>11      -0.2655
  24 C18       8.9398     2.1876    -0.2894  C.ar    1  <O>11       0.0503
  25 C19       9.8266     2.2575     0.8097  C.ar    1  <O>11      -0.0487
  26 C20      10.0302     1.1572     1.6418  C.ar    1  <O>11      -0.0610
  27 C21       9.3608    -0.0351     1.3888  C.ar    1  <O>11      -0.0611
  28 C22       8.4876    -0.1257     0.3036  C.ar    1  <O>11      -0.0516
  29 C23       8.2622     0.9826    -0.5444  C.ar    1  <O>11       0.0195
  30 H1        5.0690     0.0560    -0.9090  H       1  <O>11       0.1494
  31 H2        5.3876    -2.6685    -1.5217  H       1  <O>11       0.0512
  32 H3        4.8776    -1.9039    -3.0462  H       1  <O>11       0.0512
  33 H4        7.3019     5.1956    -2.3784  H       1  <O>11       0.0560
  34 H5        6.7592     4.1444    -3.7096  H       1  <O>11       0.0560
  35 H6        3.8787    -2.6984     0.3918  H       1  <O>11       0.0622
  36 H7        1.5769    -2.6961     1.1617  H       1  <O>11       0.0646
  37 H8        0.3717    -0.8925    -2.4385  H       1  <O>11       0.0646
  38 H9        2.6663    -0.8851    -3.2189  H       1  <O>11       0.0622
  39 H10       8.2497     6.6995    -4.1667  H       1  <O>11       0.0621
  40 H11      10.2445     7.2393    -5.4394  H       1  <O>11       0.0618
  41 H12      11.9600     5.5535    -5.7948  H       1  <O>11       0.0618
  42 H13      11.6711     3.3274    -4.8659  H       1  <O>11       0.0618
  43 H14       9.6886     2.7775    -3.5836  H       1  <O>11       0.0621
  44 H15      10.3315     3.1374     0.9991  H       1  <O>11       0.0625
  45 H16      10.6763     1.2275     2.4434  H       1  <O>11       0.0618
  46 H17       9.5093    -0.8516     2.0024  H       1  <O>11       0.0618
  47 H18       7.9990    -1.0155     0.1174  H       1  <O>11       0.0624
@<TRIPOS>BOND
     1     1     2    2
     2     2     3   am
     3     3     4    1
     4     4     5    1
     5     5     6   ar
     6     6     7   ar
     7     7     8   ar
     8     8     9    1
     9     8    10   ar
    10    10    11   ar
    11     5    11   ar
    12     2    12    1
    13    12    13   ar
    14    13    14   ar
    15    14    15    1
    16    15    16    1
    17    16    17   ar
    18    17    18   ar
    19    18    19   ar
    20    19    20   ar
    21    20    21   ar
    22    16    21   ar
    23    14    22   ar
    24    22    23    2
    25    22    24   ar
    26    24    25   ar
    27    25    26   ar
    28    26    27   ar
    29    27    28   ar
    30    28    29   ar
    31    12    29   ar
    32    24    29   ar
    33     3    30    1
    34     4    31    1
    35     4    32    1
    36    15    33    1
    37    15    34    1
    38     6    35    1
    39     7    36    1
    40    10    37    1
    41    11    38    1
    42    17    39    1
    43    18    40    1
    44    19    41    1
    45    20    42    1
    46    21    43    1
    47    25    44    1
    48    26    45    1
    49    27    46    1
    50    28    47    1
@<TRIPOS>MOLECULE
mol24_1_3
 47 50 0 0 0
SMALL
USER_CHARGES
****
VDW energy = 25.14
@<TRIPOS>ATOM
   1 O1        7.3129    -1.0371    -2.8426  O.2     1  <O>11      -0.2684
   2 C1        6.7640    -0.2742    -2.0616  C.2     1  <O>11       0.2650
   3 N1        5.5270    -0.5800    -1.5610  N.am    1  <O>11      -0.3059
   4 C2        4.8640    -1.8180    -1.9600  C.3     1  <O>11       0.0372
   5 C3        3.5446    -1.9135    -1.2828  C.ar    1  <O>11      -0.0301
   6 C4        3.0843    -3.1504    -0.7985  C.ar    1  <O>11      -0.0544
   7 C5        1.8363    -3.2413    -0.1725  C.ar    1  <O>11      -0.0261
   8 C6        1.0402    -2.1031    -0.0196  C.ar    1  <O>11       0.1234
   9 F1       -0.1846    -2.1869     0.5908  F       1  <O>11      -0.2055
  10 C7        1.5024    -0.8710    -0.4954  C.ar    1  <O>11      -0.0261
  11 C8        2.7470    -0.7693    -1.1208  C.ar    1  <O>11      -0.0544
  12 C9        7.4210     0.9530    -1.6660  C.ar    1  <O>11       0.1535
  13 N2        8.2115     0.8700    -0.5687  N.ar    1  <O>11      -0.1626
  14 N3        8.7772     1.9952    -0.0736  N.ar    1  <O>11      -0.2239
  15 C10       9.6148     1.9361     1.0975  C.3     1  <O>11       0.0703
  16 C11       9.8396     0.5163     1.4743  C.ar    1  <O>11      -0.0260
  17 C12      10.4590    -0.3674     0.5739  C.ar    1  <O>11      -0.0568
  18 C13      10.6588    -1.7065     0.9256  C.ar    1  <O>11      -0.0614
  19 C14      10.2471    -2.1744     2.1762  C.ar    1  <O>11      -0.0617
  20 C15       9.6364    -1.2929     3.0747  C.ar    1  <O>11      -0.0614
  21 C16       9.4354     0.0468     2.7343  C.ar    1  <O>11      -0.0568
  22 C17       8.5466     3.1761    -0.6940  C.ar    1  <O>11       0.2753
  23 O2        9.0834     4.3202    -0.0739  O.2     1  <O>11      -0.2655
  24 C18       7.8206     3.3018    -1.8874  C.ar    1  <O>11       0.0503
  25 C19       7.6261     4.5249    -2.5697  C.ar    1  <O>11      -0.0487
  26 C20       6.8657     4.5853    -3.7370  C.ar    1  <O>11      -0.0610
  27 C21       6.2783     3.4299    -4.2409  C.ar    1  <O>11      -0.0611
  28 C22       6.4524     2.2147    -3.5766  C.ar    1  <O>11      -0.0516
  29 C23       7.2277     2.1338    -2.3974  C.ar    1  <O>11       0.0195
  30 H1        5.0690     0.0560    -0.9090  H       1  <O>11       0.1494
  31 H2        5.4817    -2.6700    -1.6734  H       1  <O>11       0.0512
  32 H3        4.7196    -1.8213    -3.0401  H       1  <O>11       0.0512
  33 H4        9.1269     2.4582     1.9209  H       1  <O>11       0.0560
  34 H5       10.5731     2.4107     0.8828  H       1  <O>11       0.0560
  35 H6        3.6688    -3.9942    -0.9052  H       1  <O>11       0.0622
  36 H7        1.5024    -4.1527     0.1778  H       1  <O>11       0.0646
  37 H8        0.9172    -0.0284    -0.3830  H       1  <O>11       0.0646
  38 H9        3.0799     0.1455    -1.4633  H       1  <O>11       0.0622
  39 H10      10.7676    -0.0272    -0.3502  H       1  <O>11       0.0621
  40 H11      11.1120    -2.3511     0.2592  H       1  <O>11       0.0618
  41 H12      10.3922    -3.1628     2.4350  H       1  <O>11       0.0618
  42 H13       9.3313    -1.6360     3.9989  H       1  <O>11       0.0618
  43 H14       8.9907     0.6902     3.4075  H       1  <O>11       0.0621
  44 H15       8.0539     5.3872    -2.1976  H       1  <O>11       0.0625
  45 H16       6.7391     5.4853    -4.2259  H       1  <O>11       0.0618
  46 H17       5.7146     3.4709    -5.1044  H       1  <O>11       0.0618
  47 H18       6.0081     1.3622    -3.9521  H       1  <O>11       0.0624
@<TRIPOS>BOND
     1     1     2    2
     2     2     3   am
     3     3     4    1
     4     4     5    1
     5     5     6   ar
     6     6     7   ar
     7     7     8   ar
     8     8     9    1
     9     8    10   ar
    10    10    11   ar
    11     5    11   ar
    12     2    12    1
    13    12    13   ar
    14    13    14   ar
    15    14    15    1
    16    15    16    1
    17    16    17   ar
    18    17    18   ar
    19    18    19   ar
    20    19    20   ar
    21    20    21   ar
    22    16    21   ar
    23    14    22   ar
    24    22    23    2
    25    22    24   ar
    26    24    25   ar
    27    25    26   ar
    28    26    27   ar
    29    27    28   ar
    30    28    29   ar
    31    12    29   ar
    32    24    29   ar
    33     3    30    1
    34     4    31    1
    35     4    32    1
    36    15    33    1
    37    15    34    1
    38     6    35    1
    39     7    36    1
    40    10    37    1
    41    11    38    1
    42    17    39    1
    43    18    40    1
    44    19    41    1
    45    20    42    1
    46    21    43    1
    47    25    44    1
    48    26    45    1
    49    27    46    1
    50    28    47    1
@<TRIPOS>MOLECULE
mol24_1_4
 47 50 0 0 0
SMALL
USER_CHARGES
****
VDW energy = 25.48
@<TRIPOS>ATOM
   1 O1        7.3129    -1.0371    -2.8426  O.2     1  <O>11      -0.2684
   2 C1        6.7640    -0.2742    -2.0616  C.2     1  <O>11       0.2650
   3 N1        5.5270    -0.5800    -1.5610  N.am    1  <O>11      -0.3059
   4 C2        4.8714     0.3320    -0.6284  C.3     1  <O>11       0.0372
   5 C3        3.5504    -0.2252    -0.2371  C.ar    1  <O>11      -0.0301
   6 C4        2.4399     0.6234    -0.0856  C.ar    1  <O>11      -0.0544
   7 C5        1.1998     0.0992     0.2952  C.ar    1  <O>11      -0.0261
   8 C6        1.0544    -1.2718     0.5234  C.ar    1  <O>11       0.1234
   9 F1       -0.1578    -1.7904     0.8992  F       1  <O>11      -0.2055
  10 C7        2.1586    -2.1166     0.3653  C.ar    1  <O>11      -0.0261
  11 C8        3.4005    -1.6037    -0.0156  C.ar    1  <O>11      -0.0544
  12 C9        7.4210     0.9530    -1.6660  C.ar    1  <O>11       0.1535
  13 N2        8.2115     0.8700    -0.5687  N.ar    1  <O>11      -0.1626
  14 N3        8.7772     1.9952    -0.0736  N.ar    1  <O>11      -0.2239
  15 C10       9.6148     1.9361     1.0975  C.3     1  <O>11       0.0703
  16 C11       9.8396     0.5163     1.4743  C.ar    1  <O>11      -0.0260
  17 C12      10.4590    -0.3674     0.5739  C.ar    1  <O>11      -0.0568
  18 C13      10.6588    -1.7065     0.9256  C.ar    1  <O>11      -0.0614
  19 C14      10.2471    -2.1744     2.1762  C.ar    1  <O>11      -0.0617
  20 C15       9.6364    -1.2929     3.0747  C.ar    1  <O>11      -0.0614
  21 C16       9.4354     0.0468     2.7343  C.ar    1  <O>11      -0.0568
  22 C17       8.5466     3.1761    -0.6940  C.ar    1  <O>11       0.2753
  23 O2        9.0834     4.3202    -0.0739  O.2     1  <O>11      -0.2655
  24 C18       7.8206     3.3018    -1.8874  C.ar    1  <O>11       0.0503
  25 C19       7.6261     4.5249    -2.5697  C.ar    1  <O>11      -0.0487
  26 C20       6.8657     4.5853    -3.7370  C.ar    1  <O>11      -0.0610
  27 C21       6.2783     3.4299    -4.2409  C.ar    1  <O>11      -0.0611
  28 C22       6.4524     2.2147    -3.5766  C.ar    1  <O>11      -0.0516
  29 C23       7.2277     2.1338    -2.3974  C.ar    1  <O>11       0.0195
  30 H1        5.0631    -1.4439    -1.8399  H       1  <O>11       0.1494
  31 H2        4.7289     1.3015    -1.1074  H       1  <O>11       0.0512
  32 H3        5.4924     0.4532     0.2588  H       1  <O>11       0.0512
  33 H4        9.1269     2.4582     1.9209  H       1  <O>11       0.0560
  34 H5       10.5731     2.4107     0.8828  H       1  <O>11       0.0560
  35 H6        2.5396     1.6363    -0.2560  H       1  <O>11       0.0622
  36 H7        0.3891     0.7277     0.4081  H       1  <O>11       0.0646
  37 H8        2.0542    -3.1297     0.5320  H       1  <O>11       0.0646
  38 H9        4.2068    -2.2368    -0.1341  H       1  <O>11       0.0622
  39 H10      10.7676    -0.0272    -0.3502  H       1  <O>11       0.0621
  40 H11      11.1120    -2.3511     0.2592  H       1  <O>11       0.0618
  41 H12      10.3922    -3.1628     2.4350  H       1  <O>11       0.0618
  42 H13       9.3313    -1.6360     3.9989  H       1  <O>11       0.0618
  43 H14       8.9907     0.6902     3.4075  H       1  <O>11       0.0621
  44 H15       8.0539     5.3872    -2.1976  H       1  <O>11       0.0625
  45 H16       6.7391     5.4853    -4.2259  H       1  <O>11       0.0618
  46 H17       5.7146     3.4709    -5.1044  H       1  <O>11       0.0618
  47 H18       6.0081     1.3622    -3.9521  H       1  <O>11       0.0624
@<TRIPOS>BOND
     1     1     2    2
     2     2     3   am
     3     3     4    1
     4     4     5    1
     5     5     6   ar
     6     6     7   ar
     7     7     8   ar
     8     8     9    1
     9     8    10   ar
    10    10    11   ar
    11     5    11   ar
    12     2    12    1
    13    12    13   ar
    14    13    14   ar
    15    14    15    1
    16    15    16    1
    17    16    17   ar
    18    17    18   ar
    19    18    19   ar
    20    19    20   ar
    21    20    21   ar
    22    16    21   ar
    23    14    22   ar
    24    22    23    2
    25    22    24   ar
    26    24    25   ar
    27    25    26   ar
    28    26    27   ar
    29    27    28   ar
    30    28    29   ar
    31    12    29   ar
    32    24    29   ar
    33     3    30    1
    34     4    31    1
    35     4    32    1
    36    15    33    1
    37    15    34    1
    38     6    35    1
    39     7    36    1
    40    10    37    1
    41    11    38    1
    42    17    39    1
    43    18    40    1
    44    19    41    1
    45    20    42    1
    46    21    43    1
    47    25    44    1
    48    26    45    1
    49    27    46    1
    50    28    47    1
@<TRIPOS>MOLECULE
mol24_1_5
 47 50 0 0 0
SMALL
USER_CHARGES
****
VDW energy = 26.05
@<TRIPOS>ATOM
   1 O1        7.3129    -1.0371    -2.8426  O.2     1  <O>11      -0.2684
   2 C1        6.7640    -0.2742    -2.0616  C.2     1  <O>11       0.2650
   3 N1        5.5270    -0.5800    -1.5610  N.am    1  <O>11      -0.3059
   4 C2        4.8640    -1.8180    -1.9600  C.3     1  <O>11       0.0372
   5 C3        3.4572    -1.8029    -1.4810  C.ar    1  <O>11      -0.0301
   6 C4        2.8667    -2.9757    -0.9791  C.ar    1  <O>11      -0.0544
   7 C5        1.5382    -2.9631    -0.5403  C.ar    1  <O>11      -0.0261
   8 C6        0.7898    -1.7841    -0.5932  C.ar    1  <O>11       0.1234
   9 F1       -0.5131    -1.7667    -0.1670  F       1  <O>11      -0.2055
  10 C7        1.3808    -0.6155    -1.0862  C.ar    1  <O>11      -0.0261
  11 C8        2.7064    -0.6171    -1.5256  C.ar    1  <O>11      -0.0544
  12 C9        7.4210     0.9530    -1.6660  C.ar    1  <O>11       0.1535
  13 N2        8.2115     0.8700    -0.5687  N.ar    1  <O>11      -0.1626
  14 N3        8.7772     1.9952    -0.0736  N.ar    1  <O>11      -0.2239
  15 C10       9.6148     1.9361     1.0975  C.3     1  <O>11       0.0703
  16 C11       8.9622     2.6730     2.2108  C.ar    1  <O>11      -0.0260
  17 C12       9.7211     3.1238     3.3045  C.ar    1  <O>11      -0.0568
  18 C13       9.1032     3.8066     4.3574  C.ar    1  <O>11      -0.0614
  19 C14       7.7273     4.0485     4.3277  C.ar    1  <O>11      -0.0617
  20 C15       6.9733     3.6054     3.2357  C.ar    1  <O>11      -0.0614
  21 C16       7.5815     2.9256     2.1779  C.ar    1  <O>11      -0.0568
  22 C17       8.5466     3.1761    -0.6940  C.ar    1  <O>11       0.2753
  23 O2        9.0834     4.3202    -0.0739  O.2     1  <O>11      -0.2655
  24 C18       7.8206     3.3018    -1.8874  C.ar    1  <O>11       0.0503
  25 C19       7.6261     4.5249    -2.5697  C.ar    1  <O>11      -0.0487
  26 C20       6.8657     4.5853    -3.7370  C.ar    1  <O>11      -0.0610
  27 C21       6.2783     3.4299    -4.2409  C.ar    1  <O>11      -0.0611
  28 C22       6.4524     2.2147    -3.5766  C.ar    1  <O>11      -0.0516
  29 C23       7.2277     2.1338    -2.3974  C.ar    1  <O>11       0.0195
  30 H1        5.0690     0.0560    -0.9090  H       1  <O>11       0.1494
  31 H2        5.3876    -2.6685    -1.5217  H       1  <O>11       0.0512
  32 H3        4.8776    -1.9039    -3.0462  H       1  <O>11       0.0512
  33 H4       10.5811     2.3905     0.8775  H       1  <O>11       0.0560
  34 H5        9.7602     0.8947     1.3876  H       1  <O>11       0.0560
  35 H6        3.4149    -3.8489    -0.9341  H       1  <O>11       0.0622
  36 H7        1.1092    -3.8281    -0.1761  H       1  <O>11       0.0646
  37 H8        0.8311     0.2571    -1.1256  H       1  <O>11       0.0646
  38 H9        3.1335     0.2520    -1.8826  H       1  <O>11       0.0622
  39 H10      10.7381     2.9504     3.3310  H       1  <O>11       0.0621
  40 H11       9.6654     4.1329     5.1590  H       1  <O>11       0.0618
  41 H12       7.2708     4.5502     5.1054  H       1  <O>11       0.0618
  42 H13       5.9570     3.7827     3.2115  H       1  <O>11       0.0618
  43 H14       7.0171     2.6097     1.3737  H       1  <O>11       0.0621
  44 H15       8.0539     5.3872    -2.1976  H       1  <O>11       0.0625
  45 H16       6.7391     5.4853    -4.2259  H       1  <O>11       0.0618
  46 H17       5.7146     3.4709    -5.1044  H       1  <O>11       0.0618
  47 H18       6.0081     1.3622    -3.9521  H       1  <O>11       0.0624
@<TRIPOS>BOND
     1     1     2    2
     2     2     3   am
     3     3     4    1
     4     4     5    1
     5     5     6   ar
     6     6     7   ar
     7     7     8   ar
     8     8     9    1
     9     8    10   ar
    10    10    11   ar
    11     5    11   ar
    12     2    12    1
    13    12    13   ar
    14    13    14   ar
    15    14    15    1
    16    15    16    1
    17    16    17   ar
    18    17    18   ar
    19    18    19   ar
    20    19    20   ar
    21    20    21   ar
    22    16    21   ar
    23    14    22   ar
    24    22    23    2
    25    22    24   ar
    26    24    25   ar
    27    25    26   ar
    28    26    27   ar
    29    27    28   ar
    30    28    29   ar
    31    12    29   ar
    32    24    29   ar
    33     3    30    1
    34     4    31    1
    35     4    32    1
    36    15    33    1
    37    15    34    1
    38     6    35    1
    39     7    36    1
    40    10    37    1
    41    11    38    1
    42    17    39    1
    43    18    40    1
    44    19    41    1
    45    20    42    1
    46    21    43    1
    47    25    44    1
    48    26    45    1
    49    27    46    1
    50    28    47    1
@<TRIPOS>MOLECULE
mol24_1_6
 47 50 0 0 0
SMALL
USER_CHARGES
****
VDW energy = 35.97
@<TRIPOS>ATOM
   1 O1        7.3129    -1.0371    -2.8426  O.2     1  <O>11      -0.2684
   2 C1        6.7640    -0.2742    -2.0616  C.2     1  <O>11       0.2650
   3 N1        5.5270    -0.5800    -1.5610  N.am    1  <O>11      -0.3059
   4 C2        4.8640    -1.8180    -1.9600  C.3     1  <O>11       0.0372
   5 C3        3.4572    -1.8029    -1.4810  C.ar    1  <O>11      -0.0301
   6 C4        3.1346    -2.3172    -0.2131  C.ar    1  <O>11      -0.0544
   7 C5        1.8080    -2.3140     0.2314  C.ar    1  <O>11      -0.0261
   8 C6        0.7945    -1.7955    -0.5791  C.ar    1  <O>11       0.1234
   9 F1       -0.5075    -1.7922    -0.1495  F       1  <O>11      -0.2055
  10 C7        1.1177    -1.2771    -1.8380  C.ar    1  <O>11      -0.0261
  11 C8        2.4388    -1.2746    -2.2907  C.ar    1  <O>11      -0.0544
  12 C9        7.4210     0.9530    -1.6660  C.ar    1  <O>11       0.1535
  13 N2        8.0873     1.6067    -2.6480  N.ar    1  <O>11      -0.1626
  14 N3        8.8141     2.7052    -2.3372  N.ar    1  <O>11      -0.2239
  15 C10       9.5394     3.4137    -3.3611  C.3     1  <O>11       0.0703
  16 C11      10.9986     3.2966    -3.1055  C.ar    1  <O>11      -0.0260
  17 C12      11.8958     4.2118    -3.6823  C.ar    1  <O>11      -0.0568
  18 C13      13.2701     4.0927    -3.4504  C.ar    1  <O>11      -0.0614
  19 C14      13.7606     3.0649    -2.6408  C.ar    1  <O>11      -0.0617
  20 C15      12.8665     2.1580    -2.0615  C.ar    1  <O>11      -0.0614
  21 C16      11.4923     2.2704    -2.2842  C.ar    1  <O>11      -0.0568
  22 C17       8.8491     3.1296    -1.0522  C.ar    1  <O>11       0.2753
  23 O2        9.6995     4.2177    -0.7791  O.2     1  <O>11      -0.2655
  24 C18       8.0992     2.5502    -0.0184  C.ar    1  <O>11       0.0503
  25 C19       8.0882     3.0258     1.3132  C.ar    1  <O>11      -0.0487
  26 C20       7.3434     2.3830     2.3014  C.ar    1  <O>11      -0.0610
  27 C21       6.6030     1.2498     1.9828  C.ar    1  <O>11      -0.0611
  28 C22       6.6080     0.7607     0.6755  C.ar    1  <O>11      -0.0516
  29 C23       7.3498     1.4054    -0.3405  C.ar    1  <O>11       0.0195
  30 H1        5.0690     0.0560    -0.9090  H       1  <O>11       0.1494
  31 H2        5.3876    -2.6685    -1.5217  H       1  <O>11       0.0512
  32 H3        4.8776    -1.9039    -3.0462  H       1  <O>11       0.0512
  33 H4        9.2513     4.4652    -3.3501  H       1  <O>11       0.0560
  34 H5        9.3059     2.9828    -4.3356  H       1  <O>11       0.0560
  35 H6        3.8787    -2.6984     0.3918  H       1  <O>11       0.0622
  36 H7        1.5769    -2.6961     1.1617  H       1  <O>11       0.0646
  37 H8        0.3717    -0.8925    -2.4385  H       1  <O>11       0.0646
  38 H9        2.6663    -0.8851    -3.2189  H       1  <O>11       0.0622
  39 H10      11.5394     4.9745    -4.2791  H       1  <O>11       0.0621
  40 H11      13.9242     4.7663    -3.8788  H       1  <O>11       0.0618
  41 H12      14.7746     2.9754    -2.4715  H       1  <O>11       0.0618
  42 H13      13.2263     1.3980    -1.4633  H       1  <O>11       0.0618
  43 H14      10.8410     1.6004    -1.8460  H       1  <O>11       0.0621
  44 H15       8.6406     3.8625     1.5578  H       1  <O>11       0.0625
  45 H16       7.3416     2.7473     3.2669  H       1  <O>11       0.0618
  46 H17       6.0509     0.7713     2.7117  H       1  <O>11       0.0618
  47 H18       6.0618    -0.0847     0.4472  H       1  <O>11       0.0624
@<TRIPOS>BOND
     1     1     2    2
     2     2     3   am
     3     3     4    1
     4     4     5    1
     5     5     6   ar
     6     6     7   ar
     7     7     8   ar
     8     8     9    1
     9     8    10   ar
    10    10    11   ar
    11     5    11   ar
    12     2    12    1
    13    12    13   ar
    14    13    14   ar
    15    14    15    1
    16    15    16    1
    17    16    17   ar
    18    17    18   ar
    19    18    19   ar
    20    19    20   ar
    21    20    21   ar
    22    16    21   ar
    23    14    22   ar
    24    22    23    2
    25    22    24   ar
    26    24    25   ar
    27    25    26   ar
    28    26    27   ar
    29    27    28   ar
    30    28    29   ar
    31    12    29   ar
    32    24    29   ar
    33     3    30    1
    34     4    31    1
    35     4    32    1
    36    15    33    1
    37    15    34    1
    38     6    35    1
    39     7    36    1
    40    10    37    1
    41    11    38    1
    42    17    39    1
    43    18    40    1
    44    19    41    1
    45    20    42    1
    46    21    43    1
    47    25    44    1
    48    26    45    1
    49    27    46    1
    50    28    47    1
@<TRIPOS>MOLECULE
mol24_1_7
 47 50 0 0 0
SMALL
USER_CHARGES
****
VDW energy = 36.84
@<TRIPOS>ATOM
   1 O1        7.3129    -1.0371    -2.8426  O.2     1  <O>11      -0.2684
   2 C1        6.7640    -0.2742    -2.0616  C.2     1  <O>11       0.2650
   3 N1        5.5270    -0.5800    -1.5610  N.am    1  <O>11      -0.3059
   4 C2        4.8640    -1.8180    -1.9600  C.3     1  <O>11       0.0372
   5 C3        5.7064    -2.9786    -1.5702  C.ar    1  <O>11      -0.0301
   6 C4        5.8182    -4.0912    -2.4222  C.ar    1  <O>11      -0.0544
   7 C5        6.6014    -5.1886    -2.0482  C.ar    1  <O>11      -0.0261
   8 C6        7.2821    -5.1854    -0.8278  C.ar    1  <O>11       0.1234
   9 F1        8.0489    -6.2591    -0.4553  F       1  <O>11      -0.2055
  10 C7        7.1760    -4.0744     0.0163  C.ar    1  <O>11      -0.0261
  11 C8        6.3977    -2.9735    -0.3480  C.ar    1  <O>11      -0.0544
  12 C9        7.4210     0.9530    -1.6660  C.ar    1  <O>11       0.1535
  13 N2        6.8899     1.5848    -0.5915  N.ar    1  <O>11      -0.1626
  14 N3        7.3813     2.7907    -0.2228  N.ar    1  <O>11      -0.2239
  15 C10       6.8285     3.4880     0.9105  C.3     1  <O>11       0.0703
  16 C11       5.8525     2.6086     1.6052  C.ar    1  <O>11      -0.0260
  17 C12       6.2763     1.7547     2.6379  C.ar    1  <O>11      -0.0568
  18 C13       5.3584     0.9188     3.2824  C.ar    1  <O>11      -0.0614
  19 C14       4.0127     0.9292     2.9064  C.ar    1  <O>11      -0.0617
  20 C15       3.5901     1.7841     1.8828  C.ar    1  <O>11      -0.0614
  21 C16       4.4982     2.6250     1.2354  C.ar    1  <O>11      -0.0568
  22 C17       8.3994     3.3317    -0.9323  C.ar    1  <O>11       0.2753
  23 O2        8.7986     4.6287    -0.5578  O.2     1  <O>11      -0.2655
  24 C18       9.0500     2.6760    -1.9877  C.ar    1  <O>11       0.0503
  25 C19      10.1510     3.2131    -2.6937  C.ar    1  <O>11      -0.0487
  26 C20      10.7325     2.5211    -3.7556  C.ar    1  <O>11      -0.0610
  27 C21      10.2221     1.2856    -4.1387  C.ar    1  <O>11      -0.0611
  28 C22       9.1304     0.7430    -3.4589  C.ar    1  <O>11      -0.0516
  29 C23       8.5348     1.4266    -2.3743  C.ar    1  <O>11       0.0195
  30 H1        5.0690     0.0560    -0.9090  H       1  <O>11       0.1494
  31 H2        4.7196    -1.8211    -3.0411  H       1  <O>11       0.0512
  32 H3        3.8961    -1.8882    -1.4643  H       1  <O>11       0.0512
  33 H4        6.3249     4.3934     0.5709  H       1  <O>11       0.0560
  34 H5        7.6310     3.7548     1.5994  H       1  <O>11       0.0560
  35 H6        5.3209    -4.0986    -3.3264  H       1  <O>11       0.0622
  36 H7        6.6768    -6.0039    -2.6764  H       1  <O>11       0.0646
  37 H8        7.6783    -4.0685     0.9178  H       1  <O>11       0.0646
  38 H9        6.3309    -2.1574     0.2802  H       1  <O>11       0.0622
  39 H10       7.2684     1.7444     2.9218  H       1  <O>11       0.0621
  40 H11       5.6763     0.2921     4.0383  H       1  <O>11       0.0618
  41 H12       3.3358     0.3109     3.3801  H       1  <O>11       0.0618
  42 H13       2.5968     1.7935     1.6031  H       1  <O>11       0.0618
  43 H14       4.1743     3.2571     0.4866  H       1  <O>11       0.0621
  44 H15      10.5305     4.1326    -2.4187  H       1  <O>11       0.0625
  45 H16      11.5397     2.9249    -4.2559  H       1  <O>11       0.0618
  46 H17      10.6497     0.7708    -4.9243  H       1  <O>11       0.0618
  47 H18       8.7522    -0.1712    -3.7526  H       1  <O>11       0.0624
@<TRIPOS>BOND
     1     1     2    2
     2     2     3   am
     3     3     4    1
     4     4     5    1
     5     5     6   ar
     6     6     7   ar
     7     7     8   ar
     8     8     9    1
     9     8    10   ar
    10    10    11   ar
    11     5    11   ar
    12     2    12    1
    13    12    13   ar
    14    13    14   ar
    15    14    15    1
    16    15    16    1
    17    16    17   ar
    18    17    18   ar
    19    18    19   ar
    20    19    20   ar
    21    20    21   ar
    22    16    21   ar
    23    14    22   ar
    24    22    23    2
    25    22    24   ar
    26    24    25   ar
    27    25    26   ar
    28    26    27   ar
    29    27    28   ar
    30    28    29   ar
    31    12    29   ar
    32    24    29   ar
    33     3    30    1
    34     4    31    1
    35     4    32    1
    36    15    33    1
    37    15    34    1
    38     6    35    1
    39     7    36    1
    40    10    37    1
    41    11    38    1
    42    17    39    1
    43    18    40    1
    44    19    41    1
    45    20    42    1
    46    21    43    1
    47    25    44    1
    48    26    45    1
    49    27    46    1
    50    28    47    1
@<TRIPOS>MOLECULE
mol24_1_8
 47 50 0 0 0
SMALL
USER_CHARGES
****
VDW energy = 36.86
@<TRIPOS>ATOM
   1 O1        7.3129    -1.0371    -2.8426  O.2     1  <O>11      -0.2684
   2 C1        6.7640    -0.2742    -2.0616  C.2     1  <O>11       0.2650
   3 N1        5.5270    -0.5800    -1.5610  N.am    1  <O>11      -0.3059
   4 C2        4.8640    -1.8180    -1.9600  C.3     1  <O>11       0.0372
   5 C3        5.7064    -2.9786    -1.5702  C.ar    1  <O>11      -0.0301
   6 C4        5.8182    -4.0912    -2.4222  C.ar    1  <O>11      -0.0544
   7 C5        6.6014    -5.1886    -2.0482  C.ar    1  <O>11      -0.0261
   8 C6        7.2821    -5.1854    -0.8278  C.ar    1  <O>11       0.1234
   9 F1        8.0489    -6.2591    -0.4553  F       1  <O>11      -0.2055
  10 C7        7.1760    -4.0744     0.0163  C.ar    1  <O>11      -0.0261
  11 C8        6.3977    -2.9735    -0.3480  C.ar    1  <O>11      -0.0544
  12 C9        7.4210     0.9530    -1.6660  C.ar    1  <O>11       0.1535
  13 N2        6.8899     1.5848    -0.5915  N.ar    1  <O>11      -0.1626
  14 N3        7.3813     2.7907    -0.2228  N.ar    1  <O>11      -0.2239
  15 C10       6.8285     3.4880     0.9105  C.3     1  <O>11       0.0703
  16 C11       5.8525     2.6086     1.6052  C.ar    1  <O>11      -0.0260
  17 C12       4.4965     2.6226     1.2359  C.ar    1  <O>11      -0.0568
  18 C13       3.5771     1.8031     1.8991  C.ar    1  <O>11      -0.0614
  19 C14       4.0008     0.9620     2.9313  C.ar    1  <O>11      -0.0617
  20 C15       5.3519     0.9436     3.2941  C.ar    1  <O>11      -0.0614
  21 C16       6.2783     1.7556     2.6359  C.ar    1  <O>11      -0.0568
  22 C17       8.3994     3.3317    -0.9323  C.ar    1  <O>11       0.2753
  23 O2        8.7986     4.6287    -0.5578  O.2     1  <O>11      -0.2655
  24 C18       9.0500     2.6760    -1.9877  C.ar    1  <O>11       0.0503
  25 C19      10.1510     3.2131    -2.6937  C.ar    1  <O>11      -0.0487
  26 C20      10.7325     2.5211    -3.7556  C.ar    1  <O>11      -0.0610
  27 C21      10.2221     1.2856    -4.1387  C.ar    1  <O>11      -0.0611
  28 C22       9.1304     0.7430    -3.4589  C.ar    1  <O>11      -0.0516
  29 C23       8.5348     1.4266    -2.3743  C.ar    1  <O>11       0.0195
  30 H1        5.0690     0.0560    -0.9090  H       1  <O>11       0.1494
  31 H2        4.7196    -1.8211    -3.0411  H       1  <O>11       0.0512
  32 H3        3.8961    -1.8882    -1.4643  H       1  <O>11       0.0512
  33 H4        6.3249     4.3934     0.5709  H       1  <O>11       0.0560
  34 H5        7.6310     3.7548     1.5994  H       1  <O>11       0.0560
  35 H6        5.3209    -4.0986    -3.3264  H       1  <O>11       0.0622
  36 H7        6.6768    -6.0039    -2.6764  H       1  <O>11       0.0646
  37 H8        7.6783    -4.0685     0.9178  H       1  <O>11       0.0646
  38 H9        6.3309    -2.1574     0.2802  H       1  <O>11       0.0622
  39 H10       4.1779     3.2398     0.4726  H       1  <O>11       0.0621
  40 H11       2.5822     1.8197     1.6250  H       1  <O>11       0.0618
  41 H12       3.3224     0.3591     3.4222  H       1  <O>11       0.0618
  42 H13       5.6673     0.3234     4.0562  H       1  <O>11       0.0618
  43 H14       7.2738     1.7287     2.9066  H       1  <O>11       0.0621
  44 H15      10.5305     4.1326    -2.4187  H       1  <O>11       0.0625
  45 H16      11.5397     2.9249    -4.2559  H       1  <O>11       0.0618
  46 H17      10.6497     0.7708    -4.9243  H       1  <O>11       0.0618
  47 H18       8.7522    -0.1712    -3.7526  H       1  <O>11       0.0624
@<TRIPOS>BOND
     1     1     2    2
     2     2     3   am
     3     3     4    1
     4     4     5    1
     5     5     6   ar
     6     6     7   ar
     7     7     8   ar
     8     8     9    1
     9     8    10   ar
    10    10    11   ar
    11     5    11   ar
    12     2    12    1
    13    12    13   ar
    14    13    14   ar
    15    14    15    1
    16    15    16    1
    17    16    17   ar
    18    17    18   ar
    19    18    19   ar
    20    19    20   ar
    21    20    21   ar
    22    16    21   ar
    23    14    22   ar
    24    22    23    2
    25    22    24   ar
    26    24    25   ar
    27    25    26   ar
    28    26    27   ar
    29    27    28   ar
    30    28    29   ar
    31    12    29   ar
    32    24    29   ar
    33     3    30    1
    34     4    31    1
    35     4    32    1
    36    15    33    1
    37    15    34    1
    38     6    35    1
    39     7    36    1
    40    10    37    1
    41    11    38    1
    42    17    39    1
    43    18    40    1
    44    19    41    1
    45    20    42    1
    46    21    43    1
    47    25    44    1
    48    26    45    1
    49    27    46    1
    50    28    47    1
@<TRIPOS>MOLECULE
mol24_1_9
 47 50 0 0 0
SMALL
USER_CHARGES
****
VDW energy = 37.00
@<TRIPOS>ATOM
   1 O1        7.3129    -1.0371    -2.8426  O.2     1  <O>11      -0.2684
   2 C1        6.7640    -0.2742    -2.0616  C.2     1  <O>11       0.2650
   3 N1        5.5270    -0.5800    -1.5610  N.am    1  <O>11      -0.3059
   4 C2        4.8640    -1.8180    -1.9600  C.3     1  <O>11       0.0372
   5 C3        5.7064    -2.9786    -1.5702  C.ar    1  <O>11      -0.0301
   6 C4        5.8182    -4.0912    -2.4222  C.ar    1  <O>11      -0.0544
   7 C5        6.6014    -5.1886    -2.0482  C.ar    1  <O>11      -0.0261
   8 C6        7.2821    -5.1854    -0.8278  C.ar    1  <O>11       0.1234
   9 F1        8.0489    -6.2591    -0.4553  F       1  <O>11      -0.2055
  10 C7        7.1760    -4.0744     0.0163  C.ar    1  <O>11      -0.0261
  11 C8        6.3977    -2.9735    -0.3480  C.ar    1  <O>11      -0.0544
  12 C9        7.4210     0.9530    -1.6660  C.ar    1  <O>11       0.1535
  13 N2        6.8899     1.5848    -0.5915  N.ar    1  <O>11      -0.1626
  14 N3        7.3813     2.7907    -0.2228  N.ar    1  <O>11      -0.2239
  15 C10       6.8285     3.4880     0.9105  C.3     1  <O>11       0.0703
  16 C11       7.8523     3.5785     1.9838  C.ar    1  <O>11      -0.0260
  17 C12       8.3997     2.4109     2.5428  C.ar    1  <O>11      -0.0568
  18 C13       9.3544     2.4979     3.5614  C.ar    1  <O>11      -0.0614
  19 C14       9.7733     3.7464     4.0283  C.ar    1  <O>11      -0.0617
  20 C15       9.2330     4.9085     3.4671  C.ar    1  <O>11      -0.0614
  21 C16       8.2817     4.8323     2.4473  C.ar    1  <O>11      -0.0568
  22 C17       8.3994     3.3317    -0.9323  C.ar    1  <O>11       0.2753
  23 O2        8.7986     4.6287    -0.5578  O.2     1  <O>11      -0.2655
  24 C18       9.0500     2.6760    -1.9877  C.ar    1  <O>11       0.0503
  25 C19      10.1510     3.2131    -2.6937  C.ar    1  <O>11      -0.0487
  26 C20      10.7325     2.5211    -3.7556  C.ar    1  <O>11      -0.0610
  27 C21      10.2221     1.2856    -4.1387  C.ar    1  <O>11      -0.0611
  28 C22       9.1304     0.7430    -3.4589  C.ar    1  <O>11      -0.0516
  29 C23       8.5348     1.4266    -2.3743  C.ar    1  <O>11       0.0195
  30 H1        5.0690     0.0560    -0.9090  H       1  <O>11       0.1494
  31 H2        4.7196    -1.8211    -3.0411  H       1  <O>11       0.0512
  32 H3        3.8961    -1.8882    -1.4643  H       1  <O>11       0.0512
  33 H4        5.9584     2.9464     1.2824  H       1  <O>11       0.0560
  34 H5        6.5297     4.4926     0.6083  H       1  <O>11       0.0560
  35 H6        5.3209    -4.0986    -3.3264  H       1  <O>11       0.0622
  36 H7        6.6768    -6.0039    -2.6764  H       1  <O>11       0.0646
  37 H8        7.6783    -4.0685     0.9178  H       1  <O>11       0.0646
  38 H9        6.3309    -2.1574     0.2802  H       1  <O>11       0.0622
  39 H10       8.0962     1.4859     2.2004  H       1  <O>11       0.0621
  40 H11       9.7507     1.6368     3.9696  H       1  <O>11       0.0618
  41 H12      10.4759     3.8109     4.7815  H       1  <O>11       0.0618
  42 H13       9.5406     5.8318     3.8103  H       1  <O>11       0.0618
  43 H14       7.8951     5.6960     2.0353  H       1  <O>11       0.0621
  44 H15      10.5305     4.1326    -2.4187  H       1  <O>11       0.0625
  45 H16      11.5397     2.9249    -4.2559  H       1  <O>11       0.0618
  46 H17      10.6497     0.7708    -4.9243  H       1  <O>11       0.0618
  47 H18       8.7522    -0.1712    -3.7526  H       1  <O>11       0.0624
@<TRIPOS>BOND
     1     1     2    2
     2     2     3   am
     3     3     4    1
     4     4     5    1
     5     5     6   ar
     6     6     7   ar
     7     7     8   ar
     8     8     9    1
     9     8    10   ar
    10    10    11   ar
    11     5    11   ar
    12     2    12    1
    13    12    13   ar
    14    13    14   ar
    15    14    15    1
    16    15    16    1
    17    16    17   ar
    18    17    18   ar
    19    18    19   ar
    20    19    20   ar
    21    20    21   ar
    22    16    21   ar
    23    14    22   ar
    24    22    23    2
    25    22    24   ar
    26    24    25   ar
    27    25    26   ar
    28    26    27   ar
    29    27    28   ar
    30    28    29   ar
    31    12    29   ar
    32    24    29   ar
    33     3    30    1
    34     4    31    1
    35     4    32    1
    36    15    33    1
    37    15    34    1
    38     6    35    1
    39     7    36    1
    40    10    37    1
    41    11    38    1
    42    17    39    1
    43    18    40    1
    44    19    41    1
    45    20    42    1
    46    21    43    1
    47    25    44    1
    48    26    45    1
    49    27    46    1
    50    28    47    1
@<TRIPOS>MOLECULE
mol24_1_10
 47 50 0 0 0
SMALL
USER_CHARGES
****
VDW energy = 37.28
@<TRIPOS>ATOM
   1 O1        7.3129    -1.0371    -2.8426  O.2     1  <O>11      -0.2684
   2 C1        6.7640    -0.2742    -2.0616  C.2     1  <O>11       0.2650
   3 N1        5.5270    -0.5800    -1.5610  N.am    1  <O>11      -0.3059
   4 C2        4.8640    -1.8180    -1.9600  C.3     1  <O>11       0.0372
   5 C3        3.5446    -1.9135    -1.2828  C.ar    1  <O>11      -0.0301
   6 C4        3.0843    -3.1504    -0.7985  C.ar    1  <O>11      -0.0544
   7 C5        1.8363    -3.2413    -0.1725  C.ar    1  <O>11      -0.0261
   8 C6        1.0402    -2.1031    -0.0196  C.ar    1  <O>11       0.1234
   9 F1       -0.1846    -2.1869     0.5908  F       1  <O>11      -0.2055
  10 C7        1.5024    -0.8710    -0.4954  C.ar    1  <O>11      -0.0261
  11 C8        2.7470    -0.7693    -1.1208  C.ar    1  <O>11      -0.0544
  12 C9        7.4210     0.9530    -1.6660  C.ar    1  <O>11       0.1535
  13 N2        6.8899     1.5848    -0.5915  N.ar    1  <O>11      -0.1626
  14 N3        7.3813     2.7907    -0.2228  N.ar    1  <O>11      -0.2239
  15 C10       6.8285     3.4880     0.9105  C.3     1  <O>11       0.0703
  16 C11       5.8525     2.6086     1.6052  C.ar    1  <O>11      -0.0260
  17 C12       4.4965     2.6226     1.2359  C.ar    1  <O>11      -0.0568
  18 C13       3.5771     1.8031     1.8991  C.ar    1  <O>11      -0.0614
  19 C14       4.0008     0.9620     2.9313  C.ar    1  <O>11      -0.0617
  20 C15       5.3519     0.9436     3.2941  C.ar    1  <O>11      -0.0614
  21 C16       6.2783     1.7556     2.6359  C.ar    1  <O>11      -0.0568
  22 C17       8.3994     3.3317    -0.9323  C.ar    1  <O>11       0.2753
  23 O2        8.7986     4.6287    -0.5578  O.2     1  <O>11      -0.2655
  24 C18       9.0500     2.6760    -1.9877  C.ar    1  <O>11       0.0503
  25 C19      10.1510     3.2131    -2.6937  C.ar    1  <O>11      -0.0487
  26 C20      10.7325     2.5211    -3.7556  C.ar    1  <O>11      -0.0610
  27 C21      10.2221     1.2856    -4.1387  C.ar    1  <O>11      -0.0611
  28 C22       9.1304     0.7430    -3.4589  C.ar    1  <O>11      -0.0516
  29 C23       8.5348     1.4266    -2.3743  C.ar    1  <O>11       0.0195
  30 H1        5.0690     0.0560    -0.9090  H       1  <O>11       0.1494
  31 H2        5.4817    -2.6700    -1.6734  H       1  <O>11       0.0512
  32 H3        4.7196    -1.8213    -3.0401  H       1  <O>11       0.0512
  33 H4        6.3249     4.3934     0.5709  H       1  <O>11       0.0560
  34 H5        7.6310     3.7548     1.5994  H       1  <O>11       0.0560
  35 H6        3.6688    -3.9942    -0.9052  H       1  <O>11       0.0622
  36 H7        1.5024    -4.1527     0.1778  H       1  <O>11       0.0646
  37 H8        0.9172    -0.0284    -0.3830  H       1  <O>11       0.0646
  38 H9        3.0799     0.1455    -1.4633  H       1  <O>11       0.0622
  39 H10       4.1779     3.2398     0.4726  H       1  <O>11       0.0621
  40 H11       2.5822     1.8197     1.6250  H       1  <O>11       0.0618
  41 H12       3.3224     0.3591     3.4222  H       1  <O>11       0.0618
  42 H13       5.6673     0.3234     4.0562  H       1  <O>11       0.0618
  43 H14       7.2738     1.7287     2.9066  H       1  <O>11       0.0621
  44 H15      10.5305     4.1326    -2.4187  H       1  <O>11       0.0625
  45 H16      11.5397     2.9249    -4.2559  H       1  <O>11       0.0618
  46 H17      10.6497     0.7708    -4.9243  H       1  <O>11       0.0618
  47 H18       8.7522    -0.1712    -3.7526  H       1  <O>11       0.0624
@<TRIPOS>BOND
     1     1     2    2
     2     2     3   am
     3     3     4    1
     4     4     5    1
     5     5     6   ar
     6     6     7   ar
     7     7     8   ar
     8     8     9    1
     9     8    10   ar
    10    10    11   ar
    11     5    11   ar
    12     2    12    1
    13    12    13   ar
    14    13    14   ar
    15    14    15    1
    16    15    16    1
    17    16    17   ar
    18    17    18   ar
    19    18    19   ar
    20    19    20   ar
    21    20    21   ar
    22    16    21   ar
    23    14    22   ar
    24    22    23    2
    25    22    24   ar
    26    24    25   ar
    27    25    26   ar
    28    26    27   ar
    29    27    28   ar
    30    28    29   ar
    31    12    29   ar
    32    24    29   ar
    33     3    30    1
    34     4    31    1
    35     4    32    1
    36    15    33    1
    37    15    34    1
    38     6    35    1
    39     7    36    1
    40    10    37    1
    41    11    38    1
    42    17    39    1
    43    18    40    1
    44    19    41    1
    45    20    42    1
    46    21    43    1
    47    25    44    1
    48    26    45    1
    49    27    46    1
    50    28    47    1
@<TRIPOS>MOLECULE
mol24_1_11
 47 50 0 0 0
SMALL
USER_CHARGES
****
VDW energy = 37.32
@<TRIPOS>ATOM
   1 O1        7.3129    -1.0371    -2.8426  O.2     1  <O>11      -0.2684
   2 C1        6.7640    -0.2742    -2.0616  C.2     1  <O>11       0.2650
   3 N1        5.5270    -0.5800    -1.5610  N.am    1  <O>11      -0.3059
   4 C2        4.8640    -1.8180    -1.9600  C.3     1  <O>11       0.0372
   5 C3        3.5446    -1.9135    -1.2828  C.ar    1  <O>11      -0.0301
   6 C4        3.0843    -3.1504    -0.7985  C.ar    1  <O>11      -0.0544
   7 C5        1.8363    -3.2413    -0.1725  C.ar    1  <O>11      -0.0261
   8 C6        1.0402    -2.1031    -0.0196  C.ar    1  <O>11       0.1234
   9 F1       -0.1846    -2.1869     0.5908  F       1  <O>11      -0.2055
  10 C7        1.5024    -0.8710    -0.4954  C.ar    1  <O>11      -0.0261
  11 C8        2.7470    -0.7693    -1.1208  C.ar    1  <O>11      -0.0544
  12 C9        7.4210     0.9530    -1.6660  C.ar    1  <O>11       0.1535
  13 N2        8.0873     1.6067    -2.6480  N.ar    1  <O>11      -0.1626
  14 N3        8.8141     2.7052    -2.3372  N.ar    1  <O>11      -0.2239
  15 C10       9.5394     3.4137    -3.3611  C.3     1  <O>11       0.0703
  16 C11       9.1970     2.8480    -4.6920  C.ar    1  <O>11      -0.0260
  17 C12       7.8683     2.8646    -5.1497  C.ar    1  <O>11      -0.0568
  18 C13       7.5460     2.3207    -6.3975  C.ar    1  <O>11      -0.0614
  19 C14       8.5434     1.7600    -7.1994  C.ar    1  <O>11      -0.0617
  20 C15       9.8670     1.7496    -6.7463  C.ar    1  <O>11      -0.0614
  21 C16      10.1995     2.2932    -5.5034  C.ar    1  <O>11      -0.0568
  22 C17       8.8491     3.1296    -1.0522  C.ar    1  <O>11       0.2753
  23 O2        9.6995     4.2177    -0.7791  O.2     1  <O>11      -0.2655
  24 C18       8.0992     2.5502    -0.0184  C.ar    1  <O>11       0.0503
  25 C19       8.0882     3.0258     1.3132  C.ar    1  <O>11      -0.0487
  26 C20       7.3434     2.3830     2.3014  C.ar    1  <O>11      -0.0610
  27 C21       6.6030     1.2498     1.9828  C.ar    1  <O>11      -0.0611
  28 C22       6.6080     0.7607     0.6755  C.ar    1  <O>11      -0.0516
  29 C23       7.3498     1.4054    -0.3405  C.ar    1  <O>11       0.0195
  30 H1        5.0690     0.0560    -0.9090  H       1  <O>11       0.1494
  31 H2        5.4817    -2.6700    -1.6734  H       1  <O>11       0.0512
  32 H3        4.7196    -1.8213    -3.0401  H       1  <O>11       0.0512
  33 H4       10.6105     3.3103    -3.1864  H       1  <O>11       0.0560
  34 H5        9.2668     4.4695    -3.3345  H       1  <O>11       0.0560
  35 H6        3.6688    -3.9942    -0.9052  H       1  <O>11       0.0622
  36 H7        1.5024    -4.1527     0.1778  H       1  <O>11       0.0646
  37 H8        0.9172    -0.0284    -0.3830  H       1  <O>11       0.0646
  38 H9        3.0799     0.1455    -1.4633  H       1  <O>11       0.0622
  39 H10       7.1276     3.2796    -4.5630  H       1  <O>11       0.0621
  40 H11       6.5680     2.3336    -6.7269  H       1  <O>11       0.0618
  41 H12       8.3055     1.3566    -8.1190  H       1  <O>11       0.0618
  42 H13      10.6054     1.3360    -7.3366  H       1  <O>11       0.0618
  43 H14      11.1802     2.2869    -5.1820  H       1  <O>11       0.0621
  44 H15       8.6406     3.8625     1.5578  H       1  <O>11       0.0625
  45 H16       7.3416     2.7473     3.2669  H       1  <O>11       0.0618
  46 H17       6.0509     0.7713     2.7117  H       1  <O>11       0.0618
  47 H18       6.0618    -0.0847     0.4472  H       1  <O>11       0.0624
@<TRIPOS>BOND
     1     1     2    2
     2     2     3   am
     3     3     4    1
     4     4     5    1
     5     5     6   ar
     6     6     7   ar
     7     7     8   ar
     8     8     9    1
     9     8    10   ar
    10    10    11   ar
    11     5    11   ar
    12     2    12    1
    13    12    13   ar
    14    13    14   ar
    15    14    15    1
    16    15    16    1
    17    16    17   ar
    18    17    18   ar
    19    18    19   ar
    20    19    20   ar
    21    20    21   ar
    22    16    21   ar
    23    14    22   ar
    24    22    23    2
    25    22    24   ar
    26    24    25   ar
    27    25    26   ar
    28    26    27   ar
    29    27    28   ar
    30    28    29   ar
    31    12    29   ar
    32    24    29   ar
    33     3    30    1
    34     4    31    1
    35     4    32    1
    36    15    33    1
    37    15    34    1
    38     6    35    1
    39     7    36    1
    40    10    37    1
    41    11    38    1
    42    17    39    1
    43    18    40    1
    44    19    41    1
    45    20    42    1
    46    21    43    1
    47    25    44    1
    48    26    45    1
    49    27    46    1
    50    28    47    1
@<TRIPOS>MOLECULE
mol24_1_12
 47 50 0 0 0
SMALL
USER_CHARGES
****
VDW energy = 37.61
@<TRIPOS>ATOM
   1 O1        7.3129    -1.0371    -2.8426  O.2     1  <O>11      -0.2684
   2 C1        6.7640    -0.2742    -2.0616  C.2     1  <O>11       0.2650
   3 N1        5.5270    -0.5800    -1.5610  N.am    1  <O>11      -0.3059
   4 C2        4.8640    -1.8180    -1.9600  C.3     1  <O>11       0.0372
   5 C3        3.5446    -1.9135    -1.2828  C.ar    1  <O>11      -0.0301
   6 C4        3.4677    -1.9283     0.1208  C.ar    1  <O>11      -0.0544
   7 C5        2.2259    -2.0311     0.7571  C.ar    1  <O>11      -0.0261
   8 C6        1.0525    -2.1152     0.0028  C.ar    1  <O>11       0.1234
   9 F1       -0.1668    -2.2187     0.6210  F       1  <O>11      -0.2055
  10 C7        1.1295    -2.0931    -1.3943  C.ar    1  <O>11      -0.0261
  11 C8        2.3639    -1.9896    -2.0391  C.ar    1  <O>11      -0.0544
  12 C9        7.4210     0.9530    -1.6660  C.ar    1  <O>11       0.1535
  13 N2        6.8899     1.5848    -0.5915  N.ar    1  <O>11      -0.1626
  14 N3        7.3813     2.7907    -0.2228  N.ar    1  <O>11      -0.2239
  15 C10       6.8285     3.4880     0.9105  C.3     1  <O>11       0.0703
  16 C11       5.8525     2.6086     1.6052  C.ar    1  <O>11      -0.0260
  17 C12       6.2631     1.3747     2.1382  C.ar    1  <O>11      -0.0568
  18 C13       5.3404     0.5427     2.7810  C.ar    1  <O>11      -0.0614
  19 C14       4.0044     0.9341     2.9009  C.ar    1  <O>11      -0.0617
  20 C15       3.5975     2.1654     2.3760  C.ar    1  <O>11      -0.0614
  21 C16       4.5118     3.0047     1.7353  C.ar    1  <O>11      -0.0568
  22 C17       8.3994     3.3317    -0.9323  C.ar    1  <O>11       0.2753
  23 O2        8.7986     4.6287    -0.5578  O.2     1  <O>11      -0.2655
  24 C18       9.0500     2.6760    -1.9877  C.ar    1  <O>11       0.0503
  25 C19      10.1510     3.2131    -2.6937  C.ar    1  <O>11      -0.0487
  26 C20      10.7325     2.5211    -3.7556  C.ar    1  <O>11      -0.0610
  27 C21      10.2221     1.2856    -4.1387  C.ar    1  <O>11      -0.0611
  28 C22       9.1304     0.7430    -3.4589  C.ar    1  <O>11      -0.0516
  29 C23       8.5348     1.4266    -2.3743  C.ar    1  <O>11       0.0195
  30 H1        5.0690     0.0560    -0.9090  H       1  <O>11       0.1494
  31 H2        5.4817    -2.6700    -1.6734  H       1  <O>11       0.0512
  32 H3        4.7196    -1.8213    -3.0401  H       1  <O>11       0.0512
  33 H4        6.3249     4.3934     0.5709  H       1  <O>11       0.0560
  34 H5        7.6310     3.7548     1.5994  H       1  <O>11       0.0560
  35 H6        4.3301    -1.8630     0.6838  H       1  <O>11       0.0622
  36 H7        2.1761    -2.0449     1.7877  H       1  <O>11       0.0646
  37 H8        0.2647    -2.1539    -1.9541  H       1  <O>11       0.0646
  38 H9        2.4083    -1.9692    -3.0700  H       1  <O>11       0.0622
  39 H10       7.2490     1.0813     2.0550  H       1  <O>11       0.0621
  40 H11       5.6475    -0.3633     3.1681  H       1  <O>11       0.0618
  41 H12       3.3230     0.3194     3.3730  H       1  <O>11       0.0618
  42 H13       2.6114     2.4567     2.4631  H       1  <O>11       0.0618
  43 H14       4.2025     3.9142     1.3582  H       1  <O>11       0.0621
  44 H15      10.5305     4.1326    -2.4187  H       1  <O>11       0.0625
  45 H16      11.5397     2.9249    -4.2559  H       1  <O>11       0.0618
  46 H17      10.6497     0.7708    -4.9243  H       1  <O>11       0.0618
  47 H18       8.7522    -0.1712    -3.7526  H       1  <O>11       0.0624
@<TRIPOS>BOND
     1     1     2    2
     2     2     3   am
     3     3     4    1
     4     4     5    1
     5     5     6   ar
     6     6     7   ar
     7     7     8   ar
     8     8     9    1
     9     8    10   ar
    10    10    11   ar
    11     5    11   ar
    12     2    12    1
    13    12    13   ar
    14    13    14   ar
    15    14    15    1
    16    15    16    1
    17    16    17   ar
    18    17    18   ar
    19    18    19   ar
    20    19    20   ar
    21    20    21   ar
    22    16    21   ar
    23    14    22   ar
    24    22    23    2
    25    22    24   ar
    26    24    25   ar
    27    25    26   ar
    28    26    27   ar
    29    27    28   ar
    30    28    29   ar
    31    12    29   ar
    32    24    29   ar
    33     3    30    1
    34     4    31    1
    35     4    32    1
    36    15    33    1
    37    15    34    1
    38     6    35    1
    39     7    36    1
    40    10    37    1
    41    11    38    1
    42    17    39    1
    43    18    40    1
    44    19    41    1
    45    20    42    1
    46    21    43    1
    47    25    44    1
    48    26    45    1
    49    27    46    1
    50    28    47    1
@<TRIPOS>MOLECULE
mol24_1_13
 47 50 0 0 0
SMALL
USER_CHARGES
****
VDW energy = 39.40
@<TRIPOS>ATOM
   1 O1        7.3129    -1.0371    -2.8426  O.2     1  <O>11      -0.2684
   2 C1        6.7640    -0.2742    -2.0616  C.2     1  <O>11       0.2650
   3 N1        5.5270    -0.5800    -1.5610  N.am    1  <O>11      -0.3059
   4 C2        4.8640    -1.8180    -1.9600  C.3     1  <O>11       0.0372
   5 C3        5.7064    -2.9786    -1.5702  C.ar    1  <O>11      -0.0301
   6 C4        5.8182    -4.0912    -2.4222  C.ar    1  <O>11      -0.0544
   7 C5        6.6014    -5.1886    -2.0482  C.ar    1  <O>11      -0.0261
   8 C6        7.2821    -5.1854    -0.8278  C.ar    1  <O>11       0.1234
   9 F1        8.0489    -6.2591    -0.4553  F       1  <O>11      -0.2055
  10 C7        7.1760    -4.0744     0.0163  C.ar    1  <O>11      -0.0261
  11 C8        6.3977    -2.9735    -0.3480  C.ar    1  <O>11      -0.0544
  12 C9        7.4210     0.9530    -1.6660  C.ar    1  <O>11       0.1535
  13 N2        6.8899     1.5848    -0.5915  N.ar    1  <O>11      -0.1626
  14 N3        7.3813     2.7907    -0.2228  N.ar    1  <O>11      -0.2239
  15 C10       6.8285     3.4880     0.9105  C.3     1  <O>11       0.0703
  16 C11       5.8525     2.6086     1.6052  C.ar    1  <O>11      -0.0260
  17 C12       6.2631     1.3747     2.1382  C.ar    1  <O>11      -0.0568
  18 C13       5.3404     0.5427     2.7810  C.ar    1  <O>11      -0.0614
  19 C14       4.0044     0.9341     2.9009  C.ar    1  <O>11      -0.0617
  20 C15       3.5975     2.1654     2.3760  C.ar    1  <O>11      -0.0614
  21 C16       4.5118     3.0047     1.7353  C.ar    1  <O>11      -0.0568
  22 C17       8.3994     3.3317    -0.9323  C.ar    1  <O>11       0.2753
  23 O2        8.7986     4.6287    -0.5578  O.2     1  <O>11      -0.2655
  24 C18       9.0500     2.6760    -1.9877  C.ar    1  <O>11       0.0503
  25 C19      10.1510     3.2131    -2.6937  C.ar    1  <O>11      -0.0487
  26 C20      10.7325     2.5211    -3.7556  C.ar    1  <O>11      -0.0610
  27 C21      10.2221     1.2856    -4.1387  C.ar    1  <O>11      -0.0611
  28 C22       9.1304     0.7430    -3.4589  C.ar    1  <O>11      -0.0516
  29 C23       8.5348     1.4266    -2.3743  C.ar    1  <O>11       0.0195
  30 H1        5.0690     0.0560    -0.9090  H       1  <O>11       0.1494
  31 H2        4.7196    -1.8211    -3.0411  H       1  <O>11       0.0512
  32 H3        3.8961    -1.8882    -1.4643  H       1  <O>11       0.0512
  33 H4        6.3249     4.3934     0.5709  H       1  <O>11       0.0560
  34 H5        7.6310     3.7548     1.5994  H       1  <O>11       0.0560
  35 H6        5.3209    -4.0986    -3.3264  H       1  <O>11       0.0622
  36 H7        6.6768    -6.0039    -2.6764  H       1  <O>11       0.0646
  37 H8        7.6783    -4.0685     0.9178  H       1  <O>11       0.0646
  38 H9        6.3309    -2.1574     0.2802  H       1  <O>11       0.0622
  39 H10       7.2490     1.0813     2.0550  H       1  <O>11       0.0621
  40 H11       5.6475    -0.3633     3.1681  H       1  <O>11       0.0618
  41 H12       3.3230     0.3194     3.3730  H       1  <O>11       0.0618
  42 H13       2.6114     2.4567     2.4631  H       1  <O>11       0.0618
  43 H14       4.2025     3.9142     1.3582  H       1  <O>11       0.0621
  44 H15      10.5305     4.1326    -2.4187  H       1  <O>11       0.0625
  45 H16      11.5397     2.9249    -4.2559  H       1  <O>11       0.0618
  46 H17      10.6497     0.7708    -4.9243  H       1  <O>11       0.0618
  47 H18       8.7522    -0.1712    -3.7526  H       1  <O>11       0.0624
@<TRIPOS>BOND
     1     1     2    2
     2     2     3   am
     3     3     4    1
     4     4     5    1
     5     5     6   ar
     6     6     7   ar
     7     7     8   ar
     8     8     9    1
     9     8    10   ar
    10    10    11   ar
    11     5    11   ar
    12     2    12    1
    13    12    13   ar
    14    13    14   ar
    15    14    15    1
    16    15    16    1
    17    16    17   ar
    18    17    18   ar
    19    18    19   ar
    20    19    20   ar
    21    20    21   ar
    22    16    21   ar
    23    14    22   ar
    24    22    23    2
    25    22    24   ar
    26    24    25   ar
    27    25    26   ar
    28    26    27   ar
    29    27    28   ar
    30    28    29   ar
    31    12    29   ar
    32    24    29   ar
    33     3    30    1
    34     4    31    1
    35     4    32    1
    36    15    33    1
    37    15    34    1
    38     6    35    1
    39     7    36    1
    40    10    37    1
    41    11    38    1
    42    17    39    1
    43    18    40    1
    44    19    41    1
    45    20    42    1
    46    21    43    1
    47    25    44    1
    48    26    45    1
    49    27    46    1
    50    28    47    1
@<TRIPOS>MOLECULE
mol24_1_14
 47 50 0 0 0
SMALL
USER_CHARGES
****
VDW energy = 40.01
@<TRIPOS>ATOM
   1 O1        7.3129    -1.0371    -2.8426  O.2     1  <O>11      -0.2684
   2 C1        6.7640    -0.2742    -2.0616  C.2     1  <O>11       0.2650
   3 N1        5.5270    -0.5800    -1.5610  N.am    1  <O>11      -0.3059
   4 C2        4.8640    -1.8180    -1.9600  C.3     1  <O>11       0.0372
   5 C3        3.4572    -1.8029    -1.4810  C.ar    1  <O>11      -0.0301
   6 C4        3.1346    -2.3172    -0.2131  C.ar    1  <O>11      -0.0544
   7 C5        1.8080    -2.3140     0.2314  C.ar    1  <O>11      -0.0261
   8 C6        0.7945    -1.7955    -0.5791  C.ar    1  <O>11       0.1234
   9 F1       -0.5075    -1.7922    -0.1495  F       1  <O>11      -0.2055
  10 C7        1.1177    -1.2771    -1.8380  C.ar    1  <O>11      -0.0261
  11 C8        2.4388    -1.2746    -2.2907  C.ar    1  <O>11      -0.0544
  12 C9        7.4210     0.9530    -1.6660  C.ar    1  <O>11       0.1535
  13 N2        6.8899     1.5848    -0.5915  N.ar    1  <O>11      -0.1626
  14 N3        7.3813     2.7907    -0.2228  N.ar    1  <O>11      -0.2239
  15 C10       6.8285     3.4880     0.9105  C.3     1  <O>11       0.0703
  16 C11       6.1678     4.7368     0.4496  C.ar    1  <O>11      -0.0260
  17 C12       5.9241     5.7857     1.3528  C.ar    1  <O>11      -0.0568
  18 C13       5.2911     6.9556     0.9198  C.ar    1  <O>11      -0.0614
  19 C14       4.8995     7.0911    -0.4146  C.ar    1  <O>11      -0.0617
  20 C15       5.1482     6.0494    -1.3147  C.ar    1  <O>11      -0.0614
  21 C16       5.7826     4.8787    -0.8930  C.ar    1  <O>11      -0.0568
  22 C17       8.3994     3.3317    -0.9323  C.ar    1  <O>11       0.2753
  23 O2        8.7986     4.6287    -0.5578  O.2     1  <O>11      -0.2655
  24 C18       9.0500     2.6760    -1.9877  C.ar    1  <O>11       0.0503
  25 C19      10.1510     3.2131    -2.6937  C.ar    1  <O>11      -0.0487
  26 C20      10.7325     2.5211    -3.7556  C.ar    1  <O>11      -0.0610
  27 C21      10.2221     1.2856    -4.1387  C.ar    1  <O>11      -0.0611
  28 C22       9.1304     0.7430    -3.4589  C.ar    1  <O>11      -0.0516
  29 C23       8.5348     1.4266    -2.3743  C.ar    1  <O>11       0.0195
  30 H1        5.0690     0.0560    -0.9090  H       1  <O>11       0.1494
  31 H2        5.3876    -2.6685    -1.5217  H       1  <O>11       0.0512
  32 H3        4.8776    -1.9039    -3.0462  H       1  <O>11       0.0512
  33 H4        7.6268     3.7358     1.6105  H       1  <O>11       0.0560
  34 H5        6.0949     2.8509     1.4063  H       1  <O>11       0.0560
  35 H6        3.8787    -2.6984     0.3918  H       1  <O>11       0.0622
  36 H7        1.5769    -2.6961     1.1617  H       1  <O>11       0.0646
  37 H8        0.3717    -0.8925    -2.4385  H       1  <O>11       0.0646
  38 H9        2.6663    -0.8851    -3.2189  H       1  <O>11       0.0622
  39 H10       6.2133     5.6926     2.3390  H       1  <O>11       0.0621
  40 H11       5.1126     7.7213     1.5884  H       1  <O>11       0.0618
  41 H12       4.4304     7.9532    -0.7337  H       1  <O>11       0.0618
  42 H13       4.8598     6.1470    -2.3007  H       1  <O>11       0.0618
  43 H14       5.9678     4.1194    -1.5670  H       1  <O>11       0.0621
  44 H15      10.5305     4.1326    -2.4187  H       1  <O>11       0.0625
  45 H16      11.5397     2.9249    -4.2559  H       1  <O>11       0.0618
  46 H17      10.6497     0.7708    -4.9243  H       1  <O>11       0.0618
  47 H18       8.7522    -0.1712    -3.7526  H       1  <O>11       0.0624
@<TRIPOS>BOND
     1     1     2    2
     2     2     3   am
     3     3     4    1
     4     4     5    1
     5     5     6   ar
     6     6     7   ar
     7     7     8   ar
     8     8     9    1
     9     8    10   ar
    10    10    11   ar
    11     5    11   ar
    12     2    12    1
    13    12    13   ar
    14    13    14   ar
    15    14    15    1
    16    15    16    1
    17    16    17   ar
    18    17    18   ar
    19    18    19   ar
    20    19    20   ar
    21    20    21   ar
    22    16    21   ar
    23    14    22   ar
    24    22    23    2
    25    22    24   ar
    26    24    25   ar
    27    25    26   ar
    28    26    27   ar
    29    27    28   ar
    30    28    29   ar
    31    12    29   ar
    32    24    29   ar
    33     3    30    1
    34     4    31    1
    35     4    32    1
    36    15    33    1
    37    15    34    1
    38     6    35    1
    39     7    36    1
    40    10    37    1
    41    11    38    1
    42    17    39    1
    43    18    40    1
    44    19    41    1
    45    20    42    1
    46    21    43    1
    47    25    44    1
    48    26    45    1
    49    27    46    1
    50    28    47    1
@<TRIPOS>MOLECULE
mol24_1_15
 47 50 0 0 0
SMALL
USER_CHARGES
****
VDW energy = 40.01
@<TRIPOS>ATOM
   1 O1        7.3129    -1.0371    -2.8426  O.2     1  <O>11      -0.2684
   2 C1        6.7640    -0.2742    -2.0616  C.2     1  <O>11       0.2650
   3 N1        5.5270    -0.5800    -1.5610  N.am    1  <O>11      -0.3059
   4 C2        4.8640    -1.8180    -1.9600  C.3     1  <O>11       0.0372
   5 C3        3.4572    -1.8029    -1.4810  C.ar    1  <O>11      -0.0301
   6 C4        2.4380    -1.2741    -2.2920  C.ar    1  <O>11      -0.0544
   7 C5        1.1159    -1.2488    -1.8347  C.ar    1  <O>11      -0.0261
   8 C6        0.7978    -1.7529    -0.5708  C.ar    1  <O>11       0.1234
   9 F1       -0.4956    -1.7283    -0.1166  F       1  <O>11      -0.2055
  10 C7        1.8119    -2.2857     0.2328  C.ar    1  <O>11      -0.0261
  11 C8        3.1345    -2.3167    -0.2147  C.ar    1  <O>11      -0.0544
  12 C9        7.4210     0.9530    -1.6660  C.ar    1  <O>11       0.1535
  13 N2        6.8899     1.5848    -0.5915  N.ar    1  <O>11      -0.1626
  14 N3        7.3813     2.7907    -0.2228  N.ar    1  <O>11      -0.2239
  15 C10       6.8285     3.4880     0.9105  C.3     1  <O>11       0.0703
  16 C11       6.1678     4.7368     0.4496  C.ar    1  <O>11      -0.0260
  17 C12       5.9241     5.7857     1.3528  C.ar    1  <O>11      -0.0568
  18 C13       5.2911     6.9556     0.9198  C.ar    1  <O>11      -0.0614
  19 C14       4.8995     7.0911    -0.4146  C.ar    1  <O>11      -0.0617
  20 C15       5.1482     6.0494    -1.3147  C.ar    1  <O>11      -0.0614
  21 C16       5.7826     4.8787    -0.8930  C.ar    1  <O>11      -0.0568
  22 C17       8.3994     3.3317    -0.9323  C.ar    1  <O>11       0.2753
  23 O2        8.7986     4.6287    -0.5578  O.2     1  <O>11      -0.2655
  24 C18       9.0500     2.6760    -1.9877  C.ar    1  <O>11       0.0503
  25 C19      10.1510     3.2131    -2.6937  C.ar    1  <O>11      -0.0487
  26 C20      10.7325     2.5211    -3.7556  C.ar    1  <O>11      -0.0610
  27 C21      10.2221     1.2856    -4.1387  C.ar    1  <O>11      -0.0611
  28 C22       9.1304     0.7430    -3.4589  C.ar    1  <O>11      -0.0516
  29 C23       8.5348     1.4266    -2.3743  C.ar    1  <O>11       0.0195
  30 H1        5.0690     0.0560    -0.9090  H       1  <O>11       0.1494
  31 H2        5.3876    -2.6685    -1.5217  H       1  <O>11       0.0512
  32 H3        4.8776    -1.9039    -3.0462  H       1  <O>11       0.0512
  33 H4        7.6268     3.7358     1.6105  H       1  <O>11       0.0560
  34 H5        6.0949     2.8509     1.4063  H       1  <O>11       0.0560
  35 H6        2.6656    -0.9034    -3.2278  H       1  <O>11       0.0622
  36 H7        0.3726    -0.8562    -2.4332  H       1  <O>11       0.0646
  37 H8        1.5800    -2.6598     1.1663  H       1  <O>11       0.0646
  38 H9        3.8735    -2.7166     0.3845  H       1  <O>11       0.0622
  39 H10       6.2133     5.6926     2.3390  H       1  <O>11       0.0621
  40 H11       5.1126     7.7213     1.5884  H       1  <O>11       0.0618
  41 H12       4.4304     7.9532    -0.7337  H       1  <O>11       0.0618
  42 H13       4.8598     6.1470    -2.3007  H       1  <O>11       0.0618
  43 H14       5.9678     4.1194    -1.5670  H       1  <O>11       0.0621
  44 H15      10.5305     4.1326    -2.4187  H       1  <O>11       0.0625
  45 H16      11.5397     2.9249    -4.2559  H       1  <O>11       0.0618
  46 H17      10.6497     0.7708    -4.9243  H       1  <O>11       0.0618
  47 H18       8.7522    -0.1712    -3.7526  H       1  <O>11       0.0624
@<TRIPOS>BOND
     1     1     2    2
     2     2     3   am
     3     3     4    1
     4     4     5    1
     5     5     6   ar
     6     6     7   ar
     7     7     8   ar
     8     8     9    1
     9     8    10   ar
    10    10    11   ar
    11     5    11   ar
    12     2    12    1
    13    12    13   ar
    14    13    14   ar
    15    14    15    1
    16    15    16    1
    17    16    17   ar
    18    17    18   ar
    19    18    19   ar
    20    19    20   ar
    21    20    21   ar
    22    16    21   ar
    23    14    22   ar
    24    22    23    2
    25    22    24   ar
    26    24    25   ar
    27    25    26   ar
    28    26    27   ar
    29    27    28   ar
    30    28    29   ar
    31    12    29   ar
    32    24    29   ar
    33     3    30    1
    34     4    31    1
    35     4    32    1
    36    15    33    1
    37    15    34    1
    38     6    35    1
    39     7    36    1
    40    10    37    1
    41    11    38    1
    42    17    39    1
    43    18    40    1
    44    19    41    1
    45    20    42    1
    46    21    43    1
    47    25    44    1
    48    26    45    1
    49    27    46    1
    50    28    47    1
@<TRIPOS>MOLECULE
mol24_1_16
 47 50 0 0 0
SMALL
USER_CHARGES
****
VDW energy = 40.03
@<TRIPOS>ATOM
   1 O1        7.3129    -1.0371    -2.8426  O.2     1  <O>11      -0.2684
   2 C1        6.7640    -0.2742    -2.0616  C.2     1  <O>11       0.2650
   3 N1        5.5270    -0.5800    -1.5610  N.am    1  <O>11      -0.3059
   4 C2        4.8640    -1.8180    -1.9600  C.3     1  <O>11       0.0372
   5 C3        3.5446    -1.9135    -1.2828  C.ar    1  <O>11      -0.0301
   6 C4        3.0843    -3.1504    -0.7985  C.ar    1  <O>11      -0.0544
   7 C5        1.8363    -3.2413    -0.1725  C.ar    1  <O>11      -0.0261
   8 C6        1.0402    -2.1031    -0.0196  C.ar    1  <O>11       0.1234
   9 F1       -0.1846    -2.1869     0.5908  F       1  <O>11      -0.2055
  10 C7        1.5024    -0.8710    -0.4954  C.ar    1  <O>11      -0.0261
  11 C8        2.7470    -0.7693    -1.1208  C.ar    1  <O>11      -0.0544
  12 C9        7.4210     0.9530    -1.6660  C.ar    1  <O>11       0.1535
  13 N2        6.8899     1.5848    -0.5915  N.ar    1  <O>11      -0.1626
  14 N3        7.3813     2.7907    -0.2228  N.ar    1  <O>11      -0.2239
  15 C10       6.8285     3.4880     0.9105  C.3     1  <O>11       0.0703
  16 C11       5.8525     2.6086     1.6052  C.ar    1  <O>11      -0.0260
  17 C12       6.2631     1.3747     2.1382  C.ar    1  <O>11      -0.0568
  18 C13       5.3404     0.5427     2.7810  C.ar    1  <O>11      -0.0614
  19 C14       4.0044     0.9341     2.9009  C.ar    1  <O>11      -0.0617
  20 C15       3.5975     2.1654     2.3760  C.ar    1  <O>11      -0.0614
  21 C16       4.5118     3.0047     1.7353  C.ar    1  <O>11      -0.0568
  22 C17       8.3994     3.3317    -0.9323  C.ar    1  <O>11       0.2753
  23 O2        8.7986     4.6287    -0.5578  O.2     1  <O>11      -0.2655
  24 C18       9.0500     2.6760    -1.9877  C.ar    1  <O>11       0.0503
  25 C19      10.1510     3.2131    -2.6937  C.ar    1  <O>11      -0.0487
  26 C20      10.7325     2.5211    -3.7556  C.ar    1  <O>11      -0.0610
  27 C21      10.2221     1.2856    -4.1387  C.ar    1  <O>11      -0.0611
  28 C22       9.1304     0.7430    -3.4589  C.ar    1  <O>11      -0.0516
  29 C23       8.5348     1.4266    -2.3743  C.ar    1  <O>11       0.0195
  30 H1        5.0690     0.0560    -0.9090  H       1  <O>11       0.1494
  31 H2        5.4817    -2.6700    -1.6734  H       1  <O>11       0.0512
  32 H3        4.7196    -1.8213    -3.0401  H       1  <O>11       0.0512
  33 H4        6.3249     4.3934     0.5709  H       1  <O>11       0.0560
  34 H5        7.6310     3.7548     1.5994  H       1  <O>11       0.0560
  35 H6        3.6688    -3.9942    -0.9052  H       1  <O>11       0.0622
  36 H7        1.5024    -4.1527     0.1778  H       1  <O>11       0.0646
  37 H8        0.9172    -0.0284    -0.3830  H       1  <O>11       0.0646
  38 H9        3.0799     0.1455    -1.4633  H       1  <O>11       0.0622
  39 H10       7.2490     1.0813     2.0550  H       1  <O>11       0.0621
  40 H11       5.6475    -0.3633     3.1681  H       1  <O>11       0.0618
  41 H12       3.3230     0.3194     3.3730  H       1  <O>11       0.0618
  42 H13       2.6114     2.4567     2.4631  H       1  <O>11       0.0618
  43 H14       4.2025     3.9142     1.3582  H       1  <O>11       0.0621
  44 H15      10.5305     4.1326    -2.4187  H       1  <O>11       0.0625
  45 H16      11.5397     2.9249    -4.2559  H       1  <O>11       0.0618
  46 H17      10.6497     0.7708    -4.9243  H       1  <O>11       0.0618
  47 H18       8.7522    -0.1712    -3.7526  H       1  <O>11       0.0624
@<TRIPOS>BOND
     1     1     2    2
     2     2     3   am
     3     3     4    1
     4     4     5    1
     5     5     6   ar
     6     6     7   ar
     7     7     8   ar
     8     8     9    1
     9     8    10   ar
    10    10    11   ar
    11     5    11   ar
    12     2    12    1
    13    12    13   ar
    14    13    14   ar
    15    14    15    1
    16    15    16    1
    17    16    17   ar
    18    17    18   ar
    19    18    19   ar
    20    19    20   ar
    21    20    21   ar
    22    16    21   ar
    23    14    22   ar
    24    22    23    2
    25    22    24   ar
    26    24    25   ar
    27    25    26   ar
    28    26    27   ar
    29    27    28   ar
    30    28    29   ar
    31    12    29   ar
    32    24    29   ar
    33     3    30    1
    34     4    31    1
    35     4    32    1
    36    15    33    1
    37    15    34    1
    38     6    35    1
    39     7    36    1
    40    10    37    1
    41    11    38    1
    42    17    39    1
    43    18    40    1
    44    19    41    1
    45    20    42    1
    46    21    43    1
    47    25    44    1
    48    26    45    1
    49    27    46    1
    50    28    47    1
@<TRIPOS>MOLECULE
mol24_1_17
 47 50 0 0 0
SMALL
USER_CHARGES
****
VDW energy = 40.76
@<TRIPOS>ATOM
   1 O1        7.3129    -1.0371    -2.8426  O.2     1  <O>11      -0.2684
   2 C1        6.7640    -0.2742    -2.0616  C.2     1  <O>11       0.2650
   3 N1        5.5270    -0.5800    -1.5610  N.am    1  <O>11      -0.3059
   4 C2        4.8640    -1.8180    -1.9600  C.3     1  <O>11       0.0372
   5 C3        3.4572    -1.8029    -1.4810  C.ar    1  <O>11      -0.0301
   6 C4        2.5740    -0.7959    -1.9077  C.ar    1  <O>11      -0.0544
   7 C5        1.2534    -0.7755    -1.4460  C.ar    1  <O>11      -0.0261
   8 C6        0.8010    -1.7580    -0.5612  C.ar    1  <O>11       0.1234
   9 F1       -0.4913    -1.7413    -0.1037  F       1  <O>11      -0.2055
  10 C7        1.6789    -2.7641    -0.1428  C.ar    1  <O>11      -0.0261
  11 C8        2.9986    -2.7942    -0.5986  C.ar    1  <O>11      -0.0544
  12 C9        7.4210     0.9530    -1.6660  C.ar    1  <O>11       0.1535
  13 N2        6.8899     1.5848    -0.5915  N.ar    1  <O>11      -0.1626
  14 N3        7.3813     2.7907    -0.2228  N.ar    1  <O>11      -0.2239
  15 C10       6.8285     3.4880     0.9105  C.3     1  <O>11       0.0703
  16 C11       6.1678     4.7368     0.4496  C.ar    1  <O>11      -0.0260
  17 C12       5.9241     5.7857     1.3528  C.ar    1  <O>11      -0.0568
  18 C13       5.2911     6.9556     0.9198  C.ar    1  <O>11      -0.0614
  19 C14       4.8995     7.0911    -0.4146  C.ar    1  <O>11      -0.0617
  20 C15       5.1482     6.0494    -1.3147  C.ar    1  <O>11      -0.0614
  21 C16       5.7826     4.8787    -0.8930  C.ar    1  <O>11      -0.0568
  22 C17       8.3994     3.3317    -0.9323  C.ar    1  <O>11       0.2753
  23 O2        8.7986     4.6287    -0.5578  O.2     1  <O>11      -0.2655
  24 C18       9.0500     2.6760    -1.9877  C.ar    1  <O>11       0.0503
  25 C19      10.1510     3.2131    -2.6937  C.ar    1  <O>11      -0.0487
  26 C20      10.7325     2.5211    -3.7556  C.ar    1  <O>11      -0.0610
  27 C21      10.2221     1.2856    -4.1387  C.ar    1  <O>11      -0.0611
  28 C22       9.1304     0.7430    -3.4589  C.ar    1  <O>11      -0.0516
  29 C23       8.5348     1.4266    -2.3743  C.ar    1  <O>11       0.0195
  30 H1        5.0690     0.0560    -0.9090  H       1  <O>11       0.1494
  31 H2        5.3876    -2.6685    -1.5217  H       1  <O>11       0.0512
  32 H3        4.8776    -1.9039    -3.0462  H       1  <O>11       0.0512
  33 H4        7.6268     3.7358     1.6105  H       1  <O>11       0.0560
  34 H5        6.0949     2.8509     1.4063  H       1  <O>11       0.0560
  35 H6        2.9007    -0.0693    -2.5637  H       1  <O>11       0.0622
  36 H7        0.6107    -0.0317    -1.7601  H       1  <O>11       0.0646
  37 H8        1.3475    -3.4918     0.5096  H       1  <O>11       0.0646
  38 H9        3.6359    -3.5439    -0.2872  H       1  <O>11       0.0622
  39 H10       6.2133     5.6926     2.3390  H       1  <O>11       0.0621
  40 H11       5.1126     7.7213     1.5884  H       1  <O>11       0.0618
  41 H12       4.4304     7.9532    -0.7337  H       1  <O>11       0.0618
  42 H13       4.8598     6.1470    -2.3007  H       1  <O>11       0.0618
  43 H14       5.9678     4.1194    -1.5670  H       1  <O>11       0.0621
  44 H15      10.5305     4.1326    -2.4187  H       1  <O>11       0.0625
  45 H16      11.5397     2.9249    -4.2559  H       1  <O>11       0.0618
  46 H17      10.6497     0.7708    -4.9243  H       1  <O>11       0.0618
  47 H18       8.7522    -0.1712    -3.7526  H       1  <O>11       0.0624
@<TRIPOS>BOND
     1     1     2    2
     2     2     3   am
     3     3     4    1
     4     4     5    1
     5     5     6   ar
     6     6     7   ar
     7     7     8   ar
     8     8     9    1
     9     8    10   ar
    10    10    11   ar
    11     5    11   ar
    12     2    12    1
    13    12    13   ar
    14    13    14   ar
    15    14    15    1
    16    15    16    1
    17    16    17   ar
    18    17    18   ar
    19    18    19   ar
    20    19    20   ar
    21    20    21   ar
    22    16    21   ar
    23    14    22   ar
    24    22    23    2
    25    22    24   ar
    26    24    25   ar
    27    25    26   ar
    28    26    27   ar
    29    27    28   ar
    30    28    29   ar
    31    12    29   ar
    32    24    29   ar
    33     3    30    1
    34     4    31    1
    35     4    32    1
    36    15    33    1
    37    15    34    1
    38     6    35    1
    39     7    36    1
    40    10    37    1
    41    11    38    1
    42    17    39    1
    43    18    40    1
    44    19    41    1
    45    20    42    1
    46    21    43    1
    47    25    44    1
    48    26    45    1
    49    27    46    1
    50    28    47    1
@<TRIPOS>MOLECULE
mol24_1_18
 47 50 0 0 0
SMALL
USER_CHARGES
****
VDW energy = 41.82
@<TRIPOS>ATOM
   1 O1        7.3129    -1.0371    -2.8426  O.2     1  <O>11      -0.2684
   2 C1        6.7640    -0.2742    -2.0616  C.2     1  <O>11       0.2650
   3 N1        5.5270    -0.5800    -1.5610  N.am    1  <O>11      -0.3059
   4 C2        4.8640    -1.8180    -1.9600  C.3     1  <O>11       0.0372
   5 C3        5.7064    -2.9786    -1.5702  C.ar    1  <O>11      -0.0301
   6 C4        5.8182    -4.0912    -2.4222  C.ar    1  <O>11      -0.0544
   7 C5        6.6014    -5.1886    -2.0482  C.ar    1  <O>11      -0.0261
   8 C6        7.2821    -5.1854    -0.8278  C.ar    1  <O>11       0.1234
   9 F1        8.0489    -6.2591    -0.4553  F       1  <O>11      -0.2055
  10 C7        7.1760    -4.0744     0.0163  C.ar    1  <O>11      -0.0261
  11 C8        6.3977    -2.9735    -0.3480  C.ar    1  <O>11      -0.0544
  12 C9        7.4210     0.9530    -1.6660  C.ar    1  <O>11       0.1535
  13 N2        6.8899     1.5848    -0.5915  N.ar    1  <O>11      -0.1626
  14 N3        7.3813     2.7907    -0.2228  N.ar    1  <O>11      -0.2239
  15 C10       6.8285     3.4880     0.9105  C.3     1  <O>11       0.0703
  16 C11       6.1678     4.7368     0.4496  C.ar    1  <O>11      -0.0260
  17 C12       5.9241     5.7857     1.3528  C.ar    1  <O>11      -0.0568
  18 C13       5.2911     6.9556     0.9198  C.ar    1  <O>11      -0.0614
  19 C14       4.8995     7.0911    -0.4146  C.ar    1  <O>11      -0.0617
  20 C15       5.1482     6.0494    -1.3147  C.ar    1  <O>11      -0.0614
  21 C16       5.7826     4.8787    -0.8930  C.ar    1  <O>11      -0.0568
  22 C17       8.3994     3.3317    -0.9323  C.ar    1  <O>11       0.2753
  23 O2        8.7986     4.6287    -0.5578  O.2     1  <O>11      -0.2655
  24 C18       9.0500     2.6760    -1.9877  C.ar    1  <O>11       0.0503
  25 C19      10.1510     3.2131    -2.6937  C.ar    1  <O>11      -0.0487
  26 C20      10.7325     2.5211    -3.7556  C.ar    1  <O>11      -0.0610
  27 C21      10.2221     1.2856    -4.1387  C.ar    1  <O>11      -0.0611
  28 C22       9.1304     0.7430    -3.4589  C.ar    1  <O>11      -0.0516
  29 C23       8.5348     1.4266    -2.3743  C.ar    1  <O>11       0.0195
  30 H1        5.0690     0.0560    -0.9090  H       1  <O>11       0.1494
  31 H2        4.7196    -1.8211    -3.0411  H       1  <O>11       0.0512
  32 H3        3.8961    -1.8882    -1.4643  H       1  <O>11       0.0512
  33 H4        7.6268     3.7358     1.6105  H       1  <O>11       0.0560
  34 H5        6.0949     2.8509     1.4063  H       1  <O>11       0.0560
  35 H6        5.3209    -4.0986    -3.3264  H       1  <O>11       0.0622
  36 H7        6.6768    -6.0039    -2.6764  H       1  <O>11       0.0646
  37 H8        7.6783    -4.0685     0.9178  H       1  <O>11       0.0646
  38 H9        6.3309    -2.1574     0.2802  H       1  <O>11       0.0622
  39 H10       6.2133     5.6926     2.3390  H       1  <O>11       0.0621
  40 H11       5.1126     7.7213     1.5884  H       1  <O>11       0.0618
  41 H12       4.4304     7.9532    -0.7337  H       1  <O>11       0.0618
  42 H13       4.8598     6.1470    -2.3007  H       1  <O>11       0.0618
  43 H14       5.9678     4.1194    -1.5670  H       1  <O>11       0.0621
  44 H15      10.5305     4.1326    -2.4187  H       1  <O>11       0.0625
  45 H16      11.5397     2.9249    -4.2559  H       1  <O>11       0.0618
  46 H17      10.6497     0.7708    -4.9243  H       1  <O>11       0.0618
  47 H18       8.7522    -0.1712    -3.7526  H       1  <O>11       0.0624
@<TRIPOS>BOND
     1     1     2    2
     2     2     3   am
     3     3     4    1
     4     4     5    1
     5     5     6   ar
     6     6     7   ar
     7     7     8   ar
     8     8     9    1
     9     8    10   ar
    10    10    11   ar
    11     5    11   ar
    12     2    12    1
    13    12    13   ar
    14    13    14   ar
    15    14    15    1
    16    15    16    1
    17    16    17   ar
    18    17    18   ar
    19    18    19   ar
    20    19    20   ar
    21    20    21   ar
    22    16    21   ar
    23    14    22   ar
    24    22    23    2
    25    22    24   ar
    26    24    25   ar
    27    25    26   ar
    28    26    27   ar
    29    27    28   ar
    30    28    29   ar
    31    12    29   ar
    32    24    29   ar
    33     3    30    1
    34     4    31    1
    35     4    32    1
    36    15    33    1
    37    15    34    1
    38     6    35    1
    39     7    36    1
    40    10    37    1
    41    11    38    1
    42    17    39    1
    43    18    40    1
    44    19    41    1
    45    20    42    1
    46    21    43    1
    47    25    44    1
    48    26    45    1
    49    27    46    1
    50    28    47    1
@<TRIPOS>MOLECULE
mol24_1_19
 47 50 0 0 0
SMALL
USER_CHARGES
****
VDW energy = 42.70
@<TRIPOS>ATOM
   1 O1        7.3129    -1.0371    -2.8426  O.2     1  <O>11      -0.2684
   2 C1        6.7640    -0.2742    -2.0616  C.2     1  <O>11       0.2650
   3 N1        5.5270    -0.5800    -1.5610  N.am    1  <O>11      -0.3059
   4 C2        4.8640    -1.8180    -1.9600  C.3     1  <O>11       0.0372
   5 C3        3.4572    -1.8029    -1.4810  C.ar    1  <O>11      -0.0301
   6 C4        2.8667    -2.9757    -0.9791  C.ar    1  <O>11      -0.0544
   7 C5        1.5382    -2.9631    -0.5403  C.ar    1  <O>11      -0.0261
   8 C6        0.7898    -1.7841    -0.5932  C.ar    1  <O>11       0.1234
   9 F1       -0.5131    -1.7667    -0.1670  F       1  <O>11      -0.2055
  10 C7        1.3808    -0.6155    -1.0862  C.ar    1  <O>11      -0.0261
  11 C8        2.7064    -0.6171    -1.5256  C.ar    1  <O>11      -0.0544
  12 C9        7.4210     0.9530    -1.6660  C.ar    1  <O>11       0.1535
  13 N2        6.8899     1.5848    -0.5915  N.ar    1  <O>11      -0.1626
  14 N3        7.3813     2.7907    -0.2228  N.ar    1  <O>11      -0.2239
  15 C10       6.8285     3.4880     0.9105  C.3     1  <O>11       0.0703
  16 C11       6.1678     4.7368     0.4496  C.ar    1  <O>11      -0.0260
  17 C12       5.9241     5.7857     1.3528  C.ar    1  <O>11      -0.0568
  18 C13       5.2911     6.9556     0.9198  C.ar    1  <O>11      -0.0614
  19 C14       4.8995     7.0911    -0.4146  C.ar    1  <O>11      -0.0617
  20 C15       5.1482     6.0494    -1.3147  C.ar    1  <O>11      -0.0614
  21 C16       5.7826     4.8787    -0.8930  C.ar    1  <O>11      -0.0568
  22 C17       8.3994     3.3317    -0.9323  C.ar    1  <O>11       0.2753
  23 O2        8.7986     4.6287    -0.5578  O.2     1  <O>11      -0.2655
  24 C18       9.0500     2.6760    -1.9877  C.ar    1  <O>11       0.0503
  25 C19      10.1510     3.2131    -2.6937  C.ar    1  <O>11      -0.0487
  26 C20      10.7325     2.5211    -3.7556  C.ar    1  <O>11      -0.0610
  27 C21      10.2221     1.2856    -4.1387  C.ar    1  <O>11      -0.0611
  28 C22       9.1304     0.7430    -3.4589  C.ar    1  <O>11      -0.0516
  29 C23       8.5348     1.4266    -2.3743  C.ar    1  <O>11       0.0195
  30 H1        5.0690     0.0560    -0.9090  H       1  <O>11       0.1494
  31 H2        5.3876    -2.6685    -1.5217  H       1  <O>11       0.0512
  32 H3        4.8776    -1.9039    -3.0462  H       1  <O>11       0.0512
  33 H4        7.6268     3.7358     1.6105  H       1  <O>11       0.0560
  34 H5        6.0949     2.8509     1.4063  H       1  <O>11       0.0560
  35 H6        3.4149    -3.8489    -0.9341  H       1  <O>11       0.0622
  36 H7        1.1092    -3.8281    -0.1761  H       1  <O>11       0.0646
  37 H8        0.8311     0.2571    -1.1256  H       1  <O>11       0.0646
  38 H9        3.1335     0.2520    -1.8826  H       1  <O>11       0.0622
  39 H10       6.2133     5.6926     2.3390  H       1  <O>11       0.0621
  40 H11       5.1126     7.7213     1.5884  H       1  <O>11       0.0618
  41 H12       4.4304     7.9532    -0.7337  H       1  <O>11       0.0618
  42 H13       4.8598     6.1470    -2.3007  H       1  <O>11       0.0618
  43 H14       5.9678     4.1194    -1.5670  H       1  <O>11       0.0621
  44 H15      10.5305     4.1326    -2.4187  H       1  <O>11       0.0625
  45 H16      11.5397     2.9249    -4.2559  H       1  <O>11       0.0618
  46 H17      10.6497     0.7708    -4.9243  H       1  <O>11       0.0618
  47 H18       8.7522    -0.1712    -3.7526  H       1  <O>11       0.0624
@<TRIPOS>BOND
     1     1     2    2
     2     2     3   am
     3     3     4    1
     4     4     5    1
     5     5     6   ar
     6     6     7   ar
     7     7     8   ar
     8     8     9    1
     9     8    10   ar
    10    10    11   ar
    11     5    11   ar
    12     2    12    1
    13    12    13   ar
    14    13    14   ar
    15    14    15    1
    16    15    16    1
    17    16    17   ar
    18    17    18   ar
    19    18    19   ar
    20    19    20   ar
    21    20    21   ar
    22    16    21   ar
    23    14    22   ar
    24    22    23    2
    25    22    24   ar
    26    24    25   ar
    27    25    26   ar
    28    26    27   ar
    29    27    28   ar
    30    28    29   ar
    31    12    29   ar
    32    24    29   ar
    33     3    30    1
    34     4    31    1
    35     4    32    1
    36    15    33    1
    37    15    34    1
    38     6    35    1
    39     7    36    1
    40    10    37    1
    41    11    38    1
    42    17    39    1
    43    18    40    1
    44    19    41    1
    45    20    42    1
    46    21    43    1
    47    25    44    1
    48    26    45    1
    49    27    46    1
    50    28    47    1
@<TRIPOS>MOLECULE
mol24_1_20
 47 50 0 0 0
SMALL
USER_CHARGES
****
VDW energy = 45.57
@<TRIPOS>ATOM
   1 O1        7.3129    -1.0371    -2.8426  O.2     1  <O>11      -0.2684
   2 C1        6.7640    -0.2742    -2.0616  C.2     1  <O>11       0.2650
   3 N1        5.5270    -0.5800    -1.5610  N.am    1  <O>11      -0.3059
   4 C2        4.8640    -1.8180    -1.9600  C.3     1  <O>11       0.0372
   5 C3        3.4572    -1.8029    -1.4810  C.ar    1  <O>11      -0.0301
   6 C4        3.1346    -2.3172    -0.2131  C.ar    1  <O>11      -0.0544
   7 C5        1.8080    -2.3140     0.2314  C.ar    1  <O>11      -0.0261
   8 C6        0.7945    -1.7955    -0.5791  C.ar    1  <O>11       0.1234
   9 F1       -0.5075    -1.7922    -0.1495  F       1  <O>11      -0.2055
  10 C7        1.1177    -1.2771    -1.8380  C.ar    1  <O>11      -0.0261
  11 C8        2.4388    -1.2746    -2.2907  C.ar    1  <O>11      -0.0544
  12 C9        7.4210     0.9530    -1.6660  C.ar    1  <O>11       0.1535
  13 N2        6.8899     1.5848    -0.5915  N.ar    1  <O>11      -0.1626
  14 N3        7.3813     2.7907    -0.2228  N.ar    1  <O>11      -0.2239
  15 C10       6.8285     3.4880     0.9105  C.3     1  <O>11       0.0703
  16 C11       6.1678     4.7368     0.4496  C.ar    1  <O>11      -0.0260
  17 C12       4.8087     4.7301     0.0916  C.ar    1  <O>11      -0.0568
  18 C13       4.1915     5.9038    -0.3537  C.ar    1  <O>11      -0.0614
  19 C14       4.9210     7.0922    -0.4424  C.ar    1  <O>11      -0.0617
  20 C15       6.2721     7.0999    -0.0796  C.ar    1  <O>11      -0.0614
  21 C16       6.8967     5.9341     0.3694  C.ar    1  <O>11      -0.0568
  22 C17       8.3994     3.3317    -0.9323  C.ar    1  <O>11       0.2753
  23 O2        8.7986     4.6287    -0.5578  O.2     1  <O>11      -0.2655
  24 C18       9.0500     2.6760    -1.9877  C.ar    1  <O>11       0.0503
  25 C19      10.1510     3.2131    -2.6937  C.ar    1  <O>11      -0.0487
  26 C20      10.7325     2.5211    -3.7556  C.ar    1  <O>11      -0.0610
  27 C21      10.2221     1.2856    -4.1387  C.ar    1  <O>11      -0.0611
  28 C22       9.1304     0.7430    -3.4589  C.ar    1  <O>11      -0.0516
  29 C23       8.5348     1.4266    -2.3743  C.ar    1  <O>11       0.0195
  30 H1        5.0690     0.0560    -0.9090  H       1  <O>11       0.1494
  31 H2        5.3876    -2.6685    -1.5217  H       1  <O>11       0.0512
  32 H3        4.8776    -1.9039    -3.0462  H       1  <O>11       0.0512
  33 H4        7.6268     3.7358     1.6105  H       1  <O>11       0.0560
  34 H5        6.0949     2.8509     1.4063  H       1  <O>11       0.0560
  35 H6        3.8787    -2.6984     0.3918  H       1  <O>11       0.0622
  36 H7        1.5769    -2.6961     1.1617  H       1  <O>11       0.0646
  37 H8        0.3717    -0.8925    -2.4385  H       1  <O>11       0.0646
  38 H9        2.6663    -0.8851    -3.2189  H       1  <O>11       0.0622
  39 H10       4.2640     3.8560     0.1574  H       1  <O>11       0.0621
  40 H11       3.1939     5.8919    -0.6176  H       1  <O>11       0.0618
  41 H12       4.4665     7.9577    -0.7730  H       1  <O>11       0.0618
  42 H13       6.8131     7.9763    -0.1443  H       1  <O>11       0.0618
  43 H14       7.8920     5.9526     0.6415  H       1  <O>11       0.0621
  44 H15      10.5305     4.1326    -2.4187  H       1  <O>11       0.0625
  45 H16      11.5397     2.9249    -4.2559  H       1  <O>11       0.0618
  46 H17      10.6497     0.7708    -4.9243  H       1  <O>11       0.0618
  47 H18       8.7522    -0.1712    -3.7526  H       1  <O>11       0.0624
@<TRIPOS>BOND
     1     1     2    2
     2     2     3   am
     3     3     4    1
     4     4     5    1
     5     5     6   ar
     6     6     7   ar
     7     7     8   ar
     8     8     9    1
     9     8    10   ar
    10    10    11   ar
    11     5    11   ar
    12     2    12    1
    13    12    13   ar
    14    13    14   ar
    15    14    15    1
    16    15    16    1
    17    16    17   ar
    18    17    18   ar
    19    18    19   ar
    20    19    20   ar
    21    20    21   ar
    22    16    21   ar
    23    14    22   ar
    24    22    23    2
    25    22    24   ar
    26    24    25   ar
    27    25    26   ar
    28    26    27   ar
    29    27    28   ar
    30    28    29   ar
    31    12    29   ar
    32    24    29   ar
    33     3    30    1
    34     4    31    1
    35     4    32    1
    36    15    33    1
    37    15    34    1
    38     6    35    1
    39     7    36    1
    40    10    37    1
    41    11    38    1
    42    17    39    1
    43    18    40    1
    44    19    41    1
    45    20    42    1
    46    21    43    1
    47    25    44    1
    48    26    45    1
    49    27    46    1
    50    28    47    1
@<TRIPOS>MOLECULE
mol24_1_21
 47 50 0 0 0
SMALL
USER_CHARGES
****
VDW energy = 47.47
@<TRIPOS>ATOM
   1 O1        7.3129    -1.0371    -2.8426  O.2     1  <O>11      -0.2684
   2 C1        6.7640    -0.2742    -2.0616  C.2     1  <O>11       0.2650
   3 N1        5.5270    -0.5800    -1.5610  N.am    1  <O>11      -0.3059
   4 C2        4.8640    -1.8180    -1.9600  C.3     1  <O>11       0.0372
   5 C3        5.7064    -2.9786    -1.5702  C.ar    1  <O>11      -0.0301
   6 C4        6.6694    -3.4861    -2.4598  C.ar    1  <O>11      -0.0544
   7 C5        7.4530    -4.5868    -2.0966  C.ar    1  <O>11      -0.0261
   8 C6        7.2879    -5.1871    -0.8455  C.ar    1  <O>11       0.1234
   9 F1        8.0513    -6.2675    -0.4854  F       1  <O>11      -0.2055
  10 C7        6.3341    -4.6767     0.0421  C.ar    1  <O>11      -0.0261
  11 C8        5.5477    -3.5778    -0.3102  C.ar    1  <O>11      -0.0544
  12 C9        7.4210     0.9530    -1.6660  C.ar    1  <O>11       0.1535
  13 N2        6.8899     1.5848    -0.5915  N.ar    1  <O>11      -0.1626
  14 N3        7.3813     2.7907    -0.2228  N.ar    1  <O>11      -0.2239
  15 C10       6.8285     3.4880     0.9105  C.3     1  <O>11       0.0703
  16 C11       6.1678     4.7368     0.4496  C.ar    1  <O>11      -0.0260
  17 C12       5.9241     5.7857     1.3528  C.ar    1  <O>11      -0.0568
  18 C13       5.2911     6.9556     0.9198  C.ar    1  <O>11      -0.0614
  19 C14       4.8995     7.0911    -0.4146  C.ar    1  <O>11      -0.0617
  20 C15       5.1482     6.0494    -1.3147  C.ar    1  <O>11      -0.0614
  21 C16       5.7826     4.8787    -0.8930  C.ar    1  <O>11      -0.0568
  22 C17       8.3994     3.3317    -0.9323  C.ar    1  <O>11       0.2753
  23 O2        8.7986     4.6287    -0.5578  O.2     1  <O>11      -0.2655
  24 C18       9.0500     2.6760    -1.9877  C.ar    1  <O>11       0.0503
  25 C19      10.1510     3.2131    -2.6937  C.ar    1  <O>11      -0.0487
  26 C20      10.7325     2.5211    -3.7556  C.ar    1  <O>11      -0.0610
  27 C21      10.2221     1.2856    -4.1387  C.ar    1  <O>11      -0.0611
  28 C22       9.1304     0.7430    -3.4589  C.ar    1  <O>11      -0.0516
  29 C23       8.5348     1.4266    -2.3743  C.ar    1  <O>11       0.0195
  30 H1        5.0690     0.0560    -0.9090  H       1  <O>11       0.1494
  31 H2        4.7196    -1.8211    -3.0411  H       1  <O>11       0.0512
  32 H3        3.8961    -1.8882    -1.4643  H       1  <O>11       0.0512
  33 H4        7.6268     3.7358     1.6105  H       1  <O>11       0.0560
  34 H5        6.0949     2.8509     1.4063  H       1  <O>11       0.0560
  35 H6        6.7987    -3.0453    -3.3839  H       1  <O>11       0.0622
  36 H7        8.1558    -4.9569    -2.7553  H       1  <O>11       0.0646
  37 H8        6.2106    -5.1171     0.9673  H       1  <O>11       0.0646
  38 H9        4.8508    -3.2067     0.3544  H       1  <O>11       0.0622
  39 H10       6.2133     5.6926     2.3390  H       1  <O>11       0.0621
  40 H11       5.1126     7.7213     1.5884  H       1  <O>11       0.0618
  41 H12       4.4304     7.9532    -0.7337  H       1  <O>11       0.0618
  42 H13       4.8598     6.1470    -2.3007  H       1  <O>11       0.0618
  43 H14       5.9678     4.1194    -1.5670  H       1  <O>11       0.0621
  44 H15      10.5305     4.1326    -2.4187  H       1  <O>11       0.0625
  45 H16      11.5397     2.9249    -4.2559  H       1  <O>11       0.0618
  46 H17      10.6497     0.7708    -4.9243  H       1  <O>11       0.0618
  47 H18       8.7522    -0.1712    -3.7526  H       1  <O>11       0.0624
@<TRIPOS>BOND
     1     1     2    2
     2     2     3   am
     3     3     4    1
     4     4     5    1
     5     5     6   ar
     6     6     7   ar
     7     7     8   ar
     8     8     9    1
     9     8    10   ar
    10    10    11   ar
    11     5    11   ar
    12     2    12    1
    13    12    13   ar
    14    13    14   ar
    15    14    15    1
    16    15    16    1
    17    16    17   ar
    18    17    18   ar
    19    18    19   ar
    20    19    20   ar
    21    20    21   ar
    22    16    21   ar
    23    14    22   ar
    24    22    23    2
    25    22    24   ar
    26    24    25   ar
    27    25    26   ar
    28    26    27   ar
    29    27    28   ar
    30    28    29   ar
    31    12    29   ar
    32    24    29   ar
    33     3    30    1
    34     4    31    1
    35     4    32    1
    36    15    33    1
    37    15    34    1
    38     6    35    1
    39     7    36    1
    40    10    37    1
    41    11    38    1
    42    17    39    1
    43    18    40    1
    44    19    41    1
    45    20    42    1
    46    21    43    1
    47    25    44    1
    48    26    45    1
    49    27    46    1
    50    28    47    1
@<TRIPOS>MOLECULE
mol24_1_22
 47 50 0 0 0
SMALL
USER_CHARGES
****
VDW energy = 56.50
@<TRIPOS>ATOM
   1 O1        7.3129    -1.0371    -2.8426  O.2     1  <O>11      -0.2684
   2 C1        6.7640    -0.2742    -2.0616  C.2     1  <O>11       0.2650
   3 N1        5.5270    -0.5800    -1.5610  N.am    1  <O>11      -0.3059
   4 C2        4.8640    -1.8180    -1.9600  C.3     1  <O>11       0.0372
   5 C3        3.4572    -1.8029    -1.4810  C.ar    1  <O>11      -0.0301
   6 C4        2.8667    -2.9757    -0.9791  C.ar    1  <O>11      -0.0544
   7 C5        1.5382    -2.9631    -0.5403  C.ar    1  <O>11      -0.0261
   8 C6        0.7898    -1.7841    -0.5932  C.ar    1  <O>11       0.1234
   9 F1       -0.5131    -1.7667    -0.1670  F       1  <O>11      -0.2055
  10 C7        1.3808    -0.6155    -1.0862  C.ar    1  <O>11      -0.0261
  11 C8        2.7064    -0.6171    -1.5256  C.ar    1  <O>11      -0.0544
  12 C9        7.4210     0.9530    -1.6660  C.ar    1  <O>11       0.1535
  13 N2        8.7558     0.8632    -1.4517  N.ar    1  <O>11      -0.1626
  14 N3        9.4244     1.9405    -0.9786  N.ar    1  <O>11      -0.2239
  15 C10      10.8426     1.8690    -0.7335  C.3     1  <O>11       0.0703
  16 C11      11.5537     2.7754    -1.6721  C.ar    1  <O>11      -0.0260
  17 C12      12.9224     2.5934    -1.9345  C.ar    1  <O>11      -0.0568
  18 C13      13.5929     3.4551    -2.8089  C.ar    1  <O>11      -0.0614
  19 C14      12.9059     4.5010    -3.4305  C.ar    1  <O>11      -0.0617
  20 C15      11.5420     4.6778    -3.1741  C.ar    1  <O>11      -0.0614
  21 C16      10.8627     3.8209    -2.3052  C.ar    1  <O>11      -0.0568
  22 C17       8.7432     3.0857    -0.7401  C.ar    1  <O>11       0.2753
  23 O2        9.4769     4.1367    -0.1580  O.2     1  <O>11      -0.2655
  24 C18       7.3843     3.2620    -1.0391  C.ar    1  <O>11       0.0503
  25 C19       6.6826     4.4742    -0.8454  C.ar    1  <O>11      -0.0487
  26 C20       5.3220     4.5727    -1.1344  C.ar    1  <O>11      -0.0610
  27 C21       4.6340     3.4632    -1.6132  C.ar    1  <O>11      -0.0611
  28 C22       5.3080     2.2556    -1.8031  C.ar    1  <O>11      -0.0516
  29 C23       6.6890     2.1407    -1.5242  C.ar    1  <O>11       0.0195
  30 H1        5.0690     0.0560    -0.9090  H       1  <O>11       0.1494
  31 H2        5.3876    -2.6685    -1.5217  H       1  <O>11       0.0512
  32 H3        4.8776    -1.9039    -3.0462  H       1  <O>11       0.0512
  33 H4       11.1871     0.8457    -0.8846  H       1  <O>11       0.0560
  34 H5       11.0495     2.1745     0.2930  H       1  <O>11       0.0560
  35 H6        3.4149    -3.8489    -0.9341  H       1  <O>11       0.0622
  36 H7        1.1092    -3.8281    -0.1761  H       1  <O>11       0.0646
  37 H8        0.8311     0.2571    -1.1256  H       1  <O>11       0.0646
  38 H9        3.1335     0.2520    -1.8826  H       1  <O>11       0.0622
  39 H10      13.4347     1.8211    -1.4804  H       1  <O>11       0.0621
  40 H11      14.5986     3.3178    -2.9956  H       1  <O>11       0.0618
  41 H12      13.4009     5.1383    -4.0738  H       1  <O>11       0.0618
  42 H13      11.0324     5.4497    -3.6318  H       1  <O>11       0.0618
  43 H14       9.8549     3.9558    -2.1289  H       1  <O>11       0.0621
  44 H15       7.1857     5.2997    -0.4842  H       1  <O>11       0.0625
  45 H16       4.8267     5.4670    -0.9932  H       1  <O>11       0.0618
  46 H17       3.6269     3.5324    -1.8279  H       1  <O>11       0.0618
  47 H18       4.7900     1.4341    -2.1523  H       1  <O>11       0.0624
@<TRIPOS>BOND
     1     1     2    2
     2     2     3   am
     3     3     4    1
     4     4     5    1
     5     5     6   ar
     6     6     7   ar
     7     7     8   ar
     8     8     9    1
     9     8    10   ar
    10    10    11   ar
    11     5    11   ar
    12     2    12    1
    13    12    13   ar
    14    13    14   ar
    15    14    15    1
    16    15    16    1
    17    16    17   ar
    18    17    18   ar
    19    18    19   ar
    20    19    20   ar
    21    20    21   ar
    22    16    21   ar
    23    14    22   ar
    24    22    23    2
    25    22    24   ar
    26    24    25   ar
    27    25    26   ar
    28    26    27   ar
    29    27    28   ar
    30    28    29   ar
    31    12    29   ar
    32    24    29   ar
    33     3    30    1
    34     4    31    1
    35     4    32    1
    36    15    33    1
    37    15    34    1
    38     6    35    1
    39     7    36    1
    40    10    37    1
    41    11    38    1
    42    17    39    1
    43    18    40    1
    44    19    41    1
    45    20    42    1
    46    21    43    1
    47    25    44    1
    48    26    45    1
    49    27    46    1
    50    28    47    1
@<TRIPOS>MOLECULE
mol24_1_23
 47 50 0 0 0
SMALL
USER_CHARGES
****
VDW energy = 60.88
@<TRIPOS>ATOM
   1 O1        7.3129    -1.0371    -2.8426  O.2     1  <O>11      -0.2684
   2 C1        6.7640    -0.2742    -2.0616  C.2     1  <O>11       0.2650
   3 N1        5.5270    -0.5800    -1.5610  N.am    1  <O>11      -0.3059
   4 C2        4.8640    -1.8180    -1.9600  C.3     1  <O>11       0.0372
   5 C3        3.4572    -1.8029    -1.4810  C.ar    1  <O>11      -0.0301
   6 C4        3.1346    -2.3172    -0.2131  C.ar    1  <O>11      -0.0544
   7 C5        1.8080    -2.3140     0.2314  C.ar    1  <O>11      -0.0261
   8 C6        0.7945    -1.7955    -0.5791  C.ar    1  <O>11       0.1234
   9 F1       -0.5075    -1.7922    -0.1495  F       1  <O>11      -0.2055
  10 C7        1.1177    -1.2771    -1.8380  C.ar    1  <O>11      -0.0261
  11 C8        2.4388    -1.2746    -2.2907  C.ar    1  <O>11      -0.0544
  12 C9        7.4210     0.9530    -1.6660  C.ar    1  <O>11       0.1535
  13 N2        6.8899     1.5848    -0.5915  N.ar    1  <O>11      -0.1626
  14 N3        7.3813     2.7907    -0.2228  N.ar    1  <O>11      -0.2239
  15 C10       6.8285     3.4880     0.9105  C.3     1  <O>11       0.0703
  16 C11       7.8523     3.5785     1.9838  C.ar    1  <O>11      -0.0260
  17 C12       7.4671     3.8223     3.3133  C.ar    1  <O>11      -0.0568
  18 C13       8.4331     3.9193     4.3203  C.ar    1  <O>11      -0.0614
  19 C14       9.7879     3.7710     4.0123  C.ar    1  <O>11      -0.0617
  20 C15      10.1704     3.5218     2.6898  C.ar    1  <O>11      -0.0614
  21 C16       9.2133     3.4200     1.6777  C.ar    1  <O>11      -0.0568
  22 C17       8.3994     3.3317    -0.9323  C.ar    1  <O>11       0.2753
  23 O2        8.7986     4.6287    -0.5578  O.2     1  <O>11      -0.2655
  24 C18       9.0500     2.6760    -1.9877  C.ar    1  <O>11       0.0503
  25 C19      10.1510     3.2131    -2.6937  C.ar    1  <O>11      -0.0487
  26 C20      10.7325     2.5211    -3.7556  C.ar    1  <O>11      -0.0610
  27 C21      10.2221     1.2856    -4.1387  C.ar    1  <O>11      -0.0611
  28 C22       9.1304     0.7430    -3.4589  C.ar    1  <O>11      -0.0516
  29 C23       8.5348     1.4266    -2.3743  C.ar    1  <O>11       0.0195
  30 H1        5.0690     0.0560    -0.9090  H       1  <O>11       0.1494
  31 H2        5.3876    -2.6685    -1.5217  H       1  <O>11       0.0512
  32 H3        4.8776    -1.9039    -3.0462  H       1  <O>11       0.0512
  33 H4        5.9584     2.9464     1.2824  H       1  <O>11       0.0560
  34 H5        6.5297     4.4926     0.6083  H       1  <O>11       0.0560
  35 H6        3.8787    -2.6984     0.3918  H       1  <O>11       0.0622
  36 H7        1.5769    -2.6961     1.1617  H       1  <O>11       0.0646
  37 H8        0.3717    -0.8925    -2.4385  H       1  <O>11       0.0646
  38 H9        2.6663    -0.8851    -3.2189  H       1  <O>11       0.0622
  39 H10       6.4679     3.9301     3.5475  H       1  <O>11       0.0621
  40 H11       8.1442     4.1010     5.2943  H       1  <O>11       0.0618
  41 H12      10.5010     3.8449     4.7546  H       1  <O>11       0.0618
  42 H13      11.1704     3.4121     2.4597  H       1  <O>11       0.0618
  43 H14       9.5060     3.2285     0.7067  H       1  <O>11       0.0621
  44 H15      10.5305     4.1326    -2.4187  H       1  <O>11       0.0625
  45 H16      11.5397     2.9249    -4.2559  H       1  <O>11       0.0618
  46 H17      10.6497     0.7708    -4.9243  H       1  <O>11       0.0618
  47 H18       8.7522    -0.1712    -3.7526  H       1  <O>11       0.0624
@<TRIPOS>BOND
     1     1     2    2
     2     2     3   am
     3     3     4    1
     4     4     5    1
     5     5     6   ar
     6     6     7   ar
     7     7     8   ar
     8     8     9    1
     9     8    10   ar
    10    10    11   ar
    11     5    11   ar
    12     2    12    1
    13    12    13   ar
    14    13    14   ar
    15    14    15    1
    16    15    16    1
    17    16    17   ar
    18    17    18   ar
    19    18    19   ar
    20    19    20   ar
    21    20    21   ar
    22    16    21   ar
    23    14    22   ar
    24    22    23    2
    25    22    24   ar
    26    24    25   ar
    27    25    26   ar
    28    26    27   ar
    29    27    28   ar
    30    28    29   ar
    31    12    29   ar
    32    24    29   ar
    33     3    30    1
    34     4    31    1
    35     4    32    1
    36    15    33    1
    37    15    34    1
    38     6    35    1
    39     7    36    1
    40    10    37    1
    41    11    38    1
    42    17    39    1
    43    18    40    1
    44    19    41    1
    45    20    42    1
    46    21    43    1
    47    25    44    1
    48    26    45    1
    49    27    46    1
    50    28    47    1
@<TRIPOS>MOLECULE
mol24_1_24
 47 50 0 0 0
SMALL
USER_CHARGES
****
VDW energy = 61.42
@<TRIPOS>ATOM
   1 O1        7.3129    -1.0371    -2.8426  O.2     1  <O>11      -0.2684
   2 C1        6.7640    -0.2742    -2.0616  C.2     1  <O>11       0.2650
   3 N1        5.5270    -0.5800    -1.5610  N.am    1  <O>11      -0.3059
   4 C2        4.8640    -1.8180    -1.9600  C.3     1  <O>11       0.0372
   5 C3        5.7064    -2.9786    -1.5702  C.ar    1  <O>11      -0.0301
   6 C4        6.0361    -3.1937    -0.2207  C.ar    1  <O>11      -0.0544
   7 C5        6.8399    -4.2795     0.1435  C.ar    1  <O>11      -0.0261
   8 C6        7.3170    -5.1609    -0.8303  C.ar    1  <O>11       0.1234
   9 F1        8.1070    -6.2250    -0.4794  F       1  <O>11      -0.2055
  10 C7        6.9822    -4.9501    -2.1726  C.ar    1  <O>11      -0.0261
  11 C8        6.1798    -3.8700    -2.5465  C.ar    1  <O>11      -0.0544
  12 C9        7.4210     0.9530    -1.6660  C.ar    1  <O>11       0.1535
  13 N2        6.8899     1.5848    -0.5915  N.ar    1  <O>11      -0.1626
  14 N3        7.3813     2.7907    -0.2228  N.ar    1  <O>11      -0.2239
  15 C10       6.8285     3.4880     0.9105  C.3     1  <O>11       0.0703
  16 C11       7.8523     3.5785     1.9838  C.ar    1  <O>11      -0.0260
  17 C12       7.4671     3.8223     3.3133  C.ar    1  <O>11      -0.0568
  18 C13       8.4331     3.9193     4.3203  C.ar    1  <O>11      -0.0614
  19 C14       9.7879     3.7710     4.0123  C.ar    1  <O>11      -0.0617
  20 C15      10.1704     3.5218     2.6898  C.ar    1  <O>11      -0.0614
  21 C16       9.2133     3.4200     1.6777  C.ar    1  <O>11      -0.0568
  22 C17       8.3994     3.3317    -0.9323  C.ar    1  <O>11       0.2753
  23 O2        8.7986     4.6287    -0.5578  O.2     1  <O>11      -0.2655
  24 C18       9.0500     2.6760    -1.9877  C.ar    1  <O>11       0.0503
  25 C19      10.1510     3.2131    -2.6937  C.ar    1  <O>11      -0.0487
  26 C20      10.7325     2.5211    -3.7556  C.ar    1  <O>11      -0.0610
  27 C21      10.2221     1.2856    -4.1387  C.ar    1  <O>11      -0.0611
  28 C22       9.1304     0.7430    -3.4589  C.ar    1  <O>11      -0.0516
  29 C23       8.5348     1.4266    -2.3743  C.ar    1  <O>11       0.0195
  30 H1        5.0690     0.0560    -0.9090  H       1  <O>11       0.1494
  31 H2        4.7196    -1.8211    -3.0411  H       1  <O>11       0.0512
  32 H3        3.8961    -1.8882    -1.4643  H       1  <O>11       0.0512
  33 H4        5.9584     2.9464     1.2824  H       1  <O>11       0.0560
  34 H5        6.5297     4.4926     0.6083  H       1  <O>11       0.0560
  35 H6        5.6842    -2.5486     0.5038  H       1  <O>11       0.0622
  36 H7        7.0813    -4.4302     1.1354  H       1  <O>11       0.0646
  37 H8        7.3321    -5.5998    -2.8940  H       1  <O>11       0.0646
  38 H9        5.9351    -3.7272    -3.5389  H       1  <O>11       0.0622
  39 H10       6.4679     3.9301     3.5475  H       1  <O>11       0.0621
  40 H11       8.1442     4.1010     5.2943  H       1  <O>11       0.0618
  41 H12      10.5010     3.8449     4.7546  H       1  <O>11       0.0618
  42 H13      11.1704     3.4121     2.4597  H       1  <O>11       0.0618
  43 H14       9.5060     3.2285     0.7067  H       1  <O>11       0.0621
  44 H15      10.5305     4.1326    -2.4187  H       1  <O>11       0.0625
  45 H16      11.5397     2.9249    -4.2559  H       1  <O>11       0.0618
  46 H17      10.6497     0.7708    -4.9243  H       1  <O>11       0.0618
  47 H18       8.7522    -0.1712    -3.7526  H       1  <O>11       0.0624
@<TRIPOS>BOND
     1     1     2    2
     2     2     3   am
     3     3     4    1
     4     4     5    1
     5     5     6   ar
     6     6     7   ar
     7     7     8   ar
     8     8     9    1
     9     8    10   ar
    10    10    11   ar
    11     5    11   ar
    12     2    12    1
    13    12    13   ar
    14    13    14   ar
    15    14    15    1
    16    15    16    1
    17    16    17   ar
    18    17    18   ar
    19    18    19   ar
    20    19    20   ar
    21    20    21   ar
    22    16    21   ar
    23    14    22   ar
    24    22    23    2
    25    22    24   ar
    26    24    25   ar
    27    25    26   ar
    28    26    27   ar
    29    27    28   ar
    30    28    29   ar
    31    12    29   ar
    32    24    29   ar
    33     3    30    1
    34     4    31    1
    35     4    32    1
    36    15    33    1
    37    15    34    1
    38     6    35    1
    39     7    36    1
    40    10    37    1
    41    11    38    1
    42    17    39    1
    43    18    40    1
    44    19    41    1
    45    20    42    1
    46    21    43    1
    47    25    44    1
    48    26    45    1
    49    27    46    1
    50    28    47    1
@<TRIPOS>MOLECULE
mol24_1_25
 47 50 0 0 0
SMALL
USER_CHARGES
****
VDW energy = 61.63
@<TRIPOS>ATOM
   1 O1        7.3129    -1.0371    -2.8426  O.2     1  <O>11      -0.2684
   2 C1        6.7640    -0.2742    -2.0616  C.2     1  <O>11       0.2650
   3 N1        5.5270    -0.5800    -1.5610  N.am    1  <O>11      -0.3059
   4 C2        4.8640    -1.8180    -1.9600  C.3     1  <O>11       0.0372
   5 C3        3.4572    -1.8029    -1.4810  C.ar    1  <O>11      -0.0301
   6 C4        2.5740    -0.7959    -1.9077  C.ar    1  <O>11      -0.0544
   7 C5        1.2534    -0.7755    -1.4460  C.ar    1  <O>11      -0.0261
   8 C6        0.8010    -1.7580    -0.5612  C.ar    1  <O>11       0.1234
   9 F1       -0.4913    -1.7413    -0.1037  F       1  <O>11      -0.2055
  10 C7        1.6789    -2.7641    -0.1428  C.ar    1  <O>11      -0.0261
  11 C8        2.9986    -2.7942    -0.5986  C.ar    1  <O>11      -0.0544
  12 C9        7.4210     0.9530    -1.6660  C.ar    1  <O>11       0.1535
  13 N2        6.8899     1.5848    -0.5915  N.ar    1  <O>11      -0.1626
  14 N3        7.3813     2.7907    -0.2228  N.ar    1  <O>11      -0.2239
  15 C10       6.8285     3.4880     0.9105  C.3     1  <O>11       0.0703
  16 C11       7.8523     3.5785     1.9838  C.ar    1  <O>11      -0.0260
  17 C12       7.4671     3.8223     3.3133  C.ar    1  <O>11      -0.0568
  18 C13       8.4331     3.9193     4.3203  C.ar    1  <O>11      -0.0614
  19 C14       9.7879     3.7710     4.0123  C.ar    1  <O>11      -0.0617
  20 C15      10.1704     3.5218     2.6898  C.ar    1  <O>11      -0.0614
  21 C16       9.2133     3.4200     1.6777  C.ar    1  <O>11      -0.0568
  22 C17       8.3994     3.3317    -0.9323  C.ar    1  <O>11       0.2753
  23 O2        8.7986     4.6287    -0.5578  O.2     1  <O>11      -0.2655
  24 C18       9.0500     2.6760    -1.9877  C.ar    1  <O>11       0.0503
  25 C19      10.1510     3.2131    -2.6937  C.ar    1  <O>11      -0.0487
  26 C20      10.7325     2.5211    -3.7556  C.ar    1  <O>11      -0.0610
  27 C21      10.2221     1.2856    -4.1387  C.ar    1  <O>11      -0.0611
  28 C22       9.1304     0.7430    -3.4589  C.ar    1  <O>11      -0.0516
  29 C23       8.5348     1.4266    -2.3743  C.ar    1  <O>11       0.0195
  30 H1        5.0690     0.0560    -0.9090  H       1  <O>11       0.1494
  31 H2        5.3876    -2.6685    -1.5217  H       1  <O>11       0.0512
  32 H3        4.8776    -1.9039    -3.0462  H       1  <O>11       0.0512
  33 H4        5.9584     2.9464     1.2824  H       1  <O>11       0.0560
  34 H5        6.5297     4.4926     0.6083  H       1  <O>11       0.0560
  35 H6        2.9007    -0.0693    -2.5637  H       1  <O>11       0.0622
  36 H7        0.6107    -0.0317    -1.7601  H       1  <O>11       0.0646
  37 H8        1.3475    -3.4918     0.5096  H       1  <O>11       0.0646
  38 H9        3.6359    -3.5439    -0.2872  H       1  <O>11       0.0622
  39 H10       6.4679     3.9301     3.5475  H       1  <O>11       0.0621
  40 H11       8.1442     4.1010     5.2943  H       1  <O>11       0.0618
  41 H12      10.5010     3.8449     4.7546  H       1  <O>11       0.0618
  42 H13      11.1704     3.4121     2.4597  H       1  <O>11       0.0618
  43 H14       9.5060     3.2285     0.7067  H       1  <O>11       0.0621
  44 H15      10.5305     4.1326    -2.4187  H       1  <O>11       0.0625
  45 H16      11.5397     2.9249    -4.2559  H       1  <O>11       0.0618
  46 H17      10.6497     0.7708    -4.9243  H       1  <O>11       0.0618
  47 H18       8.7522    -0.1712    -3.7526  H       1  <O>11       0.0624
@<TRIPOS>BOND
     1     1     2    2
     2     2     3   am
     3     3     4    1
     4     4     5    1
     5     5     6   ar
     6     6     7   ar
     7     7     8   ar
     8     8     9    1
     9     8    10   ar
    10    10    11   ar
    11     5    11   ar
    12     2    12    1
    13    12    13   ar
    14    13    14   ar
    15    14    15    1
    16    15    16    1
    17    16    17   ar
    18    17    18   ar
    19    18    19   ar
    20    19    20   ar
    21    20    21   ar
    22    16    21   ar
    23    14    22   ar
    24    22    23    2
    25    22    24   ar
    26    24    25   ar
    27    25    26   ar
    28    26    27   ar
    29    27    28   ar
    30    28    29   ar
    31    12    29   ar
    32    24    29   ar
    33     3    30    1
    34     4    31    1
    35     4    32    1
    36    15    33    1
    37    15    34    1
    38     6    35    1
    39     7    36    1
    40    10    37    1
    41    11    38    1
    42    17    39    1
    43    18    40    1
    44    19    41    1
    45    20    42    1
    46    21    43    1
    47    25    44    1
    48    26    45    1
    49    27    46    1
    50    28    47    1
@<TRIPOS>MOLECULE
mol24_1_26
 47 50 0 0 0
SMALL
USER_CHARGES
****
VDW energy = 62.68
@<TRIPOS>ATOM
   1 O1        7.3129    -1.0371    -2.8426  O.2     1  <O>11      -0.2684
   2 C1        6.7640    -0.2742    -2.0616  C.2     1  <O>11       0.2650
   3 N1        5.5270    -0.5800    -1.5610  N.am    1  <O>11      -0.3059
   4 C2        4.8640    -1.8180    -1.9600  C.3     1  <O>11       0.0372
   5 C3        5.7064    -2.9786    -1.5702  C.ar    1  <O>11      -0.0301
   6 C4        5.8182    -4.0912    -2.4222  C.ar    1  <O>11      -0.0544
   7 C5        6.6014    -5.1886    -2.0482  C.ar    1  <O>11      -0.0261
   8 C6        7.2821    -5.1854    -0.8278  C.ar    1  <O>11       0.1234
   9 F1        8.0489    -6.2591    -0.4553  F       1  <O>11      -0.2055
  10 C7        7.1760    -4.0744     0.0163  C.ar    1  <O>11      -0.0261
  11 C8        6.3977    -2.9735    -0.3480  C.ar    1  <O>11      -0.0544
  12 C9        7.4210     0.9530    -1.6660  C.ar    1  <O>11       0.1535
  13 N2        6.8899     1.5848    -0.5915  N.ar    1  <O>11      -0.1626
  14 N3        7.3813     2.7907    -0.2228  N.ar    1  <O>11      -0.2239
  15 C10       6.8285     3.4880     0.9105  C.3     1  <O>11       0.0703
  16 C11       7.8523     3.5785     1.9838  C.ar    1  <O>11      -0.0260
  17 C12       7.4671     3.8223     3.3133  C.ar    1  <O>11      -0.0568
  18 C13       8.4331     3.9193     4.3203  C.ar    1  <O>11      -0.0614
  19 C14       9.7879     3.7710     4.0123  C.ar    1  <O>11      -0.0617
  20 C15      10.1704     3.5218     2.6898  C.ar    1  <O>11      -0.0614
  21 C16       9.2133     3.4200     1.6777  C.ar    1  <O>11      -0.0568
  22 C17       8.3994     3.3317    -0.9323  C.ar    1  <O>11       0.2753
  23 O2        8.7986     4.6287    -0.5578  O.2     1  <O>11      -0.2655
  24 C18       9.0500     2.6760    -1.9877  C.ar    1  <O>11       0.0503
  25 C19      10.1510     3.2131    -2.6937  C.ar    1  <O>11      -0.0487
  26 C20      10.7325     2.5211    -3.7556  C.ar    1  <O>11      -0.0610
  27 C21      10.2221     1.2856    -4.1387  C.ar    1  <O>11      -0.0611
  28 C22       9.1304     0.7430    -3.4589  C.ar    1  <O>11      -0.0516
  29 C23       8.5348     1.4266    -2.3743  C.ar    1  <O>11       0.0195
  30 H1        5.0690     0.0560    -0.9090  H       1  <O>11       0.1494
  31 H2        4.7196    -1.8211    -3.0411  H       1  <O>11       0.0512
  32 H3        3.8961    -1.8882    -1.4643  H       1  <O>11       0.0512
  33 H4        5.9584     2.9464     1.2824  H       1  <O>11       0.0560
  34 H5        6.5297     4.4926     0.6083  H       1  <O>11       0.0560
  35 H6        5.3209    -4.0986    -3.3264  H       1  <O>11       0.0622
  36 H7        6.6768    -6.0039    -2.6764  H       1  <O>11       0.0646
  37 H8        7.6783    -4.0685     0.9178  H       1  <O>11       0.0646
  38 H9        6.3309    -2.1574     0.2802  H       1  <O>11       0.0622
  39 H10       6.4679     3.9301     3.5475  H       1  <O>11       0.0621
  40 H11       8.1442     4.1010     5.2943  H       1  <O>11       0.0618
  41 H12      10.5010     3.8449     4.7546  H       1  <O>11       0.0618
  42 H13      11.1704     3.4121     2.4597  H       1  <O>11       0.0618
  43 H14       9.5060     3.2285     0.7067  H       1  <O>11       0.0621
  44 H15      10.5305     4.1326    -2.4187  H       1  <O>11       0.0625
  45 H16      11.5397     2.9249    -4.2559  H       1  <O>11       0.0618
  46 H17      10.6497     0.7708    -4.9243  H       1  <O>11       0.0618
  47 H18       8.7522    -0.1712    -3.7526  H       1  <O>11       0.0624
@<TRIPOS>BOND
     1     1     2    2
     2     2     3   am
     3     3     4    1
     4     4     5    1
     5     5     6   ar
     6     6     7   ar
     7     7     8   ar
     8     8     9    1
     9     8    10   ar
    10    10    11   ar
    11     5    11   ar
    12     2    12    1
    13    12    13   ar
    14    13    14   ar
    15    14    15    1
    16    15    16    1
    17    16    17   ar
    18    17    18   ar
    19    18    19   ar
    20    19    20   ar
    21    20    21   ar
    22    16    21   ar
    23    14    22   ar
    24    22    23    2
    25    22    24   ar
    26    24    25   ar
    27    25    26   ar
    28    26    27   ar
    29    27    28   ar
    30    28    29   ar
    31    12    29   ar
    32    24    29   ar
    33     3    30    1
    34     4    31    1
    35     4    32    1
    36    15    33    1
    37    15    34    1
    38     6    35    1
    39     7    36    1
    40    10    37    1
    41    11    38    1
    42    17    39    1
    43    18    40    1
    44    19    41    1
    45    20    42    1
    46    21    43    1
    47    25    44    1
    48    26    45    1
    49    27    46    1
    50    28    47    1
@<TRIPOS>MOLECULE
mol24_1_27
 47 50 0 0 0
SMALL
USER_CHARGES
****
VDW energy = 63.58
@<TRIPOS>ATOM
   1 O1        7.3129    -1.0371    -2.8426  O.2     1  <O>11      -0.2684
   2 C1        6.7640    -0.2742    -2.0616  C.2     1  <O>11       0.2650
   3 N1        5.5270    -0.5800    -1.5610  N.am    1  <O>11      -0.3059
   4 C2        4.8640    -1.8180    -1.9600  C.3     1  <O>11       0.0372
   5 C3        3.4572    -1.8029    -1.4810  C.ar    1  <O>11      -0.0301
   6 C4        2.8667    -2.9757    -0.9791  C.ar    1  <O>11      -0.0544
   7 C5        1.5382    -2.9631    -0.5403  C.ar    1  <O>11      -0.0261
   8 C6        0.7898    -1.7841    -0.5932  C.ar    1  <O>11       0.1234
   9 F1       -0.5131    -1.7667    -0.1670  F       1  <O>11      -0.2055
  10 C7        1.3808    -0.6155    -1.0862  C.ar    1  <O>11      -0.0261
  11 C8        2.7064    -0.6171    -1.5256  C.ar    1  <O>11      -0.0544
  12 C9        7.4210     0.9530    -1.6660  C.ar    1  <O>11       0.1535
  13 N2        6.8899     1.5848    -0.5915  N.ar    1  <O>11      -0.1626
  14 N3        7.3813     2.7907    -0.2228  N.ar    1  <O>11      -0.2239
  15 C10       6.8285     3.4880     0.9105  C.3     1  <O>11       0.0703
  16 C11       7.8523     3.5785     1.9838  C.ar    1  <O>11      -0.0260
  17 C12       7.4671     3.8223     3.3133  C.ar    1  <O>11      -0.0568
  18 C13       8.4331     3.9193     4.3203  C.ar    1  <O>11      -0.0614
  19 C14       9.7879     3.7710     4.0123  C.ar    1  <O>11      -0.0617
  20 C15      10.1704     3.5218     2.6898  C.ar    1  <O>11      -0.0614
  21 C16       9.2133     3.4200     1.6777  C.ar    1  <O>11      -0.0568
  22 C17       8.3994     3.3317    -0.9323  C.ar    1  <O>11       0.2753
  23 O2        8.7986     4.6287    -0.5578  O.2     1  <O>11      -0.2655
  24 C18       9.0500     2.6760    -1.9877  C.ar    1  <O>11       0.0503
  25 C19      10.1510     3.2131    -2.6937  C.ar    1  <O>11      -0.0487
  26 C20      10.7325     2.5211    -3.7556  C.ar    1  <O>11      -0.0610
  27 C21      10.2221     1.2856    -4.1387  C.ar    1  <O>11      -0.0611
  28 C22       9.1304     0.7430    -3.4589  C.ar    1  <O>11      -0.0516
  29 C23       8.5348     1.4266    -2.3743  C.ar    1  <O>11       0.0195
  30 H1        5.0690     0.0560    -0.9090  H       1  <O>11       0.1494
  31 H2        5.3876    -2.6685    -1.5217  H       1  <O>11       0.0512
  32 H3        4.8776    -1.9039    -3.0462  H       1  <O>11       0.0512
  33 H4        5.9584     2.9464     1.2824  H       1  <O>11       0.0560
  34 H5        6.5297     4.4926     0.6083  H       1  <O>11       0.0560
  35 H6        3.4149    -3.8489    -0.9341  H       1  <O>11       0.0622
  36 H7        1.1092    -3.8281    -0.1761  H       1  <O>11       0.0646
  37 H8        0.8311     0.2571    -1.1256  H       1  <O>11       0.0646
  38 H9        3.1335     0.2520    -1.8826  H       1  <O>11       0.0622
  39 H10       6.4679     3.9301     3.5475  H       1  <O>11       0.0621
  40 H11       8.1442     4.1010     5.2943  H       1  <O>11       0.0618
  41 H12      10.5010     3.8449     4.7546  H       1  <O>11       0.0618
  42 H13      11.1704     3.4121     2.4597  H       1  <O>11       0.0618
  43 H14       9.5060     3.2285     0.7067  H       1  <O>11       0.0621
  44 H15      10.5305     4.1326    -2.4187  H       1  <O>11       0.0625
  45 H16      11.5397     2.9249    -4.2559  H       1  <O>11       0.0618
  46 H17      10.6497     0.7708    -4.9243  H       1  <O>11       0.0618
  47 H18       8.7522    -0.1712    -3.7526  H       1  <O>11       0.0624
@<TRIPOS>BOND
     1     1     2    2
     2     2     3   am
     3     3     4    1
     4     4     5    1
     5     5     6   ar
     6     6     7   ar
     7     7     8   ar
     8     8     9    1
     9     8    10   ar
    10    10    11   ar
    11     5    11   ar
    12     2    12    1
    13    12    13   ar
    14    13    14   ar
    15    14    15    1
    16    15    16    1
    17    16    17   ar
    18    17    18   ar
    19    18    19   ar
    20    19    20   ar
    21    20    21   ar
    22    16    21   ar
    23    14    22   ar
    24    22    23    2
    25    22    24   ar
    26    24    25   ar
    27    25    26   ar
    28    26    27   ar
    29    27    28   ar
    30    28    29   ar
    31    12    29   ar
    32    24    29   ar
    33     3    30    1
    34     4    31    1
    35     4    32    1
    36    15    33    1
    37    15    34    1
    38     6    35    1
    39     7    36    1
    40    10    37    1
    41    11    38    1
    42    17    39    1
    43    18    40    1
    44    19    41    1
    45    20    42    1
    46    21    43    1
    47    25    44    1
    48    26    45    1
    49    27    46    1
    50    28    47    1
@<TRIPOS>MOLECULE
mol24_1_28
 47 50 0 0 0
SMALL
USER_CHARGES
****
VDW energy = 63.86
@<TRIPOS>ATOM
   1 O1        7.3129    -1.0371    -2.8426  O.2     1  <O>11      -0.2684
   2 C1        6.7640    -0.2742    -2.0616  C.2     1  <O>11       0.2650
   3 N1        5.5270    -0.5800    -1.5610  N.am    1  <O>11      -0.3059
   4 C2        4.8640    -1.8180    -1.9600  C.3     1  <O>11       0.0372
   5 C3        5.7064    -2.9786    -1.5702  C.ar    1  <O>11      -0.0301
   6 C4        5.5470    -3.5783    -0.3088  C.ar    1  <O>11      -0.0544
   7 C5        6.3495    -4.6628     0.0618  C.ar    1  <O>11      -0.0261
   8 C6        7.3120    -5.1611    -0.8203  C.ar    1  <O>11       0.1234
   9 F1        8.1028    -6.2220    -0.4613  F       1  <O>11      -0.2055
  10 C7        7.4649    -4.5682    -2.0785  C.ar    1  <O>11      -0.0261
  11 C8        6.6683    -3.4859    -2.4586  C.ar    1  <O>11      -0.0544
  12 C9        7.4210     0.9530    -1.6660  C.ar    1  <O>11       0.1535
  13 N2        8.0873     1.6067    -2.6480  N.ar    1  <O>11      -0.1626
  14 N3        8.8141     2.7052    -2.3372  N.ar    1  <O>11      -0.2239
  15 C10       9.5394     3.4137    -3.3611  C.3     1  <O>11       0.0703
  16 C11       8.9536     4.7682    -3.5357  C.ar    1  <O>11      -0.0260
  17 C12       9.1819     5.4932    -4.7179  C.ar    1  <O>11      -0.0568
  18 C13       8.6398     6.7730    -4.8756  C.ar    1  <O>11      -0.0614
  19 C14       7.8644     7.3386    -3.8601  C.ar    1  <O>11      -0.0617
  20 C15       7.6318     6.6139    -2.6862  C.ar    1  <O>11      -0.0614
  21 C16       8.1659     5.3340    -2.5205  C.ar    1  <O>11      -0.0568
  22 C17       8.8491     3.1296    -1.0522  C.ar    1  <O>11       0.2753
  23 O2        9.6995     4.2177    -0.7791  O.2     1  <O>11      -0.2655
  24 C18       8.0992     2.5502    -0.0184  C.ar    1  <O>11       0.0503
  25 C19       8.0882     3.0258     1.3132  C.ar    1  <O>11      -0.0487
  26 C20       7.3434     2.3830     2.3014  C.ar    1  <O>11      -0.0610
  27 C21       6.6030     1.2498     1.9828  C.ar    1  <O>11      -0.0611
  28 C22       6.6080     0.7607     0.6755  C.ar    1  <O>11      -0.0516
  29 C23       7.3498     1.4054    -0.3405  C.ar    1  <O>11       0.0195
  30 H1        5.0690     0.0560    -0.9090  H       1  <O>11       0.1494
  31 H2        4.7196    -1.8211    -3.0411  H       1  <O>11       0.0512
  32 H3        3.8961    -1.8882    -1.4643  H       1  <O>11       0.0512
  33 H4        9.4728     2.8646    -4.3007  H       1  <O>11       0.0560
  34 H5       10.5857     3.5059    -3.0671  H       1  <O>11       0.0560
  35 H6        4.8357    -3.2174     0.3460  H       1  <O>11       0.0622
  36 H7        6.2301    -5.0966     0.9905  H       1  <O>11       0.0646
  37 H8        8.1741    -4.9346    -2.7326  H       1  <O>11       0.0646
  38 H9        6.7863    -3.0597    -3.3911  H       1  <O>11       0.0622
  39 H10       9.7517     5.0798    -5.4725  H       1  <O>11       0.0621
  40 H11       8.8132     7.3014    -5.7450  H       1  <O>11       0.0618
  41 H12       7.4663     8.2837    -3.9752  H       1  <O>11       0.0618
  42 H13       7.0596     7.0295    -1.9347  H       1  <O>11       0.0618
  43 H14       7.9820     4.8053    -1.6535  H       1  <O>11       0.0621
  44 H15       8.6406     3.8625     1.5578  H       1  <O>11       0.0625
  45 H16       7.3416     2.7473     3.2669  H       1  <O>11       0.0618
  46 H17       6.0509     0.7713     2.7117  H       1  <O>11       0.0618
  47 H18       6.0618    -0.0847     0.4472  H       1  <O>11       0.0624
@<TRIPOS>BOND
     1     1     2    2
     2     2     3   am
     3     3     4    1
     4     4     5    1
     5     5     6   ar
     6     6     7   ar
     7     7     8   ar
     8     8     9    1
     9     8    10   ar
    10    10    11   ar
    11     5    11   ar
    12     2    12    1
    13    12    13   ar
    14    13    14   ar
    15    14    15    1
    16    15    16    1
    17    16    17   ar
    18    17    18   ar
    19    18    19   ar
    20    19    20   ar
    21    20    21   ar
    22    16    21   ar
    23    14    22   ar
    24    22    23    2
    25    22    24   ar
    26    24    25   ar
    27    25    26   ar
    28    26    27   ar
    29    27    28   ar
    30    28    29   ar
    31    12    29   ar
    32    24    29   ar
    33     3    30    1
    34     4    31    1
    35     4    32    1
    36    15    33    1
    37    15    34    1
    38     6    35    1
    39     7    36    1
    40    10    37    1
    41    11    38    1
    42    17    39    1
    43    18    40    1
    44    19    41    1
    45    20    42    1
    46    21    43    1
    47    25    44    1
    48    26    45    1
    49    27    46    1
    50    28    47    1
@<TRIPOS>MOLECULE
mol24_1_29
 47 50 0 0 0
SMALL
USER_CHARGES
****
VDW energy = 64.23
@<TRIPOS>ATOM
   1 O1        7.3129    -1.0371    -2.8426  O.2     1  <O>11      -0.2684
   2 C1        6.7640    -0.2742    -2.0616  C.2     1  <O>11       0.2650
   3 N1        5.5270    -0.5800    -1.5610  N.am    1  <O>11      -0.3059
   4 C2        4.8714     0.3320    -0.6284  C.3     1  <O>11       0.0372
   5 C3        3.6708    -0.3277    -0.0522  C.ar    1  <O>11      -0.0301
   6 C4        3.8002    -1.5210     0.6795  C.ar    1  <O>11      -0.0544
   7 C5        2.6677    -2.1478     1.2106  C.ar    1  <O>11      -0.0261
   8 C6        1.4002    -1.5905     1.0219  C.ar    1  <O>11       0.1234
   9 F1        0.2869    -2.2018     1.5379  F       1  <O>11      -0.2055
  10 C7        1.2732    -0.3988     0.2996  C.ar    1  <O>11      -0.0261
  11 C8        2.3973     0.2355    -0.2337  C.ar    1  <O>11      -0.0544
  12 C9        7.4210     0.9530    -1.6660  C.ar    1  <O>11       0.1535
  13 N2        6.8899     1.5848    -0.5915  N.ar    1  <O>11      -0.1626
  14 N3        7.3813     2.7907    -0.2228  N.ar    1  <O>11      -0.2239
  15 C10       6.8285     3.4880     0.9105  C.3     1  <O>11       0.0703
  16 C11       6.1678     4.7368     0.4496  C.ar    1  <O>11      -0.0260
  17 C12       5.9241     5.7857     1.3528  C.ar    1  <O>11      -0.0568
  18 C13       5.2911     6.9556     0.9198  C.ar    1  <O>11      -0.0614
  19 C14       4.8995     7.0911    -0.4146  C.ar    1  <O>11      -0.0617
  20 C15       5.1482     6.0494    -1.3147  C.ar    1  <O>11      -0.0614
  21 C16       5.7826     4.8787    -0.8930  C.ar    1  <O>11      -0.0568
  22 C17       8.3994     3.3317    -0.9323  C.ar    1  <O>11       0.2753
  23 O2        8.7986     4.6287    -0.5578  O.2     1  <O>11      -0.2655
  24 C18       9.0500     2.6760    -1.9877  C.ar    1  <O>11       0.0503
  25 C19      10.1510     3.2131    -2.6937  C.ar    1  <O>11      -0.0487
  26 C20      10.7325     2.5211    -3.7556  C.ar    1  <O>11      -0.0610
  27 C21      10.2221     1.2856    -4.1387  C.ar    1  <O>11      -0.0611
  28 C22       9.1304     0.7430    -3.4589  C.ar    1  <O>11      -0.0516
  29 C23       8.5348     1.4266    -2.3743  C.ar    1  <O>11       0.0195
  30 H1        5.0631    -1.4439    -1.8399  H       1  <O>11       0.1494
  31 H2        4.5697     1.2374    -1.1566  H       1  <O>11       0.0512
  32 H3        5.5630     0.5923     0.1724  H       1  <O>11       0.0512
  33 H4        7.6268     3.7358     1.6105  H       1  <O>11       0.0560
  34 H5        6.0949     2.8509     1.4063  H       1  <O>11       0.0560
  35 H6        4.7338    -1.9360     0.8255  H       1  <O>11       0.0622
  36 H7        2.7688    -3.0255     1.7439  H       1  <O>11       0.0646
  37 H8        0.3386     0.0160     0.1594  H       1  <O>11       0.0646
  38 H9        2.2922     1.1167    -0.7604  H       1  <O>11       0.0622
  39 H10       6.2133     5.6926     2.3390  H       1  <O>11       0.0621
  40 H11       5.1126     7.7213     1.5884  H       1  <O>11       0.0618
  41 H12       4.4304     7.9532    -0.7337  H       1  <O>11       0.0618
  42 H13       4.8598     6.1470    -2.3007  H       1  <O>11       0.0618
  43 H14       5.9678     4.1194    -1.5670  H       1  <O>11       0.0621
  44 H15      10.5305     4.1326    -2.4187  H       1  <O>11       0.0625
  45 H16      11.5397     2.9249    -4.2559  H       1  <O>11       0.0618
  46 H17      10.6497     0.7708    -4.9243  H       1  <O>11       0.0618
  47 H18       8.7522    -0.1712    -3.7526  H       1  <O>11       0.0624
@<TRIPOS>BOND
     1     1     2    2
     2     2     3   am
     3     3     4    1
     4     4     5    1
     5     5     6   ar
     6     6     7   ar
     7     7     8   ar
     8     8     9    1
     9     8    10   ar
    10    10    11   ar
    11     5    11   ar
    12     2    12    1
    13    12    13   ar
    14    13    14   ar
    15    14    15    1
    16    15    16    1
    17    16    17   ar
    18    17    18   ar
    19    18    19   ar
    20    19    20   ar
    21    20    21   ar
    22    16    21   ar
    23    14    22   ar
    24    22    23    2
    25    22    24   ar
    26    24    25   ar
    27    25    26   ar
    28    26    27   ar
    29    27    28   ar
    30    28    29   ar
    31    12    29   ar
    32    24    29   ar
    33     3    30    1
    34     4    31    1
    35     4    32    1
    36    15    33    1
    37    15    34    1
    38     6    35    1
    39     7    36    1
    40    10    37    1
    41    11    38    1
    42    17    39    1
    43    18    40    1
    44    19    41    1
    45    20    42    1
    46    21    43    1
    47    25    44    1
    48    26    45    1
    49    27    46    1
    50    28    47    1
@<TRIPOS>MOLECULE
mol24_1_30
 47 50 0 0 0
SMALL
USER_CHARGES
****
VDW energy = 68.12
@<TRIPOS>ATOM
   1 O1        7.3129    -1.0371    -2.8426  O.2     1  <O>11      -0.2684
   2 C1        6.7640    -0.2742    -2.0616  C.2     1  <O>11       0.2650
   3 N1        5.5270    -0.5800    -1.5610  N.am    1  <O>11      -0.3059
   4 C2        4.8640    -1.8180    -1.9600  C.3     1  <O>11       0.0372
   5 C3        5.7064    -2.9786    -1.5702  C.ar    1  <O>11      -0.0301
   6 C4        5.5470    -3.5783    -0.3088  C.ar    1  <O>11      -0.0544
   7 C5        6.3495    -4.6628     0.0618  C.ar    1  <O>11      -0.0261
   8 C6        7.3120    -5.1611    -0.8203  C.ar    1  <O>11       0.1234
   9 F1        8.1028    -6.2220    -0.4613  F       1  <O>11      -0.2055
  10 C7        7.4649    -4.5682    -2.0785  C.ar    1  <O>11      -0.0261
  11 C8        6.6683    -3.4859    -2.4586  C.ar    1  <O>11      -0.0544
  12 C9        7.4210     0.9530    -1.6660  C.ar    1  <O>11       0.1535
  13 N2        6.8899     1.5848    -0.5915  N.ar    1  <O>11      -0.1626
  14 N3        7.3813     2.7907    -0.2228  N.ar    1  <O>11      -0.2239
  15 C10       6.8285     3.4880     0.9105  C.3     1  <O>11       0.0703
  16 C11       7.8523     3.5785     1.9838  C.ar    1  <O>11      -0.0260
  17 C12       7.4671     3.8223     3.3133  C.ar    1  <O>11      -0.0568
  18 C13       8.4331     3.9193     4.3203  C.ar    1  <O>11      -0.0614
  19 C14       9.7879     3.7710     4.0123  C.ar    1  <O>11      -0.0617
  20 C15      10.1704     3.5218     2.6898  C.ar    1  <O>11      -0.0614
  21 C16       9.2133     3.4200     1.6777  C.ar    1  <O>11      -0.0568
  22 C17       8.3994     3.3317    -0.9323  C.ar    1  <O>11       0.2753
  23 O2        8.7986     4.6287    -0.5578  O.2     1  <O>11      -0.2655
  24 C18       9.0500     2.6760    -1.9877  C.ar    1  <O>11       0.0503
  25 C19      10.1510     3.2131    -2.6937  C.ar    1  <O>11      -0.0487
  26 C20      10.7325     2.5211    -3.7556  C.ar    1  <O>11      -0.0610
  27 C21      10.2221     1.2856    -4.1387  C.ar    1  <O>11      -0.0611
  28 C22       9.1304     0.7430    -3.4589  C.ar    1  <O>11      -0.0516
  29 C23       8.5348     1.4266    -2.3743  C.ar    1  <O>11       0.0195
  30 H1        5.0690     0.0560    -0.9090  H       1  <O>11       0.1494
  31 H2        4.7196    -1.8211    -3.0411  H       1  <O>11       0.0512
  32 H3        3.8961    -1.8882    -1.4643  H       1  <O>11       0.0512
  33 H4        5.9584     2.9464     1.2824  H       1  <O>11       0.0560
  34 H5        6.5297     4.4926     0.6083  H       1  <O>11       0.0560
  35 H6        4.8357    -3.2174     0.3460  H       1  <O>11       0.0622
  36 H7        6.2301    -5.0966     0.9905  H       1  <O>11       0.0646
  37 H8        8.1741    -4.9346    -2.7326  H       1  <O>11       0.0646
  38 H9        6.7863    -3.0597    -3.3911  H       1  <O>11       0.0622
  39 H10       6.4679     3.9301     3.5475  H       1  <O>11       0.0621
  40 H11       8.1442     4.1010     5.2943  H       1  <O>11       0.0618
  41 H12      10.5010     3.8449     4.7546  H       1  <O>11       0.0618
  42 H13      11.1704     3.4121     2.4597  H       1  <O>11       0.0618
  43 H14       9.5060     3.2285     0.7067  H       1  <O>11       0.0621
  44 H15      10.5305     4.1326    -2.4187  H       1  <O>11       0.0625
  45 H16      11.5397     2.9249    -4.2559  H       1  <O>11       0.0618
  46 H17      10.6497     0.7708    -4.9243  H       1  <O>11       0.0618
  47 H18       8.7522    -0.1712    -3.7526  H       1  <O>11       0.0624
@<TRIPOS>BOND
     1     1     2    2
     2     2     3   am
     3     3     4    1
     4     4     5    1
     5     5     6   ar
     6     6     7   ar
     7     7     8   ar
     8     8     9    1
     9     8    10   ar
    10    10    11   ar
    11     5    11   ar
    12     2    12    1
    13    12    13   ar
    14    13    14   ar
    15    14    15    1
    16    15    16    1
    17    16    17   ar
    18    17    18   ar
    19    18    19   ar
    20    19    20   ar
    21    20    21   ar
    22    16    21   ar
    23    14    22   ar
    24    22    23    2
    25    22    24   ar
    26    24    25   ar
    27    25    26   ar
    28    26    27   ar
    29    27    28   ar
    30    28    29   ar
    31    12    29   ar
    32    24    29   ar
    33     3    30    1
    34     4    31    1
    35     4    32    1
    36    15    33    1
    37    15    34    1
    38     6    35    1
    39     7    36    1
    40    10    37    1
    41    11    38    1
    42    17    39    1
    43    18    40    1
    44    19    41    1
    45    20    42    1
    46    21    43    1
    47    25    44    1
    48    26    45    1
    49    27    46    1
    50    28    47    1
