@<TRIPOS>MOLECULE
mol22_1_1
 33 35 0 0 0
SMALL
USER_CHARGES
****
VDW energy = 99.37
@<TRIPOS>ATOM
   1 O1        1.9353    10.5561     1.1197  O.2     1  <O>11      -0.2884
   2 C1        0.9071    10.7531     1.7501  C.2     1  <O>11       0.2004
   3 C2        0.2860     9.6430     2.5310  C.3     1  <O>11       0.1551
   4 O2       -0.2014    10.1486     3.7630  O.3     1  <O>11      -0.4520
   5 C3       -0.7656     9.1404     4.4731  C.2     1  <O>11       0.3581
   6 O3       -0.7889     8.0090     4.0123  O.2     1  <O>11      -0.2432
   7 C4       -1.3209     9.3975     5.7349  C.ar    1  <O>11       0.1504
   8 N1       -0.7422     9.2754     6.9263  N.ar    1  <O>11      -0.2698
   9 N2       -1.6649     9.7515     7.8117  N.ar    1  <O>11      -0.1731
  10 C5       -2.8870    10.0115     7.1832  C.ar    1  <O>11       0.0933
  11 C6       -4.1773    10.3383     7.6527  C.ar    1  <O>11      -0.0340
  12 C7       -5.2198    10.5813     6.7302  C.ar    1  <O>11      -0.0597
  13 C8       -4.9443    10.4499     5.3584  C.ar    1  <O>11      -0.0610
  14 C9       -3.6784    10.0774     4.8913  C.ar    1  <O>11      -0.0503
  15 C10      -2.6504     9.8404     5.8182  C.ar    1  <O>11       0.0338
  16 C11       0.2870    12.0720     1.7390  C.ar    1  <O>11       0.0237
  17 C12       0.6409    13.0290     2.7042  C.ar    1  <O>11      -0.0483
  18 C13       0.0363    14.2921     2.7000  C.ar    1  <O>11      -0.0229
  19 C14      -0.9230    14.6094     1.7342  C.ar    1  <O>11       0.1584
  20 F1       -1.5221    15.8427     1.7265  F       1  <O>11      -0.2025
  21 C15      -1.2708    13.6559     0.7704  C.ar    1  <O>11       0.1591
  22 F2       -2.2110    13.9726    -0.1763  F       1  <O>11      -0.2025
  23 C16      -0.6709    12.3956     0.7646  C.ar    1  <O>11      -0.0130
  24 H1       -0.5390     9.2153     1.9612  H       1  <O>11       0.0782
  25 H2        1.0327     8.8735     2.7244  H       1  <O>11       0.0782
  26 H3        0.1689     8.9202     7.1786  H       1  <O>11       0.1892
  27 H4       -4.3589    10.3997     8.6667  H       1  <O>11       0.0639
  28 H5       -6.1617    10.8491     7.0563  H       1  <O>11       0.0618
  29 H6       -5.6966    10.6333     4.6761  H       1  <O>11       0.0618
  30 H7       -3.5029     9.9782     3.8791  H       1  <O>11       0.0625
  31 H8        1.3491    12.8004     3.4192  H       1  <O>11       0.0625
  32 H9        0.2999    14.9909     3.4122  H       1  <O>11       0.0647
  33 H10      -0.9311    11.7027     0.0454  H       1  <O>11       0.0654
@<TRIPOS>BOND
     1     1     2    2
     2     2     3    1
     3     3     4    1
     4     4     5    1
     5     5     6    2
     6     5     7    1
     7     7     8   ar
     8     8     9   ar
     9     9    10   ar
    10    10    11   ar
    11    11    12   ar
    12    12    13   ar
    13    13    14   ar
    14    14    15   ar
    15     7    15   ar
    16    10    15   ar
    17     2    16    1
    18    16    17   ar
    19    17    18   ar
    20    18    19   ar
    21    19    20    1
    22    19    21   ar
    23    21    22    1
    24    21    23   ar
    25    16    23   ar
    26     3    24    1
    27     3    25    1
    28     8    26    1
    29    11    27    1
    30    12    28    1
    31    13    29    1
    32    14    30    1
    33    17    31    1
    34    18    32    1
    35    23    33    1
@<TRIPOS>MOLECULE
mol22_1_2
 33 35 0 0 0
SMALL
USER_CHARGES
****
VDW energy = 99.57
@<TRIPOS>ATOM
   1 O1        1.9353    10.5561     1.1197  O.2     1  <O>11      -0.2884
   2 C1        0.9071    10.7531     1.7501  C.2     1  <O>11       0.2004
   3 C2        0.2860     9.6430     2.5310  C.3     1  <O>11       0.1551
   4 O2       -0.2014    10.1486     3.7630  O.3     1  <O>11      -0.4520
   5 C3       -0.7656     9.1404     4.4731  C.2     1  <O>11       0.3581
   6 O3       -0.7889     8.0090     4.0123  O.2     1  <O>11      -0.2432
   7 C4       -1.3209     9.3975     5.7349  C.ar    1  <O>11       0.1504
   8 N1       -0.7422     9.2754     6.9263  N.ar    1  <O>11      -0.2698
   9 N2       -1.6649     9.7515     7.8117  N.ar    1  <O>11      -0.1731
  10 C5       -2.8870    10.0115     7.1832  C.ar    1  <O>11       0.0933
  11 C6       -4.1773    10.3383     7.6527  C.ar    1  <O>11      -0.0340
  12 C7       -5.2198    10.5813     6.7302  C.ar    1  <O>11      -0.0597
  13 C8       -4.9443    10.4499     5.3584  C.ar    1  <O>11      -0.0610
  14 C9       -3.6784    10.0774     4.8913  C.ar    1  <O>11      -0.0503
  15 C10      -2.6504     9.8404     5.8182  C.ar    1  <O>11       0.0338
  16 C11       0.2870    12.0720     1.7390  C.ar    1  <O>11       0.0237
  17 C12      -0.5730    12.4413     0.6918  C.ar    1  <O>11      -0.0483
  18 C13      -1.1595    13.7128     0.6757  C.ar    1  <O>11      -0.0229
  19 C14      -0.8935    14.6230     1.7027  C.ar    1  <O>11       0.1584
  20 F1       -1.4609    15.8712     1.6914  F       1  <O>11      -0.2025
  21 C15      -0.0399    14.2512     2.7478  C.ar    1  <O>11       0.1591
  22 F2        0.2163    15.1469     3.7541  F       1  <O>11      -0.2025
  23 C16       0.5463    12.9848     2.7740  C.ar    1  <O>11      -0.0130
  24 H1       -0.5390     9.2153     1.9612  H       1  <O>11       0.0782
  25 H2        1.0327     8.8735     2.7244  H       1  <O>11       0.0782
  26 H3        0.1689     8.9202     7.1786  H       1  <O>11       0.1892
  27 H4       -4.3589    10.3997     8.6667  H       1  <O>11       0.0639
  28 H5       -6.1617    10.8491     7.0563  H       1  <O>11       0.0618
  29 H6       -5.6966    10.6333     4.6761  H       1  <O>11       0.0618
  30 H7       -3.5029     9.9782     3.8791  H       1  <O>11       0.0625
  31 H8       -0.7734    11.7731    -0.0687  H       1  <O>11       0.0625
  32 H9       -1.7900    13.9788    -0.0968  H       1  <O>11       0.0647
  33 H10       1.1694    12.7198     3.5529  H       1  <O>11       0.0654
@<TRIPOS>BOND
     1     1     2    2
     2     2     3    1
     3     3     4    1
     4     4     5    1
     5     5     6    2
     6     5     7    1
     7     7     8   ar
     8     8     9   ar
     9     9    10   ar
    10    10    11   ar
    11    11    12   ar
    12    12    13   ar
    13    13    14   ar
    14    14    15   ar
    15     7    15   ar
    16    10    15   ar
    17     2    16    1
    18    16    17   ar
    19    17    18   ar
    20    18    19   ar
    21    19    20    1
    22    19    21   ar
    23    21    22    1
    24    21    23   ar
    25    16    23   ar
    26     3    24    1
    27     3    25    1
    28     8    26    1
    29    11    27    1
    30    12    28    1
    31    13    29    1
    32    14    30    1
    33    17    31    1
    34    18    32    1
    35    23    33    1
@<TRIPOS>MOLECULE
mol22_1_3
 33 35 0 0 0
SMALL
USER_CHARGES
****
VDW energy = 99.88
@<TRIPOS>ATOM
   1 O1        1.9353    10.5561     1.1197  O.2     1  <O>11      -0.2884
   2 C1        0.9071    10.7531     1.7501  C.2     1  <O>11       0.2004
   3 C2        0.2860     9.6430     2.5310  C.3     1  <O>11       0.1551
   4 O2       -1.0414     9.4334     2.0781  O.3     1  <O>11      -0.4520
   5 C3       -1.6063     8.4251     2.7875  C.2     1  <O>11       0.3581
   6 O3       -0.9648     7.8598     3.6602  O.2     1  <O>11      -0.2432
   7 C4       -2.9257     8.0330     2.5187  C.ar    1  <O>11       0.1504
   8 N1       -4.0411     8.4416     3.1172  N.ar    1  <O>11      -0.2698
   9 N2       -5.0498     7.8489     2.4148  N.ar    1  <O>11      -0.1731
  10 C5       -4.5517     6.9329     1.4828  C.ar    1  <O>11       0.0933
  11 C6       -5.1492     5.9590     0.6542  C.ar    1  <O>11      -0.0340
  12 C7       -4.3477     5.1991    -0.2273  C.ar    1  <O>11      -0.0597
  13 C8       -2.9588     5.4132    -0.2225  C.ar    1  <O>11      -0.0610
  14 C9       -2.3574     6.3432     0.6336  C.ar    1  <O>11      -0.0503
  15 C10      -3.1653     7.0933     1.5036  C.ar    1  <O>11       0.0338
  16 C11       0.2870    12.0720     1.7390  C.ar    1  <O>11       0.0237
  17 C12      -0.5730    12.4413     0.6918  C.ar    1  <O>11      -0.0483
  18 C13      -1.1595    13.7128     0.6757  C.ar    1  <O>11      -0.0229
  19 C14      -0.8935    14.6230     1.7027  C.ar    1  <O>11       0.1584
  20 F1       -1.4609    15.8712     1.6914  F       1  <O>11      -0.2025
  21 C15      -0.0399    14.2512     2.7478  C.ar    1  <O>11       0.1591
  22 F2        0.2163    15.1469     3.7541  F       1  <O>11      -0.2025
  23 C16       0.5463    12.9848     2.7740  C.ar    1  <O>11      -0.0130
  24 H1        0.8666     8.7311     2.3909  H       1  <O>11       0.0782
  25 H2        0.2715     9.9069     3.5880  H       1  <O>11       0.0782
  26 H3       -4.1727     9.0511     3.9116  H       1  <O>11       0.1892
  27 H4       -6.1686     5.8023     0.6919  H       1  <O>11       0.0639
  28 H5       -4.7724     4.5031    -0.8600  H       1  <O>11       0.0618
  29 H6       -2.3654     4.8693    -0.8683  H       1  <O>11       0.0618
  30 H7       -1.3340     6.4759     0.6255  H       1  <O>11       0.0625
  31 H8       -0.7734    11.7731    -0.0687  H       1  <O>11       0.0625
  32 H9       -1.7900    13.9788    -0.0968  H       1  <O>11       0.0647
  33 H10       1.1694    12.7198     3.5529  H       1  <O>11       0.0654
@<TRIPOS>BOND
     1     1     2    2
     2     2     3    1
     3     3     4    1
     4     4     5    1
     5     5     6    2
     6     5     7    1
     7     7     8   ar
     8     8     9   ar
     9     9    10   ar
    10    10    11   ar
    11    11    12   ar
    12    12    13   ar
    13    13    14   ar
    14    14    15   ar
    15     7    15   ar
    16    10    15   ar
    17     2    16    1
    18    16    17   ar
    19    17    18   ar
    20    18    19   ar
    21    19    20    1
    22    19    21   ar
    23    21    22    1
    24    21    23   ar
    25    16    23   ar
    26     3    24    1
    27     3    25    1
    28     8    26    1
    29    11    27    1
    30    12    28    1
    31    13    29    1
    32    14    30    1
    33    17    31    1
    34    18    32    1
    35    23    33    1
@<TRIPOS>MOLECULE
mol22_1_4
 33 35 0 0 0
SMALL
USER_CHARGES
****
VDW energy = 99.91
@<TRIPOS>ATOM
   1 O1        1.9353    10.5561     1.1197  O.2     1  <O>11      -0.2884
   2 C1        0.9071    10.7531     1.7501  C.2     1  <O>11       0.2004
   3 C2        0.2860     9.6430     2.5310  C.3     1  <O>11       0.1551
   4 O2       -1.0414     9.4334     2.0781  O.3     1  <O>11      -0.4520
   5 C3       -1.6063     8.4251     2.7875  C.2     1  <O>11       0.3581
   6 O3       -0.9648     7.8598     3.6602  O.2     1  <O>11      -0.2432
   7 C4       -2.9257     8.0330     2.5187  C.ar    1  <O>11       0.1504
   8 N1       -4.0411     8.4416     3.1172  N.ar    1  <O>11      -0.2698
   9 N2       -5.0498     7.8489     2.4148  N.ar    1  <O>11      -0.1731
  10 C5       -4.5517     6.9329     1.4828  C.ar    1  <O>11       0.0933
  11 C6       -5.1492     5.9590     0.6542  C.ar    1  <O>11      -0.0340
  12 C7       -4.3477     5.1991    -0.2273  C.ar    1  <O>11      -0.0597
  13 C8       -2.9588     5.4132    -0.2225  C.ar    1  <O>11      -0.0610
  14 C9       -2.3574     6.3432     0.6336  C.ar    1  <O>11      -0.0503
  15 C10      -3.1653     7.0933     1.5036  C.ar    1  <O>11       0.0338
  16 C11       0.2870    12.0720     1.7390  C.ar    1  <O>11       0.0237
  17 C12       0.6409    13.0290     2.7042  C.ar    1  <O>11      -0.0483
  18 C13       0.0363    14.2921     2.7000  C.ar    1  <O>11      -0.0229
  19 C14      -0.9230    14.6094     1.7342  C.ar    1  <O>11       0.1584
  20 F1       -1.5221    15.8427     1.7265  F       1  <O>11      -0.2025
  21 C15      -1.2708    13.6559     0.7704  C.ar    1  <O>11       0.1591
  22 F2       -2.2110    13.9726    -0.1763  F       1  <O>11      -0.2025
  23 C16      -0.6709    12.3956     0.7646  C.ar    1  <O>11      -0.0130
  24 H1        0.8666     8.7311     2.3909  H       1  <O>11       0.0782
  25 H2        0.2715     9.9069     3.5880  H       1  <O>11       0.0782
  26 H3       -4.1727     9.0511     3.9116  H       1  <O>11       0.1892
  27 H4       -6.1686     5.8023     0.6919  H       1  <O>11       0.0639
  28 H5       -4.7724     4.5031    -0.8600  H       1  <O>11       0.0618
  29 H6       -2.3654     4.8693    -0.8683  H       1  <O>11       0.0618
  30 H7       -1.3340     6.4759     0.6255  H       1  <O>11       0.0625
  31 H8        1.3491    12.8004     3.4192  H       1  <O>11       0.0625
  32 H9        0.2999    14.9909     3.4122  H       1  <O>11       0.0647
  33 H10      -0.9311    11.7027     0.0454  H       1  <O>11       0.0654
@<TRIPOS>BOND
     1     1     2    2
     2     2     3    1
     3     3     4    1
     4     4     5    1
     5     5     6    2
     6     5     7    1
     7     7     8   ar
     8     8     9   ar
     9     9    10   ar
    10    10    11   ar
    11    11    12   ar
    12    12    13   ar
    13    13    14   ar
    14    14    15   ar
    15     7    15   ar
    16    10    15   ar
    17     2    16    1
    18    16    17   ar
    19    17    18   ar
    20    18    19   ar
    21    19    20    1
    22    19    21   ar
    23    21    22    1
    24    21    23   ar
    25    16    23   ar
    26     3    24    1
    27     3    25    1
    28     8    26    1
    29    11    27    1
    30    12    28    1
    31    13    29    1
    32    14    30    1
    33    17    31    1
    34    18    32    1
    35    23    33    1
@<TRIPOS>MOLECULE
mol22_1_5
 33 35 0 0 0
SMALL
USER_CHARGES
****
VDW energy = 100.67
@<TRIPOS>ATOM
   1 O1        1.9353    10.5561     1.1197  O.2     1  <O>11      -0.2884
   2 C1        0.9071    10.7531     1.7501  C.2     1  <O>11       0.2004
   3 C2        0.2860     9.6430     2.5310  C.3     1  <O>11       0.1551
   4 O2       -1.0414     9.4334     2.0781  O.3     1  <O>11      -0.4520
   5 C3       -1.6063     8.4251     2.7875  C.2     1  <O>11       0.3581
   6 O3       -0.9648     7.8598     3.6602  O.2     1  <O>11      -0.2432
   7 C4       -2.9257     8.0330     2.5187  C.ar    1  <O>11       0.1504
   8 N1       -4.0411     8.4416     3.1172  N.ar    1  <O>11      -0.2698
   9 N2       -5.0498     7.8489     2.4148  N.ar    1  <O>11      -0.1731
  10 C5       -4.5517     6.9329     1.4828  C.ar    1  <O>11       0.0933
  11 C6       -5.1492     5.9590     0.6542  C.ar    1  <O>11      -0.0340
  12 C7       -4.3477     5.1991    -0.2273  C.ar    1  <O>11      -0.0597
  13 C8       -2.9588     5.4132    -0.2225  C.ar    1  <O>11      -0.0610
  14 C9       -2.3574     6.3432     0.6336  C.ar    1  <O>11      -0.0503
  15 C10      -3.1653     7.0933     1.5036  C.ar    1  <O>11       0.0338
  16 C11       0.2870    12.0720     1.7390  C.ar    1  <O>11       0.0237
  17 C12       0.1127    12.7826     2.9379  C.ar    1  <O>11      -0.0483
  18 C13      -0.4935    14.0449     2.9279  C.ar    1  <O>11      -0.0229
  19 C14      -0.9286    14.6066     1.7243  C.ar    1  <O>11       0.1584
  20 F1       -1.5268    15.8403     1.7075  F       1  <O>11      -0.2025
  21 C15      -0.7497    13.8988     0.5301  C.ar    1  <O>11       0.1591
  22 F2       -1.1764    14.4550    -0.6485  F       1  <O>11      -0.2025
  23 C16      -0.1433    12.6417     0.5298  C.ar    1  <O>11      -0.0130
  24 H1        0.8666     8.7311     2.3909  H       1  <O>11       0.0782
  25 H2        0.2715     9.9069     3.5880  H       1  <O>11       0.0782
  26 H3       -4.1727     9.0511     3.9116  H       1  <O>11       0.1892
  27 H4       -6.1686     5.8023     0.6919  H       1  <O>11       0.0639
  28 H5       -4.7724     4.5031    -0.8600  H       1  <O>11       0.0618
  29 H6       -2.3654     4.8693    -0.8683  H       1  <O>11       0.0618
  30 H7       -1.3340     6.4759     0.6255  H       1  <O>11       0.0625
  31 H8        0.4327    12.3730     3.8294  H       1  <O>11       0.0625
  32 H9       -0.6195    14.5620     3.8122  H       1  <O>11       0.0647
  33 H10      -0.0114    12.1317    -0.3576  H       1  <O>11       0.0654
@<TRIPOS>BOND
     1     1     2    2
     2     2     3    1
     3     3     4    1
     4     4     5    1
     5     5     6    2
     6     5     7    1
     7     7     8   ar
     8     8     9   ar
     9     9    10   ar
    10    10    11   ar
    11    11    12   ar
    12    12    13   ar
    13    13    14   ar
    14    14    15   ar
    15     7    15   ar
    16    10    15   ar
    17     2    16    1
    18    16    17   ar
    19    17    18   ar
    20    18    19   ar
    21    19    20    1
    22    19    21   ar
    23    21    22    1
    24    21    23   ar
    25    16    23   ar
    26     3    24    1
    27     3    25    1
    28     8    26    1
    29    11    27    1
    30    12    28    1
    31    13    29    1
    32    14    30    1
    33    17    31    1
    34    18    32    1
    35    23    33    1
@<TRIPOS>MOLECULE
mol22_1_6
 33 35 0 0 0
SMALL
USER_CHARGES
****
VDW energy = 102.61
@<TRIPOS>ATOM
   1 O1        1.9353    10.5561     1.1197  O.2     1  <O>11      -0.2884
   2 C1        0.9071    10.7531     1.7501  C.2     1  <O>11       0.2004
   3 C2        0.2860     9.6430     2.5310  C.3     1  <O>11       0.1551
   4 O2       -1.0414     9.4334     2.0781  O.3     1  <O>11      -0.4520
   5 C3       -1.6063     8.4251     2.7875  C.2     1  <O>11       0.3581
   6 O3       -0.9648     7.8598     3.6602  O.2     1  <O>11      -0.2432
   7 C4       -2.9257     8.0330     2.5187  C.ar    1  <O>11       0.1504
   8 N1       -3.5243     7.9235     1.3360  N.ar    1  <O>11      -0.2698
   9 N2       -4.7550     7.4047     1.6157  N.ar    1  <O>11      -0.1731
  10 C5       -4.9841     7.3518     2.9943  C.ar    1  <O>11       0.0933
  11 C6       -6.1190     7.0750     3.7865  C.ar    1  <O>11      -0.0340
  12 C7       -6.0074     7.0667     5.1951  C.ar    1  <O>11      -0.0597
  13 C8       -4.7631     7.3765     5.7701  C.ar    1  <O>11      -0.0610
  14 C9       -3.6478     7.7001     4.9884  C.ar    1  <O>11      -0.0503
  15 C10      -3.7714     7.7031     3.5896  C.ar    1  <O>11       0.0338
  16 C11       0.2870    12.0720     1.7390  C.ar    1  <O>11       0.0237
  17 C12      -0.5730    12.4413     0.6918  C.ar    1  <O>11      -0.0483
  18 C13      -1.1595    13.7128     0.6757  C.ar    1  <O>11      -0.0229
  19 C14      -0.8935    14.6230     1.7027  C.ar    1  <O>11       0.1584
  20 F1       -1.4609    15.8712     1.6914  F       1  <O>11      -0.2025
  21 C15      -0.0399    14.2512     2.7478  C.ar    1  <O>11       0.1591
  22 F2        0.2163    15.1469     3.7541  F       1  <O>11      -0.2025
  23 C16       0.5463    12.9848     2.7740  C.ar    1  <O>11      -0.0130
  24 H1        0.8666     8.7311     2.3909  H       1  <O>11       0.0782
  25 H2        0.2715     9.9069     3.5880  H       1  <O>11       0.0782
  26 H3       -3.1929     8.1542     0.4103  H       1  <O>11       0.1892
  27 H4       -7.0277     6.8792     3.3382  H       1  <O>11       0.0639
  28 H5       -6.8208     6.8384     5.7879  H       1  <O>11       0.0618
  29 H6       -4.6688     7.3651     6.7978  H       1  <O>11       0.0618
  30 H7       -2.7468     7.9334     5.4343  H       1  <O>11       0.0625
  31 H8       -0.7734    11.7731    -0.0687  H       1  <O>11       0.0625
  32 H9       -1.7900    13.9788    -0.0968  H       1  <O>11       0.0647
  33 H10       1.1694    12.7198     3.5529  H       1  <O>11       0.0654
@<TRIPOS>BOND
     1     1     2    2
     2     2     3    1
     3     3     4    1
     4     4     5    1
     5     5     6    2
     6     5     7    1
     7     7     8   ar
     8     8     9   ar
     9     9    10   ar
    10    10    11   ar
    11    11    12   ar
    12    12    13   ar
    13    13    14   ar
    14    14    15   ar
    15     7    15   ar
    16    10    15   ar
    17     2    16    1
    18    16    17   ar
    19    17    18   ar
    20    18    19   ar
    21    19    20    1
    22    19    21   ar
    23    21    22    1
    24    21    23   ar
    25    16    23   ar
    26     3    24    1
    27     3    25    1
    28     8    26    1
    29    11    27    1
    30    12    28    1
    31    13    29    1
    32    14    30    1
    33    17    31    1
    34    18    32    1
    35    23    33    1
@<TRIPOS>MOLECULE
mol22_1_7
 33 35 0 0 0
SMALL
USER_CHARGES
****
VDW energy = 102.73
@<TRIPOS>ATOM
   1 O1        1.9353    10.5561     1.1197  O.2     1  <O>11      -0.2884
   2 C1        0.9071    10.7531     1.7501  C.2     1  <O>11       0.2004
   3 C2        0.2860     9.6430     2.5310  C.3     1  <O>11       0.1551
   4 O2       -0.2014    10.1486     3.7630  O.3     1  <O>11      -0.4520
   5 C3       -0.7656     9.1404     4.4731  C.2     1  <O>11       0.3581
   6 O3       -0.7889     8.0090     4.0123  O.2     1  <O>11      -0.2432
   7 C4       -1.3209     9.3975     5.7349  C.ar    1  <O>11       0.1504
   8 N1       -0.8524    10.1955     6.6903  N.ar    1  <O>11      -0.2698
   9 N2       -1.8128    10.1788     7.6595  N.ar    1  <O>11      -0.1731
  10 C5       -2.8032     9.2320     7.3789  C.ar    1  <O>11       0.0933
  11 C6       -3.8883     8.7062     8.1123  C.ar    1  <O>11      -0.0340
  12 C7       -4.7495     7.7603     7.5119  C.ar    1  <O>11      -0.0597
  13 C8       -4.4713     7.3391     6.2004  C.ar    1  <O>11      -0.0610
  14 C9       -3.3671     7.8216     5.4879  C.ar    1  <O>11      -0.0503
  15 C10      -2.5200     8.7626     6.0952  C.ar    1  <O>11       0.0338
  16 C11       0.2870    12.0720     1.7390  C.ar    1  <O>11       0.0237
  17 C12      -0.5730    12.4413     0.6918  C.ar    1  <O>11      -0.0483
  18 C13      -1.1595    13.7128     0.6757  C.ar    1  <O>11      -0.0229
  19 C14      -0.8935    14.6230     1.7027  C.ar    1  <O>11       0.1584
  20 F1       -1.4609    15.8712     1.6914  F       1  <O>11      -0.2025
  21 C15      -0.0399    14.2512     2.7478  C.ar    1  <O>11       0.1591
  22 F2        0.2163    15.1469     3.7541  F       1  <O>11      -0.2025
  23 C16       0.5463    12.9848     2.7740  C.ar    1  <O>11      -0.0130
  24 H1       -0.5390     9.2153     1.9612  H       1  <O>11       0.0782
  25 H2        1.0327     8.8735     2.7244  H       1  <O>11       0.0782
  26 H3        0.0088    10.7206     6.7413  H       1  <O>11       0.1892
  27 H4       -4.0525     9.0116     9.0844  H       1  <O>11       0.0639
  28 H5       -5.5639     7.3873     8.0246  H       1  <O>11       0.0618
  29 H6       -5.0988     6.6549     5.7498  H       1  <O>11       0.0618
  30 H7       -3.1782     7.4900     4.5290  H       1  <O>11       0.0625
  31 H8       -0.7734    11.7731    -0.0687  H       1  <O>11       0.0625
  32 H9       -1.7900    13.9788    -0.0968  H       1  <O>11       0.0647
  33 H10       1.1694    12.7198     3.5529  H       1  <O>11       0.0654
@<TRIPOS>BOND
     1     1     2    2
     2     2     3    1
     3     3     4    1
     4     4     5    1
     5     5     6    2
     6     5     7    1
     7     7     8   ar
     8     8     9   ar
     9     9    10   ar
    10    10    11   ar
    11    11    12   ar
    12    12    13   ar
    13    13    14   ar
    14    14    15   ar
    15     7    15   ar
    16    10    15   ar
    17     2    16    1
    18    16    17   ar
    19    17    18   ar
    20    18    19   ar
    21    19    20    1
    22    19    21   ar
    23    21    22    1
    24    21    23   ar
    25    16    23   ar
    26     3    24    1
    27     3    25    1
    28     8    26    1
    29    11    27    1
    30    12    28    1
    31    13    29    1
    32    14    30    1
    33    17    31    1
    34    18    32    1
    35    23    33    1
@<TRIPOS>MOLECULE
mol22_1_8
 33 35 0 0 0
SMALL
USER_CHARGES
****
VDW energy = 103.02
@<TRIPOS>ATOM
   1 O1        1.9353    10.5561     1.1197  O.2     1  <O>11      -0.2884
   2 C1        0.9071    10.7531     1.7501  C.2     1  <O>11       0.2004
   3 C2        0.2860     9.6430     2.5310  C.3     1  <O>11       0.1551
   4 O2       -1.1244     9.7032     2.3957  O.3     1  <O>11      -0.4520
   5 C3       -1.6892     8.6950     3.1053  C.2     1  <O>11       0.3581
   6 O3       -0.9821     7.9161     3.7266  O.2     1  <O>11      -0.2432
   7 C4       -3.0838     8.5480     3.1251  C.ar    1  <O>11       0.1504
   8 N1       -3.9399     8.7074     2.1198  N.ar    1  <O>11      -0.2698
   9 N2       -5.1504     8.3411     2.6323  N.ar    1  <O>11      -0.1731
  10 C5       -5.0730     8.1164     4.0105  C.ar    1  <O>11       0.0933
  11 C6       -6.0342     7.8954     5.0202  C.ar    1  <O>11      -0.0340
  12 C7       -5.6156     7.6592     6.3490  C.ar    1  <O>11      -0.0597
  13 C8       -4.2397     7.6909     6.6334  C.ar    1  <O>11      -0.0610
  14 C9       -3.2866     7.9590     5.6438  C.ar    1  <O>11      -0.0503
  15 C10      -3.7155     8.1903     4.3267  C.ar    1  <O>11       0.0338
  16 C11       0.2870    12.0720     1.7390  C.ar    1  <O>11       0.0237
  17 C12       0.1127    12.7826     2.9379  C.ar    1  <O>11      -0.0483
  18 C13      -0.4935    14.0449     2.9279  C.ar    1  <O>11      -0.0229
  19 C14      -0.9286    14.6066     1.7243  C.ar    1  <O>11       0.1584
  20 F1       -1.5268    15.8403     1.7075  F       1  <O>11      -0.2025
  21 C15      -0.7497    13.8988     0.5301  C.ar    1  <O>11       0.1591
  22 F2       -1.1764    14.4550    -0.6485  F       1  <O>11      -0.2025
  23 C16      -0.1433    12.6417     0.5298  C.ar    1  <O>11      -0.0130
  24 H1        0.6473     8.6865     2.1531  H       1  <O>11       0.0782
  25 H2        0.5545     9.7444     3.5820  H       1  <O>11       0.0782
  26 H3       -3.7867     9.0227     1.1726  H       1  <O>11       0.1892
  27 H4       -7.0398     7.9062     4.7886  H       1  <O>11       0.0639
  28 H5       -6.3043     7.4678     7.0935  H       1  <O>11       0.0618
  29 H6       -3.9231     7.5115     7.5991  H       1  <O>11       0.0618
  30 H7       -2.2821     7.9863     5.8791  H       1  <O>11       0.0625
  31 H8        0.4327    12.3730     3.8294  H       1  <O>11       0.0625
  32 H9       -0.6195    14.5620     3.8122  H       1  <O>11       0.0647
  33 H10      -0.0114    12.1317    -0.3576  H       1  <O>11       0.0654
@<TRIPOS>BOND
     1     1     2    2
     2     2     3    1
     3     3     4    1
     4     4     5    1
     5     5     6    2
     6     5     7    1
     7     7     8   ar
     8     8     9   ar
     9     9    10   ar
    10    10    11   ar
    11    11    12   ar
    12    12    13   ar
    13    13    14   ar
    14    14    15   ar
    15     7    15   ar
    16    10    15   ar
    17     2    16    1
    18    16    17   ar
    19    17    18   ar
    20    18    19   ar
    21    19    20    1
    22    19    21   ar
    23    21    22    1
    24    21    23   ar
    25    16    23   ar
    26     3    24    1
    27     3    25    1
    28     8    26    1
    29    11    27    1
    30    12    28    1
    31    13    29    1
    32    14    30    1
    33    17    31    1
    34    18    32    1
    35    23    33    1
@<TRIPOS>MOLECULE
mol22_1_9
 33 35 0 0 0
SMALL
USER_CHARGES
****
VDW energy = 103.28
@<TRIPOS>ATOM
   1 O1        1.9353    10.5561     1.1197  O.2     1  <O>11      -0.2884
   2 C1        0.9071    10.7531     1.7501  C.2     1  <O>11       0.2004
   3 C2        0.2860     9.6430     2.5310  C.3     1  <O>11       0.1551
   4 O2       -0.2014    10.1486     3.7630  O.3     1  <O>11      -0.4520
   5 C3       -0.7656     9.1404     4.4731  C.2     1  <O>11       0.3581
   6 O3       -0.7889     8.0090     4.0123  O.2     1  <O>11      -0.2432
   7 C4       -1.3209     9.3975     5.7349  C.ar    1  <O>11       0.1504
   8 N1       -0.7422     9.2754     6.9263  N.ar    1  <O>11      -0.2698
   9 N2       -1.6649     9.7515     7.8117  N.ar    1  <O>11      -0.1731
  10 C5       -2.8870    10.0115     7.1832  C.ar    1  <O>11       0.0933
  11 C6       -4.1773    10.3383     7.6527  C.ar    1  <O>11      -0.0340
  12 C7       -5.2198    10.5813     6.7302  C.ar    1  <O>11      -0.0597
  13 C8       -4.9443    10.4499     5.3584  C.ar    1  <O>11      -0.0610
  14 C9       -3.6784    10.0774     4.8913  C.ar    1  <O>11      -0.0503
  15 C10      -2.6504     9.8404     5.8182  C.ar    1  <O>11       0.0338
  16 C11       0.2870    12.0720     1.7390  C.ar    1  <O>11       0.0237
  17 C12       0.1127    12.7826     2.9379  C.ar    1  <O>11      -0.0483
  18 C13      -0.4935    14.0449     2.9279  C.ar    1  <O>11      -0.0229
  19 C14      -0.9286    14.6066     1.7243  C.ar    1  <O>11       0.1584
  20 F1       -1.5268    15.8403     1.7075  F       1  <O>11      -0.2025
  21 C15      -0.7497    13.8988     0.5301  C.ar    1  <O>11       0.1591
  22 F2       -1.1764    14.4550    -0.6485  F       1  <O>11      -0.2025
  23 C16      -0.1433    12.6417     0.5298  C.ar    1  <O>11      -0.0130
  24 H1       -0.5390     9.2153     1.9612  H       1  <O>11       0.0782
  25 H2        1.0327     8.8735     2.7244  H       1  <O>11       0.0782
  26 H3        0.1689     8.9202     7.1786  H       1  <O>11       0.1892
  27 H4       -4.3589    10.3997     8.6667  H       1  <O>11       0.0639
  28 H5       -6.1617    10.8491     7.0563  H       1  <O>11       0.0618
  29 H6       -5.6966    10.6333     4.6761  H       1  <O>11       0.0618
  30 H7       -3.5029     9.9782     3.8791  H       1  <O>11       0.0625
  31 H8        0.4327    12.3730     3.8294  H       1  <O>11       0.0625
  32 H9       -0.6195    14.5620     3.8122  H       1  <O>11       0.0647
  33 H10      -0.0114    12.1317    -0.3576  H       1  <O>11       0.0654
@<TRIPOS>BOND
     1     1     2    2
     2     2     3    1
     3     3     4    1
     4     4     5    1
     5     5     6    2
     6     5     7    1
     7     7     8   ar
     8     8     9   ar
     9     9    10   ar
    10    10    11   ar
    11    11    12   ar
    12    12    13   ar
    13    13    14   ar
    14    14    15   ar
    15     7    15   ar
    16    10    15   ar
    17     2    16    1
    18    16    17   ar
    19    17    18   ar
    20    18    19   ar
    21    19    20    1
    22    19    21   ar
    23    21    22    1
    24    21    23   ar
    25    16    23   ar
    26     3    24    1
    27     3    25    1
    28     8    26    1
    29    11    27    1
    30    12    28    1
    31    13    29    1
    32    14    30    1
    33    17    31    1
    34    18    32    1
    35    23    33    1
@<TRIPOS>MOLECULE
mol22_1_10
 33 35 0 0 0
SMALL
USER_CHARGES
****
VDW energy = 104.97
@<TRIPOS>ATOM
   1 O1        1.9353    10.5561     1.1197  O.2     1  <O>11      -0.2884
   2 C1        0.9071    10.7531     1.7501  C.2     1  <O>11       0.2004
   3 C2        0.2860     9.6430     2.5310  C.3     1  <O>11       0.1551
   4 O2        1.0683     8.4691     2.3854  O.3     1  <O>11      -0.4520
   5 C3        0.5043     7.4601     3.0944  C.2     1  <O>11       0.3581
   6 O3       -0.5242     7.6579     3.7236  O.2     1  <O>11      -0.2432
   7 C4        1.1018     6.1914     3.1043  C.ar    1  <O>11       0.1504
   8 N1        0.8338     5.1522     2.3185  N.ar    1  <O>11      -0.2698
   9 N2        1.7606     4.2104     2.6592  N.ar    1  <O>11      -0.1731
  10 C5        2.4987     4.6042     3.7800  C.ar    1  <O>11       0.0933
  11 C6        3.4264     3.9497     4.6185  C.ar    1  <O>11      -0.0340
  12 C7        4.0399     4.6588     5.6758  C.ar    1  <O>11      -0.0597
  13 C8        3.6727     5.9991     5.8849  C.ar    1  <O>11      -0.0610
  14 C9        2.7162     6.6366     5.0860  C.ar    1  <O>11      -0.0503
  15 C10       2.1152     5.9214     4.0375  C.ar    1  <O>11       0.0338
  16 C11       0.2870    12.0720     1.7390  C.ar    1  <O>11       0.0237
  17 C12       0.6409    13.0290     2.7042  C.ar    1  <O>11      -0.0483
  18 C13       0.0363    14.2921     2.7000  C.ar    1  <O>11      -0.0229
  19 C14      -0.9230    14.6094     1.7342  C.ar    1  <O>11       0.1584
  20 F1       -1.5221    15.8427     1.7265  F       1  <O>11      -0.2025
  21 C15      -1.2708    13.6559     0.7704  C.ar    1  <O>11       0.1591
  22 F2       -2.2110    13.9726    -0.1763  F       1  <O>11      -0.2025
  23 C16      -0.6709    12.3956     0.7646  C.ar    1  <O>11      -0.0130
  24 H1        0.2397     9.9212     3.5839  H       1  <O>11       0.0782
  25 H2       -0.7209     9.4568     2.1588  H       1  <O>11       0.0782
  26 H3        0.1217     5.0312     1.6126  H       1  <O>11       0.1892
  27 H4        3.6560     2.9562     4.4600  H       1  <O>11       0.0639
  28 H5        4.7413     4.2030     6.2802  H       1  <O>11       0.0618
  29 H6        4.1210     6.5283     6.6491  H       1  <O>11       0.0618
  30 H7        2.4562     7.6191     5.2652  H       1  <O>11       0.0625
  31 H8        1.3491    12.8004     3.4192  H       1  <O>11       0.0625
  32 H9        0.2999    14.9909     3.4122  H       1  <O>11       0.0647
  33 H10      -0.9311    11.7027     0.0454  H       1  <O>11       0.0654
@<TRIPOS>BOND
     1     1     2    2
     2     2     3    1
     3     3     4    1
     4     4     5    1
     5     5     6    2
     6     5     7    1
     7     7     8   ar
     8     8     9   ar
     9     9    10   ar
    10    10    11   ar
    11    11    12   ar
    12    12    13   ar
    13    13    14   ar
    14    14    15   ar
    15     7    15   ar
    16    10    15   ar
    17     2    16    1
    18    16    17   ar
    19    17    18   ar
    20    18    19   ar
    21    19    20    1
    22    19    21   ar
    23    21    22    1
    24    21    23   ar
    25    16    23   ar
    26     3    24    1
    27     3    25    1
    28     8    26    1
    29    11    27    1
    30    12    28    1
    31    13    29    1
    32    14    30    1
    33    17    31    1
    34    18    32    1
    35    23    33    1
@<TRIPOS>MOLECULE
mol22_1_11
 33 35 0 0 0
SMALL
USER_CHARGES
****
VDW energy = 105.03
@<TRIPOS>ATOM
   1 O1        1.9353    10.5561     1.1197  O.2     1  <O>11      -0.2884
   2 C1        0.9071    10.7531     1.7501  C.2     1  <O>11       0.2004
   3 C2        0.2860     9.6430     2.5310  C.3     1  <O>11       0.1551
   4 O2        1.0683     8.4691     2.3854  O.3     1  <O>11      -0.4520
   5 C3        0.5043     7.4601     3.0944  C.2     1  <O>11       0.3581
   6 O3       -0.5239     7.6580     3.7241  O.2     1  <O>11      -0.2432
   7 C4        1.1015     6.1912     3.1037  C.ar    1  <O>11       0.1504
   8 N1        0.8329     5.1523     2.3179  N.ar    1  <O>11      -0.2698
   9 N2        1.7595     4.2101     2.6580  N.ar    1  <O>11      -0.1731
  10 C5        2.4982     4.6035     3.7786  C.ar    1  <O>11       0.0933
  11 C6        3.4260     3.9486     4.6166  C.ar    1  <O>11      -0.0340
  12 C7        4.0401     4.6573     5.6738  C.ar    1  <O>11      -0.0597
  13 C8        3.6734     5.9976     5.8834  C.ar    1  <O>11      -0.0610
  14 C9        2.7168     6.6355     5.0850  C.ar    1  <O>11      -0.0503
  15 C10       2.1151     5.9207     4.0365  C.ar    1  <O>11       0.0338
  16 C11       0.2870    12.0720     1.7390  C.ar    1  <O>11       0.0237
  17 C12      -0.5730    12.4413     0.6918  C.ar    1  <O>11      -0.0483
  18 C13      -1.1595    13.7128     0.6757  C.ar    1  <O>11      -0.0229
  19 C14      -0.8935    14.6230     1.7027  C.ar    1  <O>11       0.1584
  20 F1       -1.4609    15.8712     1.6914  F       1  <O>11      -0.2025
  21 C15      -0.0399    14.2512     2.7478  C.ar    1  <O>11       0.1591
  22 F2        0.2163    15.1469     3.7541  F       1  <O>11      -0.2025
  23 C16       0.5463    12.9848     2.7740  C.ar    1  <O>11      -0.0130
  24 H1        0.2397     9.9212     3.5839  H       1  <O>11       0.0782
  25 H2       -0.7209     9.4568     2.1588  H       1  <O>11       0.0782
  26 H3        0.1205     5.0316     1.6123  H       1  <O>11       0.1892
  27 H4        3.6553     2.9550     4.4578  H       1  <O>11       0.0639
  28 H5        4.7416     4.2011     6.2779  H       1  <O>11       0.0618
  29 H6        4.1221     6.5265     6.6475  H       1  <O>11       0.0618
  30 H7        2.4571     7.6181     5.2645  H       1  <O>11       0.0625
  31 H8       -0.7734    11.7731    -0.0687  H       1  <O>11       0.0625
  32 H9       -1.7900    13.9788    -0.0968  H       1  <O>11       0.0647
  33 H10       1.1694    12.7198     3.5529  H       1  <O>11       0.0654
@<TRIPOS>BOND
     1     1     2    2
     2     2     3    1
     3     3     4    1
     4     4     5    1
     5     5     6    2
     6     5     7    1
     7     7     8   ar
     8     8     9   ar
     9     9    10   ar
    10    10    11   ar
    11    11    12   ar
    12    12    13   ar
    13    13    14   ar
    14    14    15   ar
    15     7    15   ar
    16    10    15   ar
    17     2    16    1
    18    16    17   ar
    19    17    18   ar
    20    18    19   ar
    21    19    20    1
    22    19    21   ar
    23    21    22    1
    24    21    23   ar
    25    16    23   ar
    26     3    24    1
    27     3    25    1
    28     8    26    1
    29    11    27    1
    30    12    28    1
    31    13    29    1
    32    14    30    1
    33    17    31    1
    34    18    32    1
    35    23    33    1
@<TRIPOS>MOLECULE
mol22_1_12
 33 35 0 0 0
SMALL
USER_CHARGES
****
VDW energy = 106.02
@<TRIPOS>ATOM
   1 O1        1.9353    10.5561     1.1197  O.2     1  <O>11      -0.2884
   2 C1        0.9071    10.7531     1.7501  C.2     1  <O>11       0.2004
   3 C2        0.2860     9.6430     2.5310  C.3     1  <O>11       0.1551
   4 O2        1.0683     8.4691     2.3854  O.3     1  <O>11      -0.4520
   5 C3        0.5043     7.4601     3.0944  C.2     1  <O>11       0.3581
   6 O3       -0.5242     7.6579     3.7236  O.2     1  <O>11      -0.2432
   7 C4        1.1018     6.1914     3.1043  C.ar    1  <O>11       0.1504
   8 N1        0.8338     5.1522     2.3185  N.ar    1  <O>11      -0.2698
   9 N2        1.7606     4.2104     2.6592  N.ar    1  <O>11      -0.1731
  10 C5        2.4987     4.6042     3.7800  C.ar    1  <O>11       0.0933
  11 C6        3.4264     3.9497     4.6185  C.ar    1  <O>11      -0.0340
  12 C7        4.0399     4.6588     5.6758  C.ar    1  <O>11      -0.0597
  13 C8        3.6727     5.9991     5.8849  C.ar    1  <O>11      -0.0610
  14 C9        2.7162     6.6366     5.0860  C.ar    1  <O>11      -0.0503
  15 C10       2.1152     5.9214     4.0375  C.ar    1  <O>11       0.0338
  16 C11       0.2870    12.0720     1.7390  C.ar    1  <O>11       0.0237
  17 C12      -1.0220    12.2350     1.2568  C.ar    1  <O>11      -0.0483
  18 C13      -1.6131    13.5043     1.2357  C.ar    1  <O>11      -0.0229
  19 C14      -0.9044    14.6178     1.6955  C.ar    1  <O>11       0.1584
  20 F1       -1.4753    15.8643     1.6740  F       1  <O>11      -0.2025
  21 C15       0.3983    14.4525     2.1801  C.ar    1  <O>11       0.1591
  22 F2        1.0888    15.5476     2.6320  F       1  <O>11      -0.2025
  23 C16       0.9943    13.1907     2.2082  C.ar    1  <O>11      -0.0130
  24 H1        0.2397     9.9212     3.5839  H       1  <O>11       0.0782
  25 H2       -0.7209     9.4568     2.1588  H       1  <O>11       0.0782
  26 H3        0.1217     5.0312     1.6126  H       1  <O>11       0.1892
  27 H4        3.6560     2.9562     4.4600  H       1  <O>11       0.0639
  28 H5        4.7413     4.2030     6.2802  H       1  <O>11       0.0618
  29 H6        4.1210     6.5283     6.6491  H       1  <O>11       0.0618
  30 H7        2.4562     7.6191     5.2652  H       1  <O>11       0.0625
  31 H8       -1.5502    11.4162     0.9167  H       1  <O>11       0.0625
  32 H9       -2.5751    13.6179     0.8795  H       1  <O>11       0.0647
  33 H10       1.9532    13.0801     2.5732  H       1  <O>11       0.0654
@<TRIPOS>BOND
     1     1     2    2
     2     2     3    1
     3     3     4    1
     4     4     5    1
     5     5     6    2
     6     5     7    1
     7     7     8   ar
     8     8     9   ar
     9     9    10   ar
    10    10    11   ar
    11    11    12   ar
    12    12    13   ar
    13    13    14   ar
    14    14    15   ar
    15     7    15   ar
    16    10    15   ar
    17     2    16    1
    18    16    17   ar
    19    17    18   ar
    20    18    19   ar
    21    19    20    1
    22    19    21   ar
    23    21    22    1
    24    21    23   ar
    25    16    23   ar
    26     3    24    1
    27     3    25    1
    28     8    26    1
    29    11    27    1
    30    12    28    1
    31    13    29    1
    32    14    30    1
    33    17    31    1
    34    18    32    1
    35    23    33    1
@<TRIPOS>MOLECULE
mol22_1_13
 33 35 0 0 0
SMALL
USER_CHARGES
****
VDW energy = 106.45
@<TRIPOS>ATOM
   1 O1        1.9353    10.5561     1.1197  O.2     1  <O>11      -0.2884
   2 C1        0.9071    10.7531     1.7501  C.2     1  <O>11       0.2004
   3 C2        0.2860     9.6430     2.5310  C.3     1  <O>11       0.1551
   4 O2       -1.1244     9.7032     2.3957  O.3     1  <O>11      -0.4520
   5 C3       -1.6892     8.6950     3.1053  C.2     1  <O>11       0.3581
   6 O3       -0.9821     7.9161     3.7266  O.2     1  <O>11      -0.2432
   7 C4       -3.0838     8.5480     3.1251  C.ar    1  <O>11       0.1504
   8 N1       -3.9399     8.7074     2.1198  N.ar    1  <O>11      -0.2698
   9 N2       -5.1504     8.3411     2.6323  N.ar    1  <O>11      -0.1731
  10 C5       -5.0730     8.1164     4.0105  C.ar    1  <O>11       0.0933
  11 C6       -6.0342     7.8954     5.0202  C.ar    1  <O>11      -0.0340
  12 C7       -5.6156     7.6592     6.3490  C.ar    1  <O>11      -0.0597
  13 C8       -4.2397     7.6909     6.6334  C.ar    1  <O>11      -0.0610
  14 C9       -3.2866     7.9590     5.6438  C.ar    1  <O>11      -0.0503
  15 C10      -3.7155     8.1903     4.3267  C.ar    1  <O>11       0.0338
  16 C11       0.2870    12.0720     1.7390  C.ar    1  <O>11       0.0237
  17 C12      -1.0220    12.2350     1.2568  C.ar    1  <O>11      -0.0483
  18 C13      -1.6131    13.5043     1.2357  C.ar    1  <O>11      -0.0229
  19 C14      -0.9044    14.6178     1.6955  C.ar    1  <O>11       0.1584
  20 F1       -1.4753    15.8643     1.6740  F       1  <O>11      -0.2025
  21 C15       0.3983    14.4525     2.1801  C.ar    1  <O>11       0.1591
  22 F2        1.0888    15.5476     2.6320  F       1  <O>11      -0.2025
  23 C16       0.9943    13.1907     2.2082  C.ar    1  <O>11      -0.0130
  24 H1        0.6473     8.6865     2.1531  H       1  <O>11       0.0782
  25 H2        0.5545     9.7444     3.5820  H       1  <O>11       0.0782
  26 H3       -3.7867     9.0227     1.1726  H       1  <O>11       0.1892
  27 H4       -7.0398     7.9062     4.7886  H       1  <O>11       0.0639
  28 H5       -6.3043     7.4678     7.0935  H       1  <O>11       0.0618
  29 H6       -3.9231     7.5115     7.5991  H       1  <O>11       0.0618
  30 H7       -2.2821     7.9863     5.8791  H       1  <O>11       0.0625
  31 H8       -1.5502    11.4162     0.9167  H       1  <O>11       0.0625
  32 H9       -2.5751    13.6179     0.8795  H       1  <O>11       0.0647
  33 H10       1.9532    13.0801     2.5732  H       1  <O>11       0.0654
@<TRIPOS>BOND
     1     1     2    2
     2     2     3    1
     3     3     4    1
     4     4     5    1
     5     5     6    2
     6     5     7    1
     7     7     8   ar
     8     8     9   ar
     9     9    10   ar
    10    10    11   ar
    11    11    12   ar
    12    12    13   ar
    13    13    14   ar
    14    14    15   ar
    15     7    15   ar
    16    10    15   ar
    17     2    16    1
    18    16    17   ar
    19    17    18   ar
    20    18    19   ar
    21    19    20    1
    22    19    21   ar
    23    21    22    1
    24    21    23   ar
    25    16    23   ar
    26     3    24    1
    27     3    25    1
    28     8    26    1
    29    11    27    1
    30    12    28    1
    31    13    29    1
    32    14    30    1
    33    17    31    1
    34    18    32    1
    35    23    33    1
@<TRIPOS>MOLECULE
mol22_1_14
 33 35 0 0 0
SMALL
USER_CHARGES
****
VDW energy = 107.53
@<TRIPOS>ATOM
   1 O1        1.9353    10.5561     1.1197  O.2     1  <O>11      -0.2884
   2 C1        0.9071    10.7531     1.7501  C.2     1  <O>11       0.2004
   3 C2        0.2860     9.6430     2.5310  C.3     1  <O>11       0.1551
   4 O2        1.0683     8.4691     2.3854  O.3     1  <O>11      -0.4520
   5 C3        0.5043     7.4601     3.0944  C.2     1  <O>11       0.3581
   6 O3       -0.5239     7.6580     3.7241  O.2     1  <O>11      -0.2432
   7 C4        1.1015     6.1912     3.1037  C.ar    1  <O>11       0.1504
   8 N1        2.3968     5.8946     3.1613  N.ar    1  <O>11      -0.2698
   9 N2        2.4382     4.5340     3.2560  N.ar    1  <O>11      -0.1731
  10 C5        1.1688     3.9727     3.0845  C.ar    1  <O>11       0.0933
  11 C6        0.6981     2.6521     2.9211  C.ar    1  <O>11      -0.0340
  12 C7       -0.6893     2.4101     2.8053  C.ar    1  <O>11      -0.0597
  13 C8       -1.5642     3.5097     2.8176  C.ar    1  <O>11      -0.0610
  14 C9       -1.0970     4.8246     2.9295  C.ar    1  <O>11      -0.0503
  15 C10       0.2839     5.0515     3.0457  C.ar    1  <O>11       0.0338
  16 C11       0.2870    12.0720     1.7390  C.ar    1  <O>11       0.0237
  17 C12       0.6409    13.0290     2.7042  C.ar    1  <O>11      -0.0483
  18 C13       0.0363    14.2921     2.7000  C.ar    1  <O>11      -0.0229
  19 C14      -0.9230    14.6094     1.7342  C.ar    1  <O>11       0.1584
  20 F1       -1.5221    15.8427     1.7265  F       1  <O>11      -0.2025
  21 C15      -1.2708    13.6559     0.7704  C.ar    1  <O>11       0.1591
  22 F2       -2.2110    13.9726    -0.1763  F       1  <O>11      -0.2025
  23 C16      -0.6709    12.3956     0.7646  C.ar    1  <O>11      -0.0130
  24 H1        0.2397     9.9212     3.5839  H       1  <O>11       0.0782
  25 H2       -0.7209     9.4568     2.1588  H       1  <O>11       0.0782
  26 H3        3.2079     6.4961     3.1442  H       1  <O>11       0.1892
  27 H4        1.3652     1.8655     2.8864  H       1  <O>11       0.0639
  28 H5       -1.0517     1.4481     2.7138  H       1  <O>11       0.0618
  29 H6       -2.5799     3.3432     2.7420  H       1  <O>11       0.0618
  30 H7       -1.7587     5.6166     2.9266  H       1  <O>11       0.0625
  31 H8        1.3491    12.8004     3.4192  H       1  <O>11       0.0625
  32 H9        0.2999    14.9909     3.4122  H       1  <O>11       0.0647
  33 H10      -0.9311    11.7027     0.0454  H       1  <O>11       0.0654
@<TRIPOS>BOND
     1     1     2    2
     2     2     3    1
     3     3     4    1
     4     4     5    1
     5     5     6    2
     6     5     7    1
     7     7     8   ar
     8     8     9   ar
     9     9    10   ar
    10    10    11   ar
    11    11    12   ar
    12    12    13   ar
    13    13    14   ar
    14    14    15   ar
    15     7    15   ar
    16    10    15   ar
    17     2    16    1
    18    16    17   ar
    19    17    18   ar
    20    18    19   ar
    21    19    20    1
    22    19    21   ar
    23    21    22    1
    24    21    23   ar
    25    16    23   ar
    26     3    24    1
    27     3    25    1
    28     8    26    1
    29    11    27    1
    30    12    28    1
    31    13    29    1
    32    14    30    1
    33    17    31    1
    34    18    32    1
    35    23    33    1
@<TRIPOS>MOLECULE
mol22_1_15
 33 35 0 0 0
SMALL
USER_CHARGES
****
VDW energy = 107.55
@<TRIPOS>ATOM
   1 O1        1.9353    10.5561     1.1197  O.2     1  <O>11      -0.2884
   2 C1        0.9071    10.7531     1.7501  C.2     1  <O>11       0.2004
   3 C2        0.2860     9.6430     2.5310  C.3     1  <O>11       0.1551
   4 O2        1.0683     8.4691     2.3854  O.3     1  <O>11      -0.4520
   5 C3        0.5043     7.4601     3.0944  C.2     1  <O>11       0.3581
   6 O3       -0.5239     7.6580     3.7241  O.2     1  <O>11      -0.2432
   7 C4        1.1015     6.1912     3.1037  C.ar    1  <O>11       0.1504
   8 N1        2.3968     5.8946     3.1613  N.ar    1  <O>11      -0.2698
   9 N2        2.4382     4.5340     3.2560  N.ar    1  <O>11      -0.1731
  10 C5        1.1688     3.9727     3.0845  C.ar    1  <O>11       0.0933
  11 C6        0.6981     2.6521     2.9211  C.ar    1  <O>11      -0.0340
  12 C7       -0.6893     2.4101     2.8053  C.ar    1  <O>11      -0.0597
  13 C8       -1.5642     3.5097     2.8176  C.ar    1  <O>11      -0.0610
  14 C9       -1.0970     4.8246     2.9295  C.ar    1  <O>11      -0.0503
  15 C10       0.2839     5.0515     3.0457  C.ar    1  <O>11       0.0338
  16 C11       0.2870    12.0720     1.7390  C.ar    1  <O>11       0.0237
  17 C12      -0.5730    12.4413     0.6918  C.ar    1  <O>11      -0.0483
  18 C13      -1.1595    13.7128     0.6757  C.ar    1  <O>11      -0.0229
  19 C14      -0.8935    14.6230     1.7027  C.ar    1  <O>11       0.1584
  20 F1       -1.4609    15.8712     1.6914  F       1  <O>11      -0.2025
  21 C15      -0.0399    14.2512     2.7478  C.ar    1  <O>11       0.1591
  22 F2        0.2163    15.1469     3.7541  F       1  <O>11      -0.2025
  23 C16       0.5463    12.9848     2.7740  C.ar    1  <O>11      -0.0130
  24 H1        0.2397     9.9212     3.5839  H       1  <O>11       0.0782
  25 H2       -0.7209     9.4568     2.1588  H       1  <O>11       0.0782
  26 H3        3.2079     6.4961     3.1442  H       1  <O>11       0.1892
  27 H4        1.3652     1.8655     2.8864  H       1  <O>11       0.0639
  28 H5       -1.0517     1.4481     2.7138  H       1  <O>11       0.0618
  29 H6       -2.5799     3.3432     2.7420  H       1  <O>11       0.0618
  30 H7       -1.7587     5.6166     2.9266  H       1  <O>11       0.0625
  31 H8       -0.7734    11.7731    -0.0687  H       1  <O>11       0.0625
  32 H9       -1.7900    13.9788    -0.0968  H       1  <O>11       0.0647
  33 H10       1.1694    12.7198     3.5529  H       1  <O>11       0.0654
@<TRIPOS>BOND
     1     1     2    2
     2     2     3    1
     3     3     4    1
     4     4     5    1
     5     5     6    2
     6     5     7    1
     7     7     8   ar
     8     8     9   ar
     9     9    10   ar
    10    10    11   ar
    11    11    12   ar
    12    12    13   ar
    13    13    14   ar
    14    14    15   ar
    15     7    15   ar
    16    10    15   ar
    17     2    16    1
    18    16    17   ar
    19    17    18   ar
    20    18    19   ar
    21    19    20    1
    22    19    21   ar
    23    21    22    1
    24    21    23   ar
    25    16    23   ar
    26     3    24    1
    27     3    25    1
    28     8    26    1
    29    11    27    1
    30    12    28    1
    31    13    29    1
    32    14    30    1
    33    17    31    1
    34    18    32    1
    35    23    33    1
@<TRIPOS>MOLECULE
mol22_1_16
 33 35 0 0 0
SMALL
USER_CHARGES
****
VDW energy = 108.54
@<TRIPOS>ATOM
   1 O1        1.9353    10.5561     1.1197  O.2     1  <O>11      -0.2884
   2 C1        0.9071    10.7531     1.7501  C.2     1  <O>11       0.2004
   3 C2        0.2860     9.6430     2.5310  C.3     1  <O>11       0.1551
   4 O2        1.0683     8.4691     2.3854  O.3     1  <O>11      -0.4520
   5 C3        0.5043     7.4601     3.0944  C.2     1  <O>11       0.3581
   6 O3       -0.5239     7.6580     3.7241  O.2     1  <O>11      -0.2432
   7 C4        1.1015     6.1912     3.1037  C.ar    1  <O>11       0.1504
   8 N1        2.3968     5.8946     3.1613  N.ar    1  <O>11      -0.2698
   9 N2        2.4382     4.5340     3.2560  N.ar    1  <O>11      -0.1731
  10 C5        1.1688     3.9727     3.0845  C.ar    1  <O>11       0.0933
  11 C6        0.6981     2.6521     2.9211  C.ar    1  <O>11      -0.0340
  12 C7       -0.6893     2.4101     2.8053  C.ar    1  <O>11      -0.0597
  13 C8       -1.5642     3.5097     2.8176  C.ar    1  <O>11      -0.0610
  14 C9       -1.0970     4.8246     2.9295  C.ar    1  <O>11      -0.0503
  15 C10       0.2839     5.0515     3.0457  C.ar    1  <O>11       0.0338
  16 C11       0.2870    12.0720     1.7390  C.ar    1  <O>11       0.0237
  17 C12      -1.0220    12.2350     1.2568  C.ar    1  <O>11      -0.0483
  18 C13      -1.6131    13.5043     1.2357  C.ar    1  <O>11      -0.0229
  19 C14      -0.9044    14.6178     1.6955  C.ar    1  <O>11       0.1584
  20 F1       -1.4753    15.8643     1.6740  F       1  <O>11      -0.2025
  21 C15       0.3983    14.4525     2.1801  C.ar    1  <O>11       0.1591
  22 F2        1.0888    15.5476     2.6320  F       1  <O>11      -0.2025
  23 C16       0.9943    13.1907     2.2082  C.ar    1  <O>11      -0.0130
  24 H1        0.2397     9.9212     3.5839  H       1  <O>11       0.0782
  25 H2       -0.7209     9.4568     2.1588  H       1  <O>11       0.0782
  26 H3        3.2079     6.4961     3.1442  H       1  <O>11       0.1892
  27 H4        1.3652     1.8655     2.8864  H       1  <O>11       0.0639
  28 H5       -1.0517     1.4481     2.7138  H       1  <O>11       0.0618
  29 H6       -2.5799     3.3432     2.7420  H       1  <O>11       0.0618
  30 H7       -1.7587     5.6166     2.9266  H       1  <O>11       0.0625
  31 H8       -1.5502    11.4162     0.9167  H       1  <O>11       0.0625
  32 H9       -2.5751    13.6179     0.8795  H       1  <O>11       0.0647
  33 H10       1.9532    13.0801     2.5732  H       1  <O>11       0.0654
@<TRIPOS>BOND
     1     1     2    2
     2     2     3    1
     3     3     4    1
     4     4     5    1
     5     5     6    2
     6     5     7    1
     7     7     8   ar
     8     8     9   ar
     9     9    10   ar
    10    10    11   ar
    11    11    12   ar
    12    12    13   ar
    13    13    14   ar
    14    14    15   ar
    15     7    15   ar
    16    10    15   ar
    17     2    16    1
    18    16    17   ar
    19    17    18   ar
    20    18    19   ar
    21    19    20    1
    22    19    21   ar
    23    21    22    1
    24    21    23   ar
    25    16    23   ar
    26     3    24    1
    27     3    25    1
    28     8    26    1
    29    11    27    1
    30    12    28    1
    31    13    29    1
    32    14    30    1
    33    17    31    1
    34    18    32    1
    35    23    33    1
@<TRIPOS>MOLECULE
mol22_1_17
 33 35 0 0 0
SMALL
USER_CHARGES
****
VDW energy = 108.55
@<TRIPOS>ATOM
   1 O1        1.9353    10.5561     1.1197  O.2     1  <O>11      -0.2884
   2 C1        0.9071    10.7531     1.7501  C.2     1  <O>11       0.2004
   3 C2        0.2860     9.6430     2.5310  C.3     1  <O>11       0.1551
   4 O2        1.0683     8.4691     2.3854  O.3     1  <O>11      -0.4520
   5 C3        0.5043     7.4601     3.0944  C.2     1  <O>11       0.3581
   6 O3       -0.5239     7.6580     3.7241  O.2     1  <O>11      -0.2432
   7 C4        1.1015     6.1912     3.1037  C.ar    1  <O>11       0.1504
   8 N1        2.3968     5.8946     3.1613  N.ar    1  <O>11      -0.2698
   9 N2        2.4382     4.5340     3.2560  N.ar    1  <O>11      -0.1731
  10 C5        1.1688     3.9727     3.0845  C.ar    1  <O>11       0.0933
  11 C6        0.6981     2.6521     2.9211  C.ar    1  <O>11      -0.0340
  12 C7       -0.6893     2.4101     2.8053  C.ar    1  <O>11      -0.0597
  13 C8       -1.5642     3.5097     2.8176  C.ar    1  <O>11      -0.0610
  14 C9       -1.0970     4.8246     2.9295  C.ar    1  <O>11      -0.0503
  15 C10       0.2839     5.0515     3.0457  C.ar    1  <O>11       0.0338
  16 C11       0.2870    12.0720     1.7390  C.ar    1  <O>11       0.0237
  17 C12       0.1127    12.7826     2.9379  C.ar    1  <O>11      -0.0483
  18 C13      -0.4935    14.0449     2.9279  C.ar    1  <O>11      -0.0229
  19 C14      -0.9286    14.6066     1.7243  C.ar    1  <O>11       0.1584
  20 F1       -1.5268    15.8403     1.7075  F       1  <O>11      -0.2025
  21 C15      -0.7497    13.8988     0.5301  C.ar    1  <O>11       0.1591
  22 F2       -1.1764    14.4550    -0.6485  F       1  <O>11      -0.2025
  23 C16      -0.1433    12.6417     0.5298  C.ar    1  <O>11      -0.0130
  24 H1        0.2397     9.9212     3.5839  H       1  <O>11       0.0782
  25 H2       -0.7209     9.4568     2.1588  H       1  <O>11       0.0782
  26 H3        3.2079     6.4961     3.1442  H       1  <O>11       0.1892
  27 H4        1.3652     1.8655     2.8864  H       1  <O>11       0.0639
  28 H5       -1.0517     1.4481     2.7138  H       1  <O>11       0.0618
  29 H6       -2.5799     3.3432     2.7420  H       1  <O>11       0.0618
  30 H7       -1.7587     5.6166     2.9266  H       1  <O>11       0.0625
  31 H8        0.4327    12.3730     3.8294  H       1  <O>11       0.0625
  32 H9       -0.6195    14.5620     3.8122  H       1  <O>11       0.0647
  33 H10      -0.0114    12.1317    -0.3576  H       1  <O>11       0.0654
@<TRIPOS>BOND
     1     1     2    2
     2     2     3    1
     3     3     4    1
     4     4     5    1
     5     5     6    2
     6     5     7    1
     7     7     8   ar
     8     8     9   ar
     9     9    10   ar
    10    10    11   ar
    11    11    12   ar
    12    12    13   ar
    13    13    14   ar
    14    14    15   ar
    15     7    15   ar
    16    10    15   ar
    17     2    16    1
    18    16    17   ar
    19    17    18   ar
    20    18    19   ar
    21    19    20    1
    22    19    21   ar
    23    21    22    1
    24    21    23   ar
    25    16    23   ar
    26     3    24    1
    27     3    25    1
    28     8    26    1
    29    11    27    1
    30    12    28    1
    31    13    29    1
    32    14    30    1
    33    17    31    1
    34    18    32    1
    35    23    33    1
@<TRIPOS>MOLECULE
mol22_1_18
 33 35 0 0 0
SMALL
USER_CHARGES
****
VDW energy = 113.18
@<TRIPOS>ATOM
   1 O1        1.9353    10.5561     1.1197  O.2     1  <O>11      -0.2884
   2 C1        0.9071    10.7531     1.7501  C.2     1  <O>11       0.2004
   3 C2        0.2860     9.6430     2.5310  C.3     1  <O>11       0.1551
   4 O2        1.0683     8.4691     2.3854  O.3     1  <O>11      -0.4520
   5 C3        0.5043     7.4601     3.0944  C.2     1  <O>11       0.3581
   6 O3       -0.5239     7.6580     3.7241  O.2     1  <O>11      -0.2432
   7 C4        1.1015     6.1912     3.1037  C.ar    1  <O>11       0.1504
   8 N1        2.3968     5.8946     3.1613  N.ar    1  <O>11      -0.2698
   9 N2        2.4382     4.5340     3.2560  N.ar    1  <O>11      -0.1731
  10 C5        1.1688     3.9727     3.0845  C.ar    1  <O>11       0.0933
  11 C6        0.6981     2.6521     2.9211  C.ar    1  <O>11      -0.0340
  12 C7       -0.6893     2.4101     2.8053  C.ar    1  <O>11      -0.0597
  13 C8       -1.5642     3.5097     2.8176  C.ar    1  <O>11      -0.0610
  14 C9       -1.0970     4.8246     2.9295  C.ar    1  <O>11      -0.0503
  15 C10       0.2839     5.0515     3.0457  C.ar    1  <O>11       0.0338
  16 C11       0.2870    12.0720     1.7390  C.ar    1  <O>11       0.0237
  17 C12       0.8665    13.1207     1.0062  C.ar    1  <O>11      -0.0483
  18 C13       0.2765    14.3907     1.0052  C.ar    1  <O>11      -0.0229
  19 C14      -0.8940    14.6230     1.7330  C.ar    1  <O>11       0.1584
  20 F1       -1.4750    15.8650     1.7400  F       1  <O>11      -0.2025
  21 C15      -1.4725    13.5753     2.4588  C.ar    1  <O>11       0.1591
  22 F2       -2.6219    13.8075     3.1696  F       1  <O>11      -0.2025
  23 C16      -0.8935    12.3053     2.4628  C.ar    1  <O>11      -0.0130
  24 H1        0.2397     9.9212     3.5839  H       1  <O>11       0.0782
  25 H2       -0.7209     9.4568     2.1588  H       1  <O>11       0.0782
  26 H3        3.2079     6.4961     3.1442  H       1  <O>11       0.1892
  27 H4        1.3652     1.8655     2.8864  H       1  <O>11       0.0639
  28 H5       -1.0517     1.4481     2.7138  H       1  <O>11       0.0618
  29 H6       -2.5799     3.3432     2.7420  H       1  <O>11       0.0618
  30 H7       -1.7587     5.6166     2.9266  H       1  <O>11       0.0625
  31 H8        1.7303    12.9547     0.4665  H       1  <O>11       0.0625
  32 H9        0.7073    15.1577     0.4654  H       1  <O>11       0.0647
  33 H10      -1.3323    11.5390     2.9969  H       1  <O>11       0.0654
@<TRIPOS>BOND
     1     1     2    2
     2     2     3    1
     3     3     4    1
     4     4     5    1
     5     5     6    2
     6     5     7    1
     7     7     8   ar
     8     8     9   ar
     9     9    10   ar
    10    10    11   ar
    11    11    12   ar
    12    12    13   ar
    13    13    14   ar
    14    14    15   ar
    15     7    15   ar
    16    10    15   ar
    17     2    16    1
    18    16    17   ar
    19    17    18   ar
    20    18    19   ar
    21    19    20    1
    22    19    21   ar
    23    21    22    1
    24    21    23   ar
    25    16    23   ar
    26     3    24    1
    27     3    25    1
    28     8    26    1
    29    11    27    1
    30    12    28    1
    31    13    29    1
    32    14    30    1
    33    17    31    1
    34    18    32    1
    35    23    33    1
@<TRIPOS>MOLECULE
mol22_1_19
 33 35 0 0 0
SMALL
USER_CHARGES
****
VDW energy = 113.88
@<TRIPOS>ATOM
   1 O1        1.9353    10.5561     1.1197  O.2     1  <O>11      -0.2884
   2 C1        0.9071    10.7531     1.7501  C.2     1  <O>11       0.2004
   3 C2        0.2860     9.6430     2.5310  C.3     1  <O>11       0.1551
   4 O2       -0.2014    10.1486     3.7630  O.3     1  <O>11      -0.4520
   5 C3       -0.7656     9.1404     4.4731  C.2     1  <O>11       0.3581
   6 O3       -0.7889     8.0090     4.0123  O.2     1  <O>11      -0.2432
   7 C4       -1.3209     9.3975     5.7349  C.ar    1  <O>11       0.1504
   8 N1       -0.7422     9.2754     6.9263  N.ar    1  <O>11      -0.2698
   9 N2       -1.6649     9.7515     7.8117  N.ar    1  <O>11      -0.1731
  10 C5       -2.8870    10.0115     7.1832  C.ar    1  <O>11       0.0933
  11 C6       -4.1773    10.3383     7.6527  C.ar    1  <O>11      -0.0340
  12 C7       -5.2198    10.5813     6.7302  C.ar    1  <O>11      -0.0597
  13 C8       -4.9443    10.4499     5.3584  C.ar    1  <O>11      -0.0610
  14 C9       -3.6784    10.0774     4.8913  C.ar    1  <O>11      -0.0503
  15 C10      -2.6504     9.8404     5.8182  C.ar    1  <O>11       0.0338
  16 C11       0.2870    12.0720     1.7390  C.ar    1  <O>11       0.0237
  17 C12       0.8665    13.1207     1.0062  C.ar    1  <O>11      -0.0483
  18 C13       0.2765    14.3907     1.0052  C.ar    1  <O>11      -0.0229
  19 C14      -0.8940    14.6230     1.7330  C.ar    1  <O>11       0.1584
  20 F1       -1.4750    15.8650     1.7400  F       1  <O>11      -0.2025
  21 C15      -1.4725    13.5753     2.4588  C.ar    1  <O>11       0.1591
  22 F2       -2.6219    13.8075     3.1696  F       1  <O>11      -0.2025
  23 C16      -0.8935    12.3053     2.4628  C.ar    1  <O>11      -0.0130
  24 H1       -0.5390     9.2153     1.9612  H       1  <O>11       0.0782
  25 H2        1.0327     8.8735     2.7244  H       1  <O>11       0.0782
  26 H3        0.1689     8.9202     7.1786  H       1  <O>11       0.1892
  27 H4       -4.3589    10.3997     8.6667  H       1  <O>11       0.0639
  28 H5       -6.1617    10.8491     7.0563  H       1  <O>11       0.0618
  29 H6       -5.6966    10.6333     4.6761  H       1  <O>11       0.0618
  30 H7       -3.5029     9.9782     3.8791  H       1  <O>11       0.0625
  31 H8        1.7303    12.9547     0.4665  H       1  <O>11       0.0625
  32 H9        0.7073    15.1577     0.4654  H       1  <O>11       0.0647
  33 H10      -1.3323    11.5390     2.9969  H       1  <O>11       0.0654
@<TRIPOS>BOND
     1     1     2    2
     2     2     3    1
     3     3     4    1
     4     4     5    1
     5     5     6    2
     6     5     7    1
     7     7     8   ar
     8     8     9   ar
     9     9    10   ar
    10    10    11   ar
    11    11    12   ar
    12    12    13   ar
    13    13    14   ar
    14    14    15   ar
    15     7    15   ar
    16    10    15   ar
    17     2    16    1
    18    16    17   ar
    19    17    18   ar
    20    18    19   ar
    21    19    20    1
    22    19    21   ar
    23    21    22    1
    24    21    23   ar
    25    16    23   ar
    26     3    24    1
    27     3    25    1
    28     8    26    1
    29    11    27    1
    30    12    28    1
    31    13    29    1
    32    14    30    1
    33    17    31    1
    34    18    32    1
    35    23    33    1
@<TRIPOS>MOLECULE
mol22_1_20
 33 35 0 0 0
SMALL
USER_CHARGES
****
VDW energy = 113.88
@<TRIPOS>ATOM
   1 O1        1.9353    10.5561     1.1197  O.2     1  <O>11      -0.2884
   2 C1        0.9071    10.7531     1.7501  C.2     1  <O>11       0.2004
   3 C2        0.2860     9.6430     2.5310  C.3     1  <O>11       0.1551
   4 O2       -0.2014    10.1486     3.7630  O.3     1  <O>11      -0.4520
   5 C3       -0.7656     9.1404     4.4731  C.2     1  <O>11       0.3581
   6 O3       -1.2499     9.3654     5.5720  O.2     1  <O>11      -0.2432
   7 C4       -0.7926     7.8414     3.9452  C.ar    1  <O>11       0.1504
   8 N1       -1.7651     7.2585     3.2499  N.ar    1  <O>11      -0.2698
   9 N2       -1.2525     6.0486     2.8817  N.ar    1  <O>11      -0.1731
  10 C5       -0.0189     5.8100     3.4961  C.ar    1  <O>11       0.0933
  11 C6        0.8227     4.6810     3.5923  C.ar    1  <O>11      -0.0340
  12 C7        2.0563     4.7805     4.2743  C.ar    1  <O>11      -0.0597
  13 C8        2.3919     6.0053     4.8760  C.ar    1  <O>11      -0.0610
  14 C9        1.5369     7.1126     4.8250  C.ar    1  <O>11      -0.0503
  15 C10       0.3146     7.0012     4.1425  C.ar    1  <O>11       0.0338
  16 C11       0.2870    12.0720     1.7390  C.ar    1  <O>11       0.0237
  17 C12       0.6409    13.0290     2.7042  C.ar    1  <O>11      -0.0483
  18 C13       0.0363    14.2921     2.7000  C.ar    1  <O>11      -0.0229
  19 C14      -0.9230    14.6094     1.7342  C.ar    1  <O>11       0.1584
  20 F1       -1.5221    15.8427     1.7265  F       1  <O>11      -0.2025
  21 C15      -1.2708    13.6559     0.7704  C.ar    1  <O>11       0.1591
  22 F2       -2.2110    13.9726    -0.1763  F       1  <O>11      -0.2025
  23 C16      -0.6709    12.3956     0.7646  C.ar    1  <O>11      -0.0130
  24 H1       -0.5390     9.2153     1.9612  H       1  <O>11       0.0782
  25 H2        1.0327     8.8735     2.7244  H       1  <O>11       0.0782
  26 H3       -2.6905     7.5878     3.0151  H       1  <O>11       0.1892
  27 H4        0.5381     3.7855     3.1657  H       1  <O>11       0.0639
  28 H5        2.6960     3.9725     4.3293  H       1  <O>11       0.0618
  29 H6        3.2943     6.0910     5.3694  H       1  <O>11       0.0618
  30 H7        1.8014     7.9989     5.2828  H       1  <O>11       0.0625
  31 H8        1.3491    12.8004     3.4192  H       1  <O>11       0.0625
  32 H9        0.2999    14.9909     3.4122  H       1  <O>11       0.0647
  33 H10      -0.9311    11.7027     0.0454  H       1  <O>11       0.0654
@<TRIPOS>BOND
     1     1     2    2
     2     2     3    1
     3     3     4    1
     4     4     5    1
     5     5     6    2
     6     5     7    1
     7     7     8   ar
     8     8     9   ar
     9     9    10   ar
    10    10    11   ar
    11    11    12   ar
    12    12    13   ar
    13    13    14   ar
    14    14    15   ar
    15     7    15   ar
    16    10    15   ar
    17     2    16    1
    18    16    17   ar
    19    17    18   ar
    20    18    19   ar
    21    19    20    1
    22    19    21   ar
    23    21    22    1
    24    21    23   ar
    25    16    23   ar
    26     3    24    1
    27     3    25    1
    28     8    26    1
    29    11    27    1
    30    12    28    1
    31    13    29    1
    32    14    30    1
    33    17    31    1
    34    18    32    1
    35    23    33    1
@<TRIPOS>MOLECULE
mol22_1_21
 33 35 0 0 0
SMALL
USER_CHARGES
****
VDW energy = 114.22
@<TRIPOS>ATOM
   1 O1        1.9353    10.5561     1.1197  O.2     1  <O>11      -0.2884
   2 C1        0.9071    10.7531     1.7501  C.2     1  <O>11       0.2004
   3 C2        0.2860     9.6430     2.5310  C.3     1  <O>11       0.1551
   4 O2       -1.0414     9.4334     2.0781  O.3     1  <O>11      -0.4520
   5 C3       -1.6063     8.4251     2.7875  C.2     1  <O>11       0.3581
   6 O3       -2.7556     8.0836     2.5522  O.2     1  <O>11      -0.2432
   7 C4       -0.8709     7.7758     3.7897  C.ar    1  <O>11       0.1504
   8 N1       -0.1500     6.6627     3.6875  N.ar    1  <O>11      -0.2698
   9 N2        0.4471     6.5220     4.9064  N.ar    1  <O>11      -0.1731
  10 C5       -0.0400     7.4589     5.8234  C.ar    1  <O>11       0.0933
  11 C6        0.1074     7.6308     7.2166  C.ar    1  <O>11      -0.0340
  12 C7       -0.5030     8.7327     7.8569  C.ar    1  <O>11      -0.0597
  13 C8       -1.2793     9.6115     7.0824  C.ar    1  <O>11      -0.0610
  14 C9       -1.4683     9.4160     5.7092  C.ar    1  <O>11      -0.0503
  15 C10      -0.8548     8.3181     5.0845  C.ar    1  <O>11       0.0338
  16 C11       0.2870    12.0720     1.7390  C.ar    1  <O>11       0.0237
  17 C12       0.6409    13.0290     2.7042  C.ar    1  <O>11      -0.0483
  18 C13       0.0363    14.2921     2.7000  C.ar    1  <O>11      -0.0229
  19 C14      -0.9230    14.6094     1.7342  C.ar    1  <O>11       0.1584
  20 F1       -1.5221    15.8427     1.7265  F       1  <O>11      -0.2025
  21 C15      -1.2708    13.6559     0.7704  C.ar    1  <O>11       0.1591
  22 F2       -2.2110    13.9726    -0.1763  F       1  <O>11      -0.2025
  23 C16      -0.6709    12.3956     0.7646  C.ar    1  <O>11      -0.0130
  24 H1        0.8666     8.7311     2.3909  H       1  <O>11       0.0782
  25 H2        0.2715     9.9069     3.5880  H       1  <O>11       0.0782
  26 H3       -0.0323     6.0275     2.9113  H       1  <O>11       0.1892
  27 H4        0.6594     6.9537     7.7660  H       1  <O>11       0.0639
  28 H5       -0.3816     8.8884     8.8699  H       1  <O>11       0.0618
  29 H6       -1.7226    10.4240     7.5389  H       1  <O>11       0.0618
  30 H7       -2.0508    10.0701     5.1633  H       1  <O>11       0.0625
  31 H8        1.3491    12.8004     3.4192  H       1  <O>11       0.0625
  32 H9        0.2999    14.9909     3.4122  H       1  <O>11       0.0647
  33 H10      -0.9311    11.7027     0.0454  H       1  <O>11       0.0654
@<TRIPOS>BOND
     1     1     2    2
     2     2     3    1
     3     3     4    1
     4     4     5    1
     5     5     6    2
     6     5     7    1
     7     7     8   ar
     8     8     9   ar
     9     9    10   ar
    10    10    11   ar
    11    11    12   ar
    12    12    13   ar
    13    13    14   ar
    14    14    15   ar
    15     7    15   ar
    16    10    15   ar
    17     2    16    1
    18    16    17   ar
    19    17    18   ar
    20    18    19   ar
    21    19    20    1
    22    19    21   ar
    23    21    22    1
    24    21    23   ar
    25    16    23   ar
    26     3    24    1
    27     3    25    1
    28     8    26    1
    29    11    27    1
    30    12    28    1
    31    13    29    1
    32    14    30    1
    33    17    31    1
    34    18    32    1
    35    23    33    1
@<TRIPOS>MOLECULE
mol22_1_22
 33 35 0 0 0
SMALL
USER_CHARGES
****
VDW energy = 114.39
@<TRIPOS>ATOM
   1 O1        1.9353    10.5561     1.1197  O.2     1  <O>11      -0.2884
   2 C1        0.9071    10.7531     1.7501  C.2     1  <O>11       0.2004
   3 C2        0.2860     9.6430     2.5310  C.3     1  <O>11       0.1551
   4 O2       -0.2014    10.1486     3.7630  O.3     1  <O>11      -0.4520
   5 C3       -0.7656     9.1404     4.4731  C.2     1  <O>11       0.3581
   6 O3       -1.2499     9.3654     5.5720  O.2     1  <O>11      -0.2432
   7 C4       -0.7926     7.8414     3.9452  C.ar    1  <O>11       0.1504
   8 N1       -1.7651     7.2585     3.2499  N.ar    1  <O>11      -0.2698
   9 N2       -1.2525     6.0486     2.8817  N.ar    1  <O>11      -0.1731
  10 C5       -0.0189     5.8100     3.4961  C.ar    1  <O>11       0.0933
  11 C6        0.8227     4.6810     3.5923  C.ar    1  <O>11      -0.0340
  12 C7        2.0563     4.7805     4.2743  C.ar    1  <O>11      -0.0597
  13 C8        2.3919     6.0053     4.8760  C.ar    1  <O>11      -0.0610
  14 C9        1.5369     7.1126     4.8250  C.ar    1  <O>11      -0.0503
  15 C10       0.3146     7.0012     4.1425  C.ar    1  <O>11       0.0338
  16 C11       0.2870    12.0720     1.7390  C.ar    1  <O>11       0.0237
  17 C12      -0.5730    12.4413     0.6918  C.ar    1  <O>11      -0.0483
  18 C13      -1.1595    13.7128     0.6757  C.ar    1  <O>11      -0.0229
  19 C14      -0.8935    14.6230     1.7027  C.ar    1  <O>11       0.1584
  20 F1       -1.4609    15.8712     1.6914  F       1  <O>11      -0.2025
  21 C15      -0.0399    14.2512     2.7478  C.ar    1  <O>11       0.1591
  22 F2        0.2163    15.1469     3.7541  F       1  <O>11      -0.2025
  23 C16       0.5463    12.9848     2.7740  C.ar    1  <O>11      -0.0130
  24 H1       -0.5390     9.2153     1.9612  H       1  <O>11       0.0782
  25 H2        1.0327     8.8735     2.7244  H       1  <O>11       0.0782
  26 H3       -2.6905     7.5878     3.0151  H       1  <O>11       0.1892
  27 H4        0.5381     3.7855     3.1657  H       1  <O>11       0.0639
  28 H5        2.6960     3.9725     4.3293  H       1  <O>11       0.0618
  29 H6        3.2943     6.0910     5.3694  H       1  <O>11       0.0618
  30 H7        1.8014     7.9989     5.2828  H       1  <O>11       0.0625
  31 H8       -0.7734    11.7731    -0.0687  H       1  <O>11       0.0625
  32 H9       -1.7900    13.9788    -0.0968  H       1  <O>11       0.0647
  33 H10       1.1694    12.7198     3.5529  H       1  <O>11       0.0654
@<TRIPOS>BOND
     1     1     2    2
     2     2     3    1
     3     3     4    1
     4     4     5    1
     5     5     6    2
     6     5     7    1
     7     7     8   ar
     8     8     9   ar
     9     9    10   ar
    10    10    11   ar
    11    11    12   ar
    12    12    13   ar
    13    13    14   ar
    14    14    15   ar
    15     7    15   ar
    16    10    15   ar
    17     2    16    1
    18    16    17   ar
    19    17    18   ar
    20    18    19   ar
    21    19    20    1
    22    19    21   ar
    23    21    22    1
    24    21    23   ar
    25    16    23   ar
    26     3    24    1
    27     3    25    1
    28     8    26    1
    29    11    27    1
    30    12    28    1
    31    13    29    1
    32    14    30    1
    33    17    31    1
    34    18    32    1
    35    23    33    1
@<TRIPOS>MOLECULE
mol22_1_23
 33 35 0 0 0
SMALL
USER_CHARGES
****
VDW energy = 117.33
@<TRIPOS>ATOM
   1 O1        1.9353    10.5561     1.1197  O.2     1  <O>11      -0.2884
   2 C1        0.9071    10.7531     1.7501  C.2     1  <O>11       0.2004
   3 C2        0.2860     9.6430     2.5310  C.3     1  <O>11       0.1551
   4 O2       -0.2014    10.1486     3.7630  O.3     1  <O>11      -0.4520
   5 C3       -0.7656     9.1404     4.4731  C.2     1  <O>11       0.3581
   6 O3       -0.7889     8.0090     4.0123  O.2     1  <O>11      -0.2432
   7 C4       -1.3209     9.3975     5.7349  C.ar    1  <O>11       0.1504
   8 N1       -0.8524    10.1955     6.6903  N.ar    1  <O>11      -0.2698
   9 N2       -1.8128    10.1788     7.6595  N.ar    1  <O>11      -0.1731
  10 C5       -2.8032     9.2320     7.3789  C.ar    1  <O>11       0.0933
  11 C6       -3.8883     8.7062     8.1123  C.ar    1  <O>11      -0.0340
  12 C7       -4.7495     7.7603     7.5119  C.ar    1  <O>11      -0.0597
  13 C8       -4.4713     7.3391     6.2004  C.ar    1  <O>11      -0.0610
  14 C9       -3.3671     7.8216     5.4879  C.ar    1  <O>11      -0.0503
  15 C10      -2.5200     8.7626     6.0952  C.ar    1  <O>11       0.0338
  16 C11       0.2870    12.0720     1.7390  C.ar    1  <O>11       0.0237
  17 C12       0.8665    13.1207     1.0062  C.ar    1  <O>11      -0.0483
  18 C13       0.2765    14.3907     1.0052  C.ar    1  <O>11      -0.0229
  19 C14      -0.8940    14.6230     1.7330  C.ar    1  <O>11       0.1584
  20 F1       -1.4750    15.8650     1.7400  F       1  <O>11      -0.2025
  21 C15      -1.4725    13.5753     2.4588  C.ar    1  <O>11       0.1591
  22 F2       -2.6219    13.8075     3.1696  F       1  <O>11      -0.2025
  23 C16      -0.8935    12.3053     2.4628  C.ar    1  <O>11      -0.0130
  24 H1       -0.5390     9.2153     1.9612  H       1  <O>11       0.0782
  25 H2        1.0327     8.8735     2.7244  H       1  <O>11       0.0782
  26 H3        0.0088    10.7206     6.7413  H       1  <O>11       0.1892
  27 H4       -4.0525     9.0116     9.0844  H       1  <O>11       0.0639
  28 H5       -5.5639     7.3873     8.0246  H       1  <O>11       0.0618
  29 H6       -5.0988     6.6549     5.7498  H       1  <O>11       0.0618
  30 H7       -3.1782     7.4900     4.5290  H       1  <O>11       0.0625
  31 H8        1.7303    12.9547     0.4665  H       1  <O>11       0.0625
  32 H9        0.7073    15.1577     0.4654  H       1  <O>11       0.0647
  33 H10      -1.3323    11.5390     2.9969  H       1  <O>11       0.0654
@<TRIPOS>BOND
     1     1     2    2
     2     2     3    1
     3     3     4    1
     4     4     5    1
     5     5     6    2
     6     5     7    1
     7     7     8   ar
     8     8     9   ar
     9     9    10   ar
    10    10    11   ar
    11    11    12   ar
    12    12    13   ar
    13    13    14   ar
    14    14    15   ar
    15     7    15   ar
    16    10    15   ar
    17     2    16    1
    18    16    17   ar
    19    17    18   ar
    20    18    19   ar
    21    19    20    1
    22    19    21   ar
    23    21    22    1
    24    21    23   ar
    25    16    23   ar
    26     3    24    1
    27     3    25    1
    28     8    26    1
    29    11    27    1
    30    12    28    1
    31    13    29    1
    32    14    30    1
    33    17    31    1
    34    18    32    1
    35    23    33    1
@<TRIPOS>MOLECULE
mol22_1_24
 33 35 0 0 0
SMALL
USER_CHARGES
****
VDW energy = 117.61
@<TRIPOS>ATOM
   1 O1        1.9353    10.5561     1.1197  O.2     1  <O>11      -0.2884
   2 C1        0.9071    10.7531     1.7501  C.2     1  <O>11       0.2004
   3 C2        0.2860     9.6430     2.5310  C.3     1  <O>11       0.1551
   4 O2       -0.2014    10.1486     3.7630  O.3     1  <O>11      -0.4520
   5 C3        0.8258    10.6807     4.4705  C.2     1  <O>11       0.3581
   6 O3        1.9566    10.6659     4.0082  O.2     1  <O>11      -0.2432
   7 C4        0.5888    11.2473     5.7313  C.ar    1  <O>11       0.1504
   8 N1        0.3508    12.5223     6.0262  N.ar    1  <O>11      -0.2698
   9 N2        0.0796    12.5253     7.3635  N.ar    1  <O>11      -0.1731
  10 C5        0.3178    11.2709     7.9343  C.ar    1  <O>11       0.0933
  11 C6        0.3627    10.7939     9.2619  C.ar    1  <O>11      -0.0340
  12 C7        0.5997     9.4228     9.5082  C.ar    1  <O>11      -0.0597
  13 C8        0.8246     8.5744     8.4106  C.ar    1  <O>11      -0.0610
  14 C9        0.8300     9.0534     7.0953  C.ar    1  <O>11      -0.0503
  15 C10       0.5914    10.4178     6.8639  C.ar    1  <O>11       0.0338
  16 C11       0.2870    12.0720     1.7390  C.ar    1  <O>11       0.0237
  17 C12      -0.5730    12.4413     0.6918  C.ar    1  <O>11      -0.0483
  18 C13      -1.1595    13.7128     0.6757  C.ar    1  <O>11      -0.0229
  19 C14      -0.8935    14.6230     1.7027  C.ar    1  <O>11       0.1584
  20 F1       -1.4609    15.8712     1.6914  F       1  <O>11      -0.2025
  21 C15      -0.0399    14.2512     2.7478  C.ar    1  <O>11       0.1591
  22 F2        0.2163    15.1469     3.7541  F       1  <O>11      -0.2025
  23 C16       0.5463    12.9848     2.7740  C.ar    1  <O>11      -0.0130
  24 H1       -0.5390     9.2153     1.9612  H       1  <O>11       0.0782
  25 H2        1.0327     8.8735     2.7244  H       1  <O>11       0.0782
  26 H3        0.3544    13.3426     5.4370  H       1  <O>11       0.1892
  27 H4        0.2228    11.4447    10.0506  H       1  <O>11       0.0639
  28 H5        0.6075     9.0530    10.4716  H       1  <O>11       0.0618
  29 H6        0.9904     7.5699     8.5791  H       1  <O>11       0.0618
  30 H7        1.0070     8.4123     6.3061  H       1  <O>11       0.0625
  31 H8       -0.7734    11.7731    -0.0687  H       1  <O>11       0.0625
  32 H9       -1.7900    13.9788    -0.0968  H       1  <O>11       0.0647
  33 H10       1.1694    12.7198     3.5529  H       1  <O>11       0.0654
@<TRIPOS>BOND
     1     1     2    2
     2     2     3    1
     3     3     4    1
     4     4     5    1
     5     5     6    2
     6     5     7    1
     7     7     8   ar
     8     8     9   ar
     9     9    10   ar
    10    10    11   ar
    11    11    12   ar
    12    12    13   ar
    13    13    14   ar
    14    14    15   ar
    15     7    15   ar
    16    10    15   ar
    17     2    16    1
    18    16    17   ar
    19    17    18   ar
    20    18    19   ar
    21    19    20    1
    22    19    21   ar
    23    21    22    1
    24    21    23   ar
    25    16    23   ar
    26     3    24    1
    27     3    25    1
    28     8    26    1
    29    11    27    1
    30    12    28    1
    31    13    29    1
    32    14    30    1
    33    17    31    1
    34    18    32    1
    35    23    33    1
@<TRIPOS>MOLECULE
mol22_1_25
 33 35 0 0 0
SMALL
USER_CHARGES
****
VDW energy = 117.99
@<TRIPOS>ATOM
   1 O1        1.9353    10.5561     1.1197  O.2     1  <O>11      -0.2884
   2 C1        0.9071    10.7531     1.7501  C.2     1  <O>11       0.2004
   3 C2        0.2860     9.6430     2.5310  C.3     1  <O>11       0.1551
   4 O2        1.0683     8.4691     2.3854  O.3     1  <O>11      -0.4520
   5 C3        2.3217     8.7019     2.8474  C.2     1  <O>11       0.3581
   6 O3        2.6114     9.8003     3.2974  O.2     1  <O>11      -0.2432
   7 C4        3.2835     7.6820     2.8083  C.ar    1  <O>11       0.1504
   8 N1        3.4928     6.7882     1.8458  N.ar    1  <O>11      -0.2698
   9 N2        4.6038     6.1028     2.2432  N.ar    1  <O>11      -0.1731
  10 C5        4.9854     6.4595     3.5405  C.ar    1  <O>11       0.0933
  11 C6        5.9248     5.9443     4.4594  C.ar    1  <O>11      -0.0340
  12 C7        6.0996     6.5735     5.7125  C.ar    1  <O>11      -0.0597
  13 C8        5.2946     7.6828     6.0230  C.ar    1  <O>11      -0.0610
  14 C9        4.3273     8.1659     5.1338  C.ar    1  <O>11      -0.0503
  15 C10       4.1647     7.5328     3.8909  C.ar    1  <O>11       0.0338
  16 C11       0.2870    12.0720     1.7390  C.ar    1  <O>11       0.0237
  17 C12       0.6409    13.0290     2.7042  C.ar    1  <O>11      -0.0483
  18 C13       0.0363    14.2921     2.7000  C.ar    1  <O>11      -0.0229
  19 C14      -0.9230    14.6094     1.7342  C.ar    1  <O>11       0.1584
  20 F1       -1.5221    15.8427     1.7265  F       1  <O>11      -0.2025
  21 C15      -1.2708    13.6559     0.7704  C.ar    1  <O>11       0.1591
  22 F2       -2.2110    13.9726    -0.1763  F       1  <O>11      -0.2025
  23 C16      -0.6709    12.3956     0.7646  C.ar    1  <O>11      -0.0130
  24 H1        0.2397     9.9212     3.5839  H       1  <O>11       0.0782
  25 H2       -0.7209     9.4568     2.1588  H       1  <O>11       0.0782
  26 H3        2.9810     6.6117     0.9932  H       1  <O>11       0.1892
  27 H4        6.4824     5.1106     4.2168  H       1  <O>11       0.0639
  28 H5        6.8022     6.2266     6.3842  H       1  <O>11       0.0618
  29 H6        5.4201     8.1546     6.9322  H       1  <O>11       0.0618
  30 H7        3.7415     8.9765     5.3884  H       1  <O>11       0.0625
  31 H8        1.3491    12.8004     3.4192  H       1  <O>11       0.0625
  32 H9        0.2999    14.9909     3.4122  H       1  <O>11       0.0647
  33 H10      -0.9311    11.7027     0.0454  H       1  <O>11       0.0654
@<TRIPOS>BOND
     1     1     2    2
     2     2     3    1
     3     3     4    1
     4     4     5    1
     5     5     6    2
     6     5     7    1
     7     7     8   ar
     8     8     9   ar
     9     9    10   ar
    10    10    11   ar
    11    11    12   ar
    12    12    13   ar
    13    13    14   ar
    14    14    15   ar
    15     7    15   ar
    16    10    15   ar
    17     2    16    1
    18    16    17   ar
    19    17    18   ar
    20    18    19   ar
    21    19    20    1
    22    19    21   ar
    23    21    22    1
    24    21    23   ar
    25    16    23   ar
    26     3    24    1
    27     3    25    1
    28     8    26    1
    29    11    27    1
    30    12    28    1
    31    13    29    1
    32    14    30    1
    33    17    31    1
    34    18    32    1
    35    23    33    1
@<TRIPOS>MOLECULE
mol22_1_26
 33 35 0 0 0
SMALL
USER_CHARGES
****
VDW energy = 121.93
@<TRIPOS>ATOM
   1 O1        1.9353    10.5561     1.1197  O.2     1  <O>11      -0.2884
   2 C1        0.9071    10.7531     1.7501  C.2     1  <O>11       0.2004
   3 C2        0.2860     9.6430     2.5310  C.3     1  <O>11       0.1551
   4 O2        1.0683     8.4691     2.3854  O.3     1  <O>11      -0.4520
   5 C3        0.5043     7.4601     3.0944  C.2     1  <O>11       0.3581
   6 O3        1.0257     6.3552     3.1026  O.2     1  <O>11      -0.2432
   7 C4       -0.6761     7.6862     3.8172  C.ar    1  <O>11       0.1504
   8 N1       -0.8023     8.0202     5.0984  N.ar    1  <O>11      -0.2698
   9 N2       -2.1396     8.2276     5.2738  N.ar    1  <O>11      -0.1731
  10 C5       -2.8660     7.8547     4.1383  C.ar    1  <O>11       0.0933
  11 C6       -4.2425     7.7062     3.8640  C.ar    1  <O>11      -0.0340
  12 C7       -4.6647     7.3394     2.5663  C.ar    1  <O>11      -0.0597
  13 C8       -3.6860     7.0932     1.5883  C.ar    1  <O>11      -0.0610
  14 C9       -2.3183     7.1912     1.8704  C.ar    1  <O>11      -0.0503
  15 C10      -1.9119     7.5583     3.1635  C.ar    1  <O>11       0.0338
  16 C11       0.2870    12.0720     1.7390  C.ar    1  <O>11       0.0237
  17 C12      -0.5730    12.4413     0.6918  C.ar    1  <O>11      -0.0483
  18 C13      -1.1595    13.7128     0.6757  C.ar    1  <O>11      -0.0229
  19 C14      -0.8935    14.6230     1.7027  C.ar    1  <O>11       0.1584
  20 F1       -1.4609    15.8712     1.6914  F       1  <O>11      -0.2025
  21 C15      -0.0399    14.2512     2.7478  C.ar    1  <O>11       0.1591
  22 F2        0.2163    15.1469     3.7541  F       1  <O>11      -0.2025
  23 C16       0.5463    12.9848     2.7740  C.ar    1  <O>11      -0.0130
  24 H1        0.2397     9.9212     3.5839  H       1  <O>11       0.0782
  25 H2       -0.7209     9.4568     2.1588  H       1  <O>11       0.0782
  26 H3       -0.1045     8.1157     5.8223  H       1  <O>11       0.1892
  27 H4       -4.9387     7.8651     4.6090  H       1  <O>11       0.0639
  28 H5       -5.6684     7.2543     2.3419  H       1  <O>11       0.0618
  29 H6       -3.9839     6.8328     0.6352  H       1  <O>11       0.0618
  30 H7       -1.6181     6.9963     1.1378  H       1  <O>11       0.0625
  31 H8       -0.7734    11.7731    -0.0687  H       1  <O>11       0.0625
  32 H9       -1.7900    13.9788    -0.0968  H       1  <O>11       0.0647
  33 H10       1.1694    12.7198     3.5529  H       1  <O>11       0.0654
@<TRIPOS>BOND
     1     1     2    2
     2     2     3    1
     3     3     4    1
     4     4     5    1
     5     5     6    2
     6     5     7    1
     7     7     8   ar
     8     8     9   ar
     9     9    10   ar
    10    10    11   ar
    11    11    12   ar
    12    12    13   ar
    13    13    14   ar
    14    14    15   ar
    15     7    15   ar
    16    10    15   ar
    17     2    16    1
    18    16    17   ar
    19    17    18   ar
    20    18    19   ar
    21    19    20    1
    22    19    21   ar
    23    21    22    1
    24    21    23   ar
    25    16    23   ar
    26     3    24    1
    27     3    25    1
    28     8    26    1
    29    11    27    1
    30    12    28    1
    31    13    29    1
    32    14    30    1
    33    17    31    1
    34    18    32    1
    35    23    33    1
@<TRIPOS>MOLECULE
mol22_1_27
 33 35 0 0 0
SMALL
USER_CHARGES
****
VDW energy = 121.94
@<TRIPOS>ATOM
   1 O1        1.9353    10.5561     1.1197  O.2     1  <O>11      -0.2884
   2 C1        0.9071    10.7531     1.7501  C.2     1  <O>11       0.2004
   3 C2        0.2860     9.6430     2.5310  C.3     1  <O>11       0.1551
   4 O2        1.0683     8.4691     2.3854  O.3     1  <O>11      -0.4520
   5 C3        0.5043     7.4601     3.0944  C.2     1  <O>11       0.3581
   6 O3        1.0257     6.3552     3.1026  O.2     1  <O>11      -0.2432
   7 C4       -0.6761     7.6862     3.8172  C.ar    1  <O>11       0.1504
   8 N1       -0.8023     8.0202     5.0984  N.ar    1  <O>11      -0.2698
   9 N2       -2.1396     8.2276     5.2738  N.ar    1  <O>11      -0.1731
  10 C5       -2.8660     7.8547     4.1383  C.ar    1  <O>11       0.0933
  11 C6       -4.2425     7.7062     3.8640  C.ar    1  <O>11      -0.0340
  12 C7       -4.6647     7.3394     2.5663  C.ar    1  <O>11      -0.0597
  13 C8       -3.6860     7.0932     1.5883  C.ar    1  <O>11      -0.0610
  14 C9       -2.3183     7.1912     1.8704  C.ar    1  <O>11      -0.0503
  15 C10      -1.9119     7.5583     3.1635  C.ar    1  <O>11       0.0338
  16 C11       0.2870    12.0720     1.7390  C.ar    1  <O>11       0.0237
  17 C12       0.6409    13.0290     2.7042  C.ar    1  <O>11      -0.0483
  18 C13       0.0363    14.2921     2.7000  C.ar    1  <O>11      -0.0229
  19 C14      -0.9230    14.6094     1.7342  C.ar    1  <O>11       0.1584
  20 F1       -1.5221    15.8427     1.7265  F       1  <O>11      -0.2025
  21 C15      -1.2708    13.6559     0.7704  C.ar    1  <O>11       0.1591
  22 F2       -2.2110    13.9726    -0.1763  F       1  <O>11      -0.2025
  23 C16      -0.6709    12.3956     0.7646  C.ar    1  <O>11      -0.0130
  24 H1        0.2397     9.9212     3.5839  H       1  <O>11       0.0782
  25 H2       -0.7209     9.4568     2.1588  H       1  <O>11       0.0782
  26 H3       -0.1045     8.1157     5.8223  H       1  <O>11       0.1892
  27 H4       -4.9387     7.8651     4.6090  H       1  <O>11       0.0639
  28 H5       -5.6684     7.2543     2.3419  H       1  <O>11       0.0618
  29 H6       -3.9839     6.8328     0.6352  H       1  <O>11       0.0618
  30 H7       -1.6181     6.9963     1.1378  H       1  <O>11       0.0625
  31 H8        1.3491    12.8004     3.4192  H       1  <O>11       0.0625
  32 H9        0.2999    14.9909     3.4122  H       1  <O>11       0.0647
  33 H10      -0.9311    11.7027     0.0454  H       1  <O>11       0.0654
@<TRIPOS>BOND
     1     1     2    2
     2     2     3    1
     3     3     4    1
     4     4     5    1
     5     5     6    2
     6     5     7    1
     7     7     8   ar
     8     8     9   ar
     9     9    10   ar
    10    10    11   ar
    11    11    12   ar
    12    12    13   ar
    13    13    14   ar
    14    14    15   ar
    15     7    15   ar
    16    10    15   ar
    17     2    16    1
    18    16    17   ar
    19    17    18   ar
    20    18    19   ar
    21    19    20    1
    22    19    21   ar
    23    21    22    1
    24    21    23   ar
    25    16    23   ar
    26     3    24    1
    27     3    25    1
    28     8    26    1
    29    11    27    1
    30    12    28    1
    31    13    29    1
    32    14    30    1
    33    17    31    1
    34    18    32    1
    35    23    33    1
@<TRIPOS>MOLECULE
mol22_1_28
 33 35 0 0 0
SMALL
USER_CHARGES
****
VDW energy = 122.87
@<TRIPOS>ATOM
   1 O1        1.9353    10.5561     1.1197  O.2     1  <O>11      -0.2884
   2 C1        0.9071    10.7531     1.7501  C.2     1  <O>11       0.2004
   3 C2        0.2860     9.6430     2.5310  C.3     1  <O>11       0.1551
   4 O2        1.0683     8.4691     2.3854  O.3     1  <O>11      -0.4520
   5 C3        0.5043     7.4601     3.0944  C.2     1  <O>11       0.3581
   6 O3        1.0257     6.3552     3.1026  O.2     1  <O>11      -0.2432
   7 C4       -0.6761     7.6862     3.8172  C.ar    1  <O>11       0.1504
   8 N1       -0.8023     8.0202     5.0984  N.ar    1  <O>11      -0.2698
   9 N2       -2.1396     8.2276     5.2738  N.ar    1  <O>11      -0.1731
  10 C5       -2.8660     7.8547     4.1383  C.ar    1  <O>11       0.0933
  11 C6       -4.2425     7.7062     3.8640  C.ar    1  <O>11      -0.0340
  12 C7       -4.6647     7.3394     2.5663  C.ar    1  <O>11      -0.0597
  13 C8       -3.6860     7.0932     1.5883  C.ar    1  <O>11      -0.0610
  14 C9       -2.3183     7.1912     1.8704  C.ar    1  <O>11      -0.0503
  15 C10      -1.9119     7.5583     3.1635  C.ar    1  <O>11       0.0338
  16 C11       0.2870    12.0720     1.7390  C.ar    1  <O>11       0.0237
  17 C12      -1.0220    12.2350     1.2568  C.ar    1  <O>11      -0.0483
  18 C13      -1.6131    13.5043     1.2357  C.ar    1  <O>11      -0.0229
  19 C14      -0.9044    14.6178     1.6955  C.ar    1  <O>11       0.1584
  20 F1       -1.4753    15.8643     1.6740  F       1  <O>11      -0.2025
  21 C15       0.3983    14.4525     2.1801  C.ar    1  <O>11       0.1591
  22 F2        1.0888    15.5476     2.6320  F       1  <O>11      -0.2025
  23 C16       0.9943    13.1907     2.2082  C.ar    1  <O>11      -0.0130
  24 H1        0.2397     9.9212     3.5839  H       1  <O>11       0.0782
  25 H2       -0.7209     9.4568     2.1588  H       1  <O>11       0.0782
  26 H3       -0.1045     8.1157     5.8223  H       1  <O>11       0.1892
  27 H4       -4.9387     7.8651     4.6090  H       1  <O>11       0.0639
  28 H5       -5.6684     7.2543     2.3419  H       1  <O>11       0.0618
  29 H6       -3.9839     6.8328     0.6352  H       1  <O>11       0.0618
  30 H7       -1.6181     6.9963     1.1378  H       1  <O>11       0.0625
  31 H8       -1.5502    11.4162     0.9167  H       1  <O>11       0.0625
  32 H9       -2.5751    13.6179     0.8795  H       1  <O>11       0.0647
  33 H10       1.9532    13.0801     2.5732  H       1  <O>11       0.0654
@<TRIPOS>BOND
     1     1     2    2
     2     2     3    1
     3     3     4    1
     4     4     5    1
     5     5     6    2
     6     5     7    1
     7     7     8   ar
     8     8     9   ar
     9     9    10   ar
    10    10    11   ar
    11    11    12   ar
    12    12    13   ar
    13    13    14   ar
    14    14    15   ar
    15     7    15   ar
    16    10    15   ar
    17     2    16    1
    18    16    17   ar
    19    17    18   ar
    20    18    19   ar
    21    19    20    1
    22    19    21   ar
    23    21    22    1
    24    21    23   ar
    25    16    23   ar
    26     3    24    1
    27     3    25    1
    28     8    26    1
    29    11    27    1
    30    12    28    1
    31    13    29    1
    32    14    30    1
    33    17    31    1
    34    18    32    1
    35    23    33    1
@<TRIPOS>MOLECULE
mol22_1_29
 33 35 0 0 0
SMALL
USER_CHARGES
****
VDW energy = 127.08
@<TRIPOS>ATOM
   1 O1        1.9353    10.5561     1.1197  O.2     1  <O>11      -0.2884
   2 C1        0.9071    10.7531     1.7501  C.2     1  <O>11       0.2004
   3 C2        0.2860     9.6430     2.5310  C.3     1  <O>11       0.1551
   4 O2        1.0683     8.4691     2.3854  O.3     1  <O>11      -0.4520
   5 C3        0.5043     7.4601     3.0944  C.2     1  <O>11       0.3581
   6 O3        1.0257     6.3552     3.1026  O.2     1  <O>11      -0.2432
   7 C4       -0.6761     7.6862     3.8172  C.ar    1  <O>11       0.1504
   8 N1       -0.8023     8.0202     5.0984  N.ar    1  <O>11      -0.2698
   9 N2       -2.1396     8.2276     5.2738  N.ar    1  <O>11      -0.1731
  10 C5       -2.8660     7.8547     4.1383  C.ar    1  <O>11       0.0933
  11 C6       -4.2425     7.7062     3.8640  C.ar    1  <O>11      -0.0340
  12 C7       -4.6647     7.3394     2.5663  C.ar    1  <O>11      -0.0597
  13 C8       -3.6860     7.0932     1.5883  C.ar    1  <O>11      -0.0610
  14 C9       -2.3183     7.1912     1.8704  C.ar    1  <O>11      -0.0503
  15 C10      -1.9119     7.5583     3.1635  C.ar    1  <O>11       0.0338
  16 C11       0.2870    12.0720     1.7390  C.ar    1  <O>11       0.0237
  17 C12       0.8665    13.1207     1.0062  C.ar    1  <O>11      -0.0483
  18 C13       0.2765    14.3907     1.0052  C.ar    1  <O>11      -0.0229
  19 C14      -0.8940    14.6230     1.7330  C.ar    1  <O>11       0.1584
  20 F1       -1.4750    15.8650     1.7400  F       1  <O>11      -0.2025
  21 C15      -1.4725    13.5753     2.4588  C.ar    1  <O>11       0.1591
  22 F2       -2.6219    13.8075     3.1696  F       1  <O>11      -0.2025
  23 C16      -0.8935    12.3053     2.4628  C.ar    1  <O>11      -0.0130
  24 H1        0.2397     9.9212     3.5839  H       1  <O>11       0.0782
  25 H2       -0.7209     9.4568     2.1588  H       1  <O>11       0.0782
  26 H3       -0.1045     8.1157     5.8223  H       1  <O>11       0.1892
  27 H4       -4.9387     7.8651     4.6090  H       1  <O>11       0.0639
  28 H5       -5.6684     7.2543     2.3419  H       1  <O>11       0.0618
  29 H6       -3.9839     6.8328     0.6352  H       1  <O>11       0.0618
  30 H7       -1.6181     6.9963     1.1378  H       1  <O>11       0.0625
  31 H8        1.7303    12.9547     0.4665  H       1  <O>11       0.0625
  32 H9        0.7073    15.1577     0.4654  H       1  <O>11       0.0647
  33 H10      -1.3323    11.5390     2.9969  H       1  <O>11       0.0654
@<TRIPOS>BOND
     1     1     2    2
     2     2     3    1
     3     3     4    1
     4     4     5    1
     5     5     6    2
     6     5     7    1
     7     7     8   ar
     8     8     9   ar
     9     9    10   ar
    10    10    11   ar
    11    11    12   ar
    12    12    13   ar
    13    13    14   ar
    14    14    15   ar
    15     7    15   ar
    16    10    15   ar
    17     2    16    1
    18    16    17   ar
    19    17    18   ar
    20    18    19   ar
    21    19    20    1
    22    19    21   ar
    23    21    22    1
    24    21    23   ar
    25    16    23   ar
    26     3    24    1
    27     3    25    1
    28     8    26    1
    29    11    27    1
    30    12    28    1
    31    13    29    1
    32    14    30    1
    33    17    31    1
    34    18    32    1
    35    23    33    1
@<TRIPOS>MOLECULE
mol22_1_30
 33 35 0 0 0
SMALL
USER_CHARGES
****
VDW energy = 129.10
@<TRIPOS>ATOM
   1 O1        1.9353    10.5561     1.1197  O.2     1  <O>11      -0.2884
   2 C1        0.9071    10.7531     1.7501  C.2     1  <O>11       0.2004
   3 C2        0.2860     9.6430     2.5310  C.3     1  <O>11       0.1551
   4 O2       -0.2014    10.1486     3.7630  O.3     1  <O>11      -0.4520
   5 C3       -0.7656     9.1404     4.4731  C.2     1  <O>11       0.3581
   6 O3       -1.2499     9.3654     5.5720  O.2     1  <O>11      -0.2432
   7 C4       -0.7926     7.8414     3.9452  C.ar    1  <O>11       0.1504
   8 N1       -1.7651     7.2585     3.2499  N.ar    1  <O>11      -0.2698
   9 N2       -1.2525     6.0486     2.8817  N.ar    1  <O>11      -0.1731
  10 C5       -0.0189     5.8100     3.4961  C.ar    1  <O>11       0.0933
  11 C6        0.8227     4.6810     3.5923  C.ar    1  <O>11      -0.0340
  12 C7        2.0563     4.7805     4.2743  C.ar    1  <O>11      -0.0597
  13 C8        2.3919     6.0053     4.8760  C.ar    1  <O>11      -0.0610
  14 C9        1.5369     7.1126     4.8250  C.ar    1  <O>11      -0.0503
  15 C10       0.3146     7.0012     4.1425  C.ar    1  <O>11       0.0338
  16 C11       0.2870    12.0720     1.7390  C.ar    1  <O>11       0.0237
  17 C12       0.8665    13.1207     1.0062  C.ar    1  <O>11      -0.0483
  18 C13       0.2765    14.3907     1.0052  C.ar    1  <O>11      -0.0229
  19 C14      -0.8940    14.6230     1.7330  C.ar    1  <O>11       0.1584
  20 F1       -1.4750    15.8650     1.7400  F       1  <O>11      -0.2025
  21 C15      -1.4725    13.5753     2.4588  C.ar    1  <O>11       0.1591
  22 F2       -2.6219    13.8075     3.1696  F       1  <O>11      -0.2025
  23 C16      -0.8935    12.3053     2.4628  C.ar    1  <O>11      -0.0130
  24 H1       -0.5390     9.2153     1.9612  H       1  <O>11       0.0782
  25 H2        1.0327     8.8735     2.7244  H       1  <O>11       0.0782
  26 H3       -2.6905     7.5878     3.0151  H       1  <O>11       0.1892
  27 H4        0.5381     3.7855     3.1657  H       1  <O>11       0.0639
  28 H5        2.6960     3.9725     4.3293  H       1  <O>11       0.0618
  29 H6        3.2943     6.0910     5.3694  H       1  <O>11       0.0618
  30 H7        1.8014     7.9989     5.2828  H       1  <O>11       0.0625
  31 H8        1.7303    12.9547     0.4665  H       1  <O>11       0.0625
  32 H9        0.7073    15.1577     0.4654  H       1  <O>11       0.0647
  33 H10      -1.3323    11.5390     2.9969  H       1  <O>11       0.0654
@<TRIPOS>BOND
     1     1     2    2
     2     2     3    1
     3     3     4    1
     4     4     5    1
     5     5     6    2
     6     5     7    1
     7     7     8   ar
     8     8     9   ar
     9     9    10   ar
    10    10    11   ar
    11    11    12   ar
    12    12    13   ar
    13    13    14   ar
    14    14    15   ar
    15     7    15   ar
    16    10    15   ar
    17     2    16    1
    18    16    17   ar
    19    17    18   ar
    20    18    19   ar
    21    19    20    1
    22    19    21   ar
    23    21    22    1
    24    21    23   ar
    25    16    23   ar
    26     3    24    1
    27     3    25    1
    28     8    26    1
    29    11    27    1
    30    12    28    1
    31    13    29    1
    32    14    30    1
    33    17    31    1
    34    18    32    1
    35    23    33    1
