@<TRIPOS>MOLECULE
mol29_1_1
 43 45 0 0 0
SMALL
USER_CHARGES
****
VDW energy = 48.60
@<TRIPOS>ATOM
   1 O1        2.8627    -8.7918    -6.4269  O.2     1  <O>11      -0.2699
   2 C1        3.4528    -9.1250    -5.4100  C.2     1  <O>11       0.2484
   3 N1        2.7960    -9.8280    -4.4360  N.am    1  <O>11      -0.2786
   4 C2        1.4620   -10.1610    -4.6040  C.ar    1  <O>11       0.0756
   5 C3        0.4760    -9.2795    -4.1544  C.ar    1  <O>11      -0.0369
   6 C4       -0.8735    -9.6150    -4.3085  C.ar    1  <O>11      -0.0598
   7 C5       -1.2335   -10.8221    -4.9140  C.ar    1  <O>11      -0.0582
   8 C6       -0.2351   -11.6914    -5.3657  C.ar    1  <O>11      -0.0183
   9 C7        1.1138   -11.3648    -5.2171  C.ar    1  <O>11       0.1380
  10 O2        2.0380   -12.1657    -5.6413  O.3     1  <O>11      -0.5049
  11 C8        4.8560    -8.7740    -5.2340  C.ar    1  <O>11       0.0389
  12 C9        5.7494    -9.6911    -4.6558  C.ar    1  <O>11      -0.0495
  13 C10       7.0938    -9.3482    -4.4750  C.ar    1  <O>11      -0.0592
  14 C11       7.5597    -8.0925    -4.8739  C.ar    1  <O>11      -0.0350
  15 C12       6.6701    -7.1814    -5.4558  C.ar    1  <O>11       0.1092
  16 S1        7.2628    -5.6016    -5.9561  S.O2    1  <O>11       0.0725
  17 O3        8.9150    -5.5530    -5.7920  O.2     1  <O>11      -0.1500
  18 O4        6.5777    -4.4260    -5.0027  O.2     1  <O>11      -0.1500
  19 N2        6.8584    -5.3362    -7.5350  N.pl3   1  <O>11      -0.2127
  20 C13       7.3404    -6.2349    -8.5682  C.ar    1  <O>11       0.0893
  21 C14       6.5867    -7.3623    -8.9348  C.ar    1  <O>11      -0.0358
  22 C15       7.0574    -8.2356    -9.9214  C.ar    1  <O>11      -0.0597
  23 C16       8.2787    -7.9884   -10.5533  C.ar    1  <O>11      -0.0582
  24 C17       9.0254    -6.8629   -10.1934  C.ar    1  <O>11      -0.0183
  25 C18       8.5640    -5.9861    -9.2104  C.ar    1  <O>11       0.1391
  26 O5        9.2521    -4.9394    -8.8818  O.3     1  <O>11      -0.5049
  27 C19       5.3277    -7.5143    -5.6396  C.ar    1  <O>11      -0.0230
  28 H1        3.2880   -10.1060    -3.5870  H       1  <O>11       0.1552
  29 H2        2.9085   -11.7816    -5.4560  H       1  <O>11       0.2922
  30 H3        6.2692    -4.5424    -7.7843  H       1  <O>11       0.1738
  31 H4        8.7833    -4.4494    -8.1875  H       1  <O>11       0.2922
  32 H5        0.7414    -8.3861    -3.7113  H       1  <O>11       0.0637
  33 H6       -1.6055    -8.9691    -3.9738  H       1  <O>11       0.0618
  34 H7       -2.2288   -11.0702    -5.0272  H       1  <O>11       0.0619
  35 H8       -0.4985   -12.5832    -5.8132  H       1  <O>11       0.0655
  36 H9        5.4128   -10.6217    -4.3632  H       1  <O>11       0.0625
  37 H10       7.7438   -10.0250    -4.0455  H       1  <O>11       0.0618
  38 H11       8.5511    -7.8389    -4.7406  H       1  <O>11       0.0637
  39 H12       5.6818    -7.5473    -8.4744  H       1  <O>11       0.0638
  40 H13       6.5011    -9.0645   -10.1830  H       1  <O>11       0.0618
  41 H14       8.6271    -8.6322   -11.2807  H       1  <O>11       0.0619
  42 H15       9.9274    -6.6783   -10.6594  H       1  <O>11       0.0655
  43 H16       4.6819    -6.8360    -6.0731  H       1  <O>11       0.0645
@<TRIPOS>BOND
     1     1     2    2
     2     2     3   am
     3     3     4    1
     4     4     5   ar
     5     5     6   ar
     6     6     7   ar
     7     7     8   ar
     8     8     9   ar
     9     4     9   ar
    10     9    10    1
    11     2    11    1
    12    11    12   ar
    13    12    13   ar
    14    13    14   ar
    15    14    15   ar
    16    15    16    1
    17    16    17    2
    18    16    18    2
    19    16    19    1
    20    19    20    1
    21    20    21   ar
    22    21    22   ar
    23    22    23   ar
    24    23    24   ar
    25    24    25   ar
    26    20    25   ar
    27    25    26    1
    28    15    27   ar
    29    11    27   ar
    30     3    28    1
    31    10    29    1
    32    19    30    1
    33    26    31    1
    34     5    32    1
    35     6    33    1
    36     7    34    1
    37     8    35    1
    38    12    36    1
    39    13    37    1
    40    14    38    1
    41    21    39    1
    42    22    40    1
    43    23    41    1
    44    24    42    1
    45    27    43    1
@<TRIPOS>MOLECULE
mol29_1_2
 43 45 0 0 0
SMALL
USER_CHARGES
****
VDW energy = 59.05
@<TRIPOS>ATOM
   1 O1        2.8627    -8.7918    -6.4269  O.2     1  <O>11      -0.2699
   2 C1        3.4528    -9.1250    -5.4100  C.2     1  <O>11       0.2484
   3 N1        2.7960    -9.8280    -4.4360  N.am    1  <O>11      -0.2786
   4 C2        1.4620   -10.1610    -4.6040  C.ar    1  <O>11       0.0756
   5 C3        0.4760    -9.2795    -4.1544  C.ar    1  <O>11      -0.0369
   6 C4       -0.8735    -9.6150    -4.3085  C.ar    1  <O>11      -0.0598
   7 C5       -1.2335   -10.8221    -4.9140  C.ar    1  <O>11      -0.0582
   8 C6       -0.2351   -11.6914    -5.3657  C.ar    1  <O>11      -0.0183
   9 C7        1.1138   -11.3648    -5.2171  C.ar    1  <O>11       0.1380
  10 O2        2.0380   -12.1657    -5.6413  O.3     1  <O>11      -0.5049
  11 C8        4.8560    -8.7740    -5.2340  C.ar    1  <O>11       0.0389
  12 C9        5.6106    -8.3011    -6.3206  C.ar    1  <O>11      -0.0495
  13 C10       6.9614    -7.9770    -6.1537  C.ar    1  <O>11      -0.0592
  14 C11       7.5691    -8.1155    -4.9029  C.ar    1  <O>11      -0.0350
  15 C12       6.8149    -8.5807    -3.8190  C.ar    1  <O>11       0.1092
  16 S1        7.5857    -8.7529    -2.2463  S.O2    1  <O>11       0.0725
  17 O3        9.1209    -8.1216    -2.3105  O.2     1  <O>11      -0.1500
  18 O4        7.6663   -10.3625    -1.8426  O.2     1  <O>11      -0.1500
  19 N2        6.7043    -7.9425    -1.1090  N.pl3   1  <O>11      -0.2127
  20 C13       6.9812    -8.1433     0.3018  C.ar    1  <O>11       0.0893
  21 C14       7.9178    -7.3312     0.9628  C.ar    1  <O>11      -0.0358
  22 C15       8.1941    -7.5332     2.3193  C.ar    1  <O>11      -0.0597
  23 C16       7.5352    -8.5412     3.0277  C.ar    1  <O>11      -0.0582
  24 C17       6.5983    -9.3447     2.3717  C.ar    1  <O>11      -0.0183
  25 C18       6.3160    -9.1508     1.0188  C.ar    1  <O>11       0.1391
  26 O5        5.4428    -9.8904     0.4126  O.3     1  <O>11      -0.5049
  27 C19       5.4674    -8.9069    -3.9760  C.ar    1  <O>11      -0.0230
  28 H1        3.2880   -10.1060    -3.5870  H       1  <O>11       0.1552
  29 H2        2.9085   -11.7816    -5.4560  H       1  <O>11       0.2922
  30 H3        5.9671    -7.3001    -1.3973  H       1  <O>11       0.1738
  31 H4        5.3769    -9.6169    -0.5163  H       1  <O>11       0.2922
  32 H5        0.7414    -8.3861    -3.7113  H       1  <O>11       0.0637
  33 H6       -1.6055    -8.9691    -3.9738  H       1  <O>11       0.0618
  34 H7       -2.2288   -11.0702    -5.0272  H       1  <O>11       0.0619
  35 H8       -0.4985   -12.5832    -5.8132  H       1  <O>11       0.0655
  36 H9        5.1666    -8.1924    -7.2458  H       1  <O>11       0.0625
  37 H10       7.5110    -7.6345    -6.9572  H       1  <O>11       0.0618
  38 H11       8.5654    -7.8768    -4.7792  H       1  <O>11       0.0637
  39 H12       8.4042    -6.5823     0.4454  H       1  <O>11       0.0638
  40 H13       8.8866    -6.9361     2.7980  H       1  <O>11       0.0618
  41 H14       7.7387    -8.6914     4.0282  H       1  <O>11       0.0619
  42 H15       6.1102   -10.0894     2.8935  H       1  <O>11       0.0655
  43 H16       4.9204    -9.2454    -3.1691  H       1  <O>11       0.0645
@<TRIPOS>BOND
     1     1     2    2
     2     2     3   am
     3     3     4    1
     4     4     5   ar
     5     5     6   ar
     6     6     7   ar
     7     7     8   ar
     8     8     9   ar
     9     4     9   ar
    10     9    10    1
    11     2    11    1
    12    11    12   ar
    13    12    13   ar
    14    13    14   ar
    15    14    15   ar
    16    15    16    1
    17    16    17    2
    18    16    18    2
    19    16    19    1
    20    19    20    1
    21    20    21   ar
    22    21    22   ar
    23    22    23   ar
    24    23    24   ar
    25    24    25   ar
    26    20    25   ar
    27    25    26    1
    28    15    27   ar
    29    11    27   ar
    30     3    28    1
    31    10    29    1
    32    19    30    1
    33    26    31    1
    34     5    32    1
    35     6    33    1
    36     7    34    1
    37     8    35    1
    38    12    36    1
    39    13    37    1
    40    14    38    1
    41    21    39    1
    42    22    40    1
    43    23    41    1
    44    24    42    1
    45    27    43    1
@<TRIPOS>MOLECULE
mol29_1_3
 43 45 0 0 0
SMALL
USER_CHARGES
****
VDW energy = 61.22
@<TRIPOS>ATOM
   1 O1        2.8627    -8.7918    -6.4269  O.2     1  <O>11      -0.2699
   2 C1        3.4528    -9.1250    -5.4100  C.2     1  <O>11       0.2484
   3 N1        2.7960    -9.8280    -4.4360  N.am    1  <O>11      -0.2786
   4 C2        1.4620   -10.1610    -4.6040  C.ar    1  <O>11       0.0756
   5 C3        0.4760    -9.2795    -4.1544  C.ar    1  <O>11      -0.0369
   6 C4       -0.8735    -9.6150    -4.3085  C.ar    1  <O>11      -0.0598
   7 C5       -1.2335   -10.8221    -4.9140  C.ar    1  <O>11      -0.0582
   8 C6       -0.2351   -11.6914    -5.3657  C.ar    1  <O>11      -0.0183
   9 C7        1.1138   -11.3648    -5.2171  C.ar    1  <O>11       0.1380
  10 O2        2.0380   -12.1657    -5.6413  O.3     1  <O>11      -0.5049
  11 C8        4.8560    -8.7740    -5.2340  C.ar    1  <O>11       0.0389
  12 C9        5.6106    -8.3011    -6.3206  C.ar    1  <O>11      -0.0495
  13 C10       6.9614    -7.9770    -6.1537  C.ar    1  <O>11      -0.0592
  14 C11       7.5691    -8.1155    -4.9029  C.ar    1  <O>11      -0.0350
  15 C12       6.8149    -8.5807    -3.8190  C.ar    1  <O>11       0.1092
  16 S1        7.5857    -8.7529    -2.2463  S.O2    1  <O>11       0.0725
  17 O3        8.1598    -7.2764    -1.7468  O.2     1  <O>11      -0.1500
  18 O4        8.8485    -9.8262    -2.3634  O.2     1  <O>11      -0.1500
  19 N2        6.4844    -9.3144    -1.1514  N.pl3   1  <O>11      -0.2127
  20 C13       6.9287    -9.7859     0.1477  C.ar    1  <O>11       0.0893
  21 C14       7.2699   -11.1361     0.3328  C.ar    1  <O>11      -0.0358
  22 C15       7.6857   -11.5932     1.5880  C.ar    1  <O>11      -0.0597
  23 C16       7.7701   -10.7075     2.6653  C.ar    1  <O>11      -0.0582
  24 C17       7.4372    -9.3628     2.4794  C.ar    1  <O>11      -0.0183
  25 C18       7.0214    -8.8975     1.2310  C.ar    1  <O>11       0.1391
  26 O5        6.7198    -7.6503     1.0568  O.3     1  <O>11      -0.5049
  27 C19       5.4674    -8.9069    -3.9760  C.ar    1  <O>11      -0.0230
  28 H1        3.2880   -10.1060    -3.5870  H       1  <O>11       0.1552
  29 H2        2.9085   -11.7816    -5.4560  H       1  <O>11       0.2922
  30 H3        5.4926    -9.3285    -1.3868  H       1  <O>11       0.1738
  31 H4        6.4534    -7.5081     0.1344  H       1  <O>11       0.2922
  32 H5        0.7414    -8.3861    -3.7113  H       1  <O>11       0.0637
  33 H6       -1.6055    -8.9691    -3.9738  H       1  <O>11       0.0618
  34 H7       -2.2288   -11.0702    -5.0272  H       1  <O>11       0.0619
  35 H8       -0.4985   -12.5832    -5.8132  H       1  <O>11       0.0655
  36 H9        5.1666    -8.1924    -7.2458  H       1  <O>11       0.0625
  37 H10       7.5110    -7.6345    -6.9572  H       1  <O>11       0.0618
  38 H11       8.5654    -7.8768    -4.7792  H       1  <O>11       0.0637
  39 H12       7.2136   -11.7937    -0.4606  H       1  <O>11       0.0638
  40 H13       7.9306   -12.5872     1.7185  H       1  <O>11       0.0618
  41 H14       8.0762   -11.0438     3.5917  H       1  <O>11       0.0619
  42 H15       7.4995    -8.7070     3.2738  H       1  <O>11       0.0655
  43 H16       4.9204    -9.2454    -3.1691  H       1  <O>11       0.0645
@<TRIPOS>BOND
     1     1     2    2
     2     2     3   am
     3     3     4    1
     4     4     5   ar
     5     5     6   ar
     6     6     7   ar
     7     7     8   ar
     8     8     9   ar
     9     4     9   ar
    10     9    10    1
    11     2    11    1
    12    11    12   ar
    13    12    13   ar
    14    13    14   ar
    15    14    15   ar
    16    15    16    1
    17    16    17    2
    18    16    18    2
    19    16    19    1
    20    19    20    1
    21    20    21   ar
    22    21    22   ar
    23    22    23   ar
    24    23    24   ar
    25    24    25   ar
    26    20    25   ar
    27    25    26    1
    28    15    27   ar
    29    11    27   ar
    30     3    28    1
    31    10    29    1
    32    19    30    1
    33    26    31    1
    34     5    32    1
    35     6    33    1
    36     7    34    1
    37     8    35    1
    38    12    36    1
    39    13    37    1
    40    14    38    1
    41    21    39    1
    42    22    40    1
    43    23    41    1
    44    24    42    1
    45    27    43    1
@<TRIPOS>MOLECULE
mol29_1_4
 43 45 0 0 0
SMALL
USER_CHARGES
****
VDW energy = 61.53
@<TRIPOS>ATOM
   1 O1        2.8627    -8.7918    -6.4269  O.2     1  <O>11      -0.2699
   2 C1        3.4528    -9.1250    -5.4100  C.2     1  <O>11       0.2484
   3 N1        2.7960    -9.8280    -4.4360  N.am    1  <O>11      -0.2786
   4 C2        1.4620   -10.1610    -4.6040  C.ar    1  <O>11       0.0756
   5 C3        0.4760    -9.2795    -4.1544  C.ar    1  <O>11      -0.0369
   6 C4       -0.8735    -9.6150    -4.3085  C.ar    1  <O>11      -0.0598
   7 C5       -1.2335   -10.8221    -4.9140  C.ar    1  <O>11      -0.0582
   8 C6       -0.2351   -11.6914    -5.3657  C.ar    1  <O>11      -0.0183
   9 C7        1.1138   -11.3648    -5.2171  C.ar    1  <O>11       0.1380
  10 O2        2.0380   -12.1657    -5.6413  O.3     1  <O>11      -0.5049
  11 C8        4.8560    -8.7740    -5.2340  C.ar    1  <O>11       0.0389
  12 C9        5.8658    -9.6435    -5.6788  C.ar    1  <O>11      -0.0495
  13 C10       7.2130    -9.3117    -5.4974  C.ar    1  <O>11      -0.0592
  14 C11       7.5644    -8.1096    -4.8774  C.ar    1  <O>11      -0.0350
  15 C12       6.5575    -7.2406    -4.4401  C.ar    1  <O>11       0.1092
  16 S1        7.0065    -5.7283    -3.6601  S.O2    1  <O>11       0.0725
  17 O3        7.8944    -6.0524    -2.2942  O.2     1  <O>11      -0.1500
  18 O4        5.6331    -4.8925    -3.2413  O.2     1  <O>11      -0.1500
  19 N2        7.9098    -4.8186    -4.7010  N.pl3   1  <O>11      -0.2127
  20 C13       8.1839    -3.4258    -4.3966  C.ar    1  <O>11       0.0893
  21 C14       8.0059    -2.9374    -3.0915  C.ar    1  <O>11      -0.0358
  22 C15       8.2576    -1.5921    -2.8010  C.ar    1  <O>11      -0.0597
  23 C16       8.6939    -0.7262    -3.8069  C.ar    1  <O>11      -0.0582
  24 C17       8.8777    -1.2138    -5.1039  C.ar    1  <O>11      -0.0183
  25 C18       8.6292    -2.5541    -5.4033  C.ar    1  <O>11       0.1391
  26 O5        8.8062    -3.0077    -6.6032  O.3     1  <O>11      -0.5049
  27 C19       5.2116    -7.5633    -4.6162  C.ar    1  <O>11      -0.0230
  28 H1        3.2880   -10.1060    -3.5870  H       1  <O>11       0.1552
  29 H2        2.9085   -11.7816    -5.4560  H       1  <O>11       0.2922
  30 H3        8.2764    -5.2350    -5.5563  H       1  <O>11       0.1738
  31 H4        8.5858    -3.9526    -6.6272  H       1  <O>11       0.2922
  32 H5        0.7414    -8.3861    -3.7113  H       1  <O>11       0.0637
  33 H6       -1.6055    -8.9691    -3.9738  H       1  <O>11       0.0618
  34 H7       -2.2288   -11.0702    -5.0272  H       1  <O>11       0.0619
  35 H8       -0.4985   -12.5832    -5.8132  H       1  <O>11       0.0655
  36 H9        5.6130   -10.5306    -6.1415  H       1  <O>11       0.0625
  37 H10       7.9497    -9.9571    -5.8225  H       1  <O>11       0.0618
  38 H11       8.5578    -7.8644    -4.7431  H       1  <O>11       0.0637
  39 H12       7.6879    -3.5737    -2.3437  H       1  <O>11       0.0638
  40 H13       8.1205    -1.2385    -1.8412  H       1  <O>11       0.0618
  41 H14       8.8793     0.2664    -3.5938  H       1  <O>11       0.0619
  42 H15       9.2005    -0.5758    -5.8481  H       1  <O>11       0.0655
  43 H16       4.4780    -6.9133    -4.2931  H       1  <O>11       0.0645
@<TRIPOS>BOND
     1     1     2    2
     2     2     3   am
     3     3     4    1
     4     4     5   ar
     5     5     6   ar
     6     6     7   ar
     7     7     8   ar
     8     8     9   ar
     9     4     9   ar
    10     9    10    1
    11     2    11    1
    12    11    12   ar
    13    12    13   ar
    14    13    14   ar
    15    14    15   ar
    16    15    16    1
    17    16    17    2
    18    16    18    2
    19    16    19    1
    20    19    20    1
    21    20    21   ar
    22    21    22   ar
    23    22    23   ar
    24    23    24   ar
    25    24    25   ar
    26    20    25   ar
    27    25    26    1
    28    15    27   ar
    29    11    27   ar
    30     3    28    1
    31    10    29    1
    32    19    30    1
    33    26    31    1
    34     5    32    1
    35     6    33    1
    36     7    34    1
    37     8    35    1
    38    12    36    1
    39    13    37    1
    40    14    38    1
    41    21    39    1
    42    22    40    1
    43    23    41    1
    44    24    42    1
    45    27    43    1
@<TRIPOS>MOLECULE
mol29_1_5
 43 45 0 0 0
SMALL
USER_CHARGES
****
VDW energy = 63.51
@<TRIPOS>ATOM
   1 O1        2.8627    -8.7918    -6.4269  O.2     1  <O>11      -0.2699
   2 C1        3.4528    -9.1250    -5.4100  C.2     1  <O>11       0.2484
   3 N1        2.7960    -9.8280    -4.4360  N.am    1  <O>11      -0.2786
   4 C2        1.4620   -10.1610    -4.6040  C.ar    1  <O>11       0.0756
   5 C3        0.5205    -9.6959    -3.6828  C.ar    1  <O>11      -0.0369
   6 C4       -0.8269   -10.0392    -3.8382  C.ar    1  <O>11      -0.0598
   7 C5       -1.2299   -10.8377    -4.9122  C.ar    1  <O>11      -0.0582
   8 C6       -0.2768   -11.2900    -5.8306  C.ar    1  <O>11      -0.0183
   9 C7        1.0695   -10.9519    -5.6842  C.ar    1  <O>11       0.1380
  10 O2        1.9509   -11.3644    -6.5378  O.3     1  <O>11      -0.5049
  11 C8        4.8560    -8.7740    -5.2340  C.ar    1  <O>11       0.0389
  12 C9        5.8658    -9.6435    -5.6788  C.ar    1  <O>11      -0.0495
  13 C10       7.2130    -9.3117    -5.4974  C.ar    1  <O>11      -0.0592
  14 C11       7.5644    -8.1096    -4.8774  C.ar    1  <O>11      -0.0350
  15 C12       6.5575    -7.2406    -4.4401  C.ar    1  <O>11       0.1092
  16 S1        7.0065    -5.7283    -3.6601  S.O2    1  <O>11       0.0725
  17 O3        8.6522    -5.5241    -3.7547  O.2     1  <O>11      -0.1500
  18 O4        6.5454    -5.7702    -2.0645  O.2     1  <O>11      -0.1500
  19 N2        6.2513    -4.4713    -4.4196  N.pl3   1  <O>11      -0.2127
  20 C13       4.8014    -4.4216    -4.4728  C.ar    1  <O>11       0.0893
  21 C14       4.1332    -4.5353    -5.7033  C.ar    1  <O>11      -0.0358
  22 C15       2.7364    -4.4744    -5.7561  C.ar    1  <O>11      -0.0597
  23 C16       1.9960    -4.3059    -4.5833  C.ar    1  <O>11      -0.0582
  24 C17       2.6606    -4.1997    -3.3582  C.ar    1  <O>11      -0.0183
  25 C18       4.0536    -4.2593    -3.2955  C.ar    1  <O>11       0.1391
  26 O5        4.6692    -4.1681    -2.1599  O.3     1  <O>11      -0.5049
  27 C19       5.2116    -7.5633    -4.6162  C.ar    1  <O>11      -0.0230
  28 H1        3.2880   -10.1060    -3.5870  H       1  <O>11       0.1552
  29 H2        2.8267   -11.0375    -6.2815  H       1  <O>11       0.2922
  30 H3        6.8028    -3.7295    -4.8496  H       1  <O>11       0.1738
  31 H4        5.6268    -4.2284    -2.3058  H       1  <O>11       0.2922
  32 H5        0.8171    -9.1025    -2.8922  H       1  <O>11       0.0637
  33 H6       -1.5254    -9.7017    -3.1577  H       1  <O>11       0.0618
  34 H7       -2.2235   -11.0917    -5.0268  H       1  <O>11       0.0619
  35 H8       -0.5720   -11.8796    -6.6245  H       1  <O>11       0.0655
  36 H9        5.6130   -10.5306    -6.1415  H       1  <O>11       0.0625
  37 H10       7.9497    -9.9571    -5.8225  H       1  <O>11       0.0618
  38 H11       8.5578    -7.8644    -4.7431  H       1  <O>11       0.0637
  39 H12       4.6750    -4.6643    -6.5722  H       1  <O>11       0.0638
  40 H13       2.2517    -4.5540    -6.6638  H       1  <O>11       0.0618
  41 H14       0.9658    -4.2603    -4.6212  H       1  <O>11       0.0619
  42 H15       2.1154    -4.0758    -2.4908  H       1  <O>11       0.0655
  43 H16       4.4780    -6.9133    -4.2931  H       1  <O>11       0.0645
@<TRIPOS>BOND
     1     1     2    2
     2     2     3   am
     3     3     4    1
     4     4     5   ar
     5     5     6   ar
     6     6     7   ar
     7     7     8   ar
     8     8     9   ar
     9     4     9   ar
    10     9    10    1
    11     2    11    1
    12    11    12   ar
    13    12    13   ar
    14    13    14   ar
    15    14    15   ar
    16    15    16    1
    17    16    17    2
    18    16    18    2
    19    16    19    1
    20    19    20    1
    21    20    21   ar
    22    21    22   ar
    23    22    23   ar
    24    23    24   ar
    25    24    25   ar
    26    20    25   ar
    27    25    26    1
    28    15    27   ar
    29    11    27   ar
    30     3    28    1
    31    10    29    1
    32    19    30    1
    33    26    31    1
    34     5    32    1
    35     6    33    1
    36     7    34    1
    37     8    35    1
    38    12    36    1
    39    13    37    1
    40    14    38    1
    41    21    39    1
    42    22    40    1
    43    23    41    1
    44    24    42    1
    45    27    43    1
@<TRIPOS>MOLECULE
mol29_1_6
 43 45 0 0 0
SMALL
USER_CHARGES
****
VDW energy = 64.10
@<TRIPOS>ATOM
   1 O1        2.8627    -8.7918    -6.4269  O.2     1  <O>11      -0.2699
   2 C1        3.4528    -9.1250    -5.4100  C.2     1  <O>11       0.2484
   3 N1        2.7960    -9.8280    -4.4360  N.am    1  <O>11      -0.2786
   4 C2        1.4620   -10.1610    -4.6040  C.ar    1  <O>11       0.0756
   5 C3        0.4760    -9.2795    -4.1544  C.ar    1  <O>11      -0.0369
   6 C4       -0.8735    -9.6150    -4.3085  C.ar    1  <O>11      -0.0598
   7 C5       -1.2335   -10.8221    -4.9140  C.ar    1  <O>11      -0.0582
   8 C6       -0.2351   -11.6914    -5.3657  C.ar    1  <O>11      -0.0183
   9 C7        1.1138   -11.3648    -5.2171  C.ar    1  <O>11       0.1380
  10 O2        2.0380   -12.1657    -5.6413  O.3     1  <O>11      -0.5049
  11 C8        4.8560    -8.7740    -5.2340  C.ar    1  <O>11       0.0389
  12 C9        5.7494    -9.6911    -4.6558  C.ar    1  <O>11      -0.0495
  13 C10       7.0938    -9.3482    -4.4750  C.ar    1  <O>11      -0.0592
  14 C11       7.5597    -8.0925    -4.8739  C.ar    1  <O>11      -0.0350
  15 C12       6.6701    -7.1814    -5.4558  C.ar    1  <O>11       0.1092
  16 S1        7.2628    -5.6016    -5.9561  S.O2    1  <O>11       0.0725
  17 O3        8.9150    -5.5530    -5.7920  O.2     1  <O>11      -0.1500
  18 O4        6.5777    -4.4260    -5.0027  O.2     1  <O>11      -0.1500
  19 N2        6.8584    -5.3362    -7.5350  N.pl3   1  <O>11      -0.2127
  20 C13       5.4629    -5.3301    -7.9353  C.ar    1  <O>11       0.0893
  21 C14       4.7252    -4.1347    -7.9155  C.ar    1  <O>11      -0.0358
  22 C15       3.3769    -4.1313    -8.2888  C.ar    1  <O>11      -0.0597
  23 C16       2.7563    -5.3171    -8.6899  C.ar    1  <O>11      -0.0582
  24 C17       3.4921    -6.5051    -8.7161  C.ar    1  <O>11      -0.0183
  25 C18       4.8376    -6.5185    -8.3456  C.ar    1  <O>11       0.1391
  26 O5        5.5215    -7.6177    -8.3766  O.3     1  <O>11      -0.5049
  27 C19       5.3277    -7.5143    -5.6396  C.ar    1  <O>11      -0.0230
  28 H1        3.2880   -10.1060    -3.5870  H       1  <O>11       0.1552
  29 H2        2.9085   -11.7816    -5.4560  H       1  <O>11       0.2922
  30 H3        7.5881    -5.1750    -8.2284  H       1  <O>11       0.1738
  31 H4        6.4310    -7.4406    -8.0879  H       1  <O>11       0.2922
  32 H5        0.7414    -8.3861    -3.7113  H       1  <O>11       0.0637
  33 H6       -1.6055    -8.9691    -3.9738  H       1  <O>11       0.0618
  34 H7       -2.2288   -11.0702    -5.0272  H       1  <O>11       0.0619
  35 H8       -0.4985   -12.5832    -5.8132  H       1  <O>11       0.0655
  36 H9        5.4128   -10.6217    -4.3632  H       1  <O>11       0.0625
  37 H10       7.7438   -10.0250    -4.0455  H       1  <O>11       0.0618
  38 H11       8.5511    -7.8389    -4.7406  H       1  <O>11       0.0637
  39 H12       5.1799    -3.2552    -7.6242  H       1  <O>11       0.0638
  40 H13       2.8393    -3.2506    -8.2677  H       1  <O>11       0.0618
  41 H14       1.7616    -5.3157    -8.9649  H       1  <O>11       0.0619
  42 H15       3.0356    -7.3819    -9.0127  H       1  <O>11       0.0655
  43 H16       4.6819    -6.8360    -6.0731  H       1  <O>11       0.0645
@<TRIPOS>BOND
     1     1     2    2
     2     2     3   am
     3     3     4    1
     4     4     5   ar
     5     5     6   ar
     6     6     7   ar
     7     7     8   ar
     8     8     9   ar
     9     4     9   ar
    10     9    10    1
    11     2    11    1
    12    11    12   ar
    13    12    13   ar
    14    13    14   ar
    15    14    15   ar
    16    15    16    1
    17    16    17    2
    18    16    18    2
    19    16    19    1
    20    19    20    1
    21    20    21   ar
    22    21    22   ar
    23    22    23   ar
    24    23    24   ar
    25    24    25   ar
    26    20    25   ar
    27    25    26    1
    28    15    27   ar
    29    11    27   ar
    30     3    28    1
    31    10    29    1
    32    19    30    1
    33    26    31    1
    34     5    32    1
    35     6    33    1
    36     7    34    1
    37     8    35    1
    38    12    36    1
    39    13    37    1
    40    14    38    1
    41    21    39    1
    42    22    40    1
    43    23    41    1
    44    24    42    1
    45    27    43    1
@<TRIPOS>MOLECULE
mol29_1_7
 43 45 0 0 0
SMALL
USER_CHARGES
****
VDW energy = 65.91
@<TRIPOS>ATOM
   1 O1        2.8627    -8.7918    -6.4269  O.2     1  <O>11      -0.2699
   2 C1        3.4528    -9.1250    -5.4100  C.2     1  <O>11       0.2484
   3 N1        2.7960    -9.8280    -4.4360  N.am    1  <O>11      -0.2786
   4 C2        1.4620   -10.1610    -4.6040  C.ar    1  <O>11       0.0756
   5 C3        0.4760    -9.2795    -4.1544  C.ar    1  <O>11      -0.0369
   6 C4       -0.8735    -9.6150    -4.3085  C.ar    1  <O>11      -0.0598
   7 C5       -1.2335   -10.8221    -4.9140  C.ar    1  <O>11      -0.0582
   8 C6       -0.2351   -11.6914    -5.3657  C.ar    1  <O>11      -0.0183
   9 C7        1.1138   -11.3648    -5.2171  C.ar    1  <O>11       0.1380
  10 O2        2.0380   -12.1657    -5.6413  O.3     1  <O>11      -0.5049
  11 C8        4.8560    -8.7740    -5.2340  C.ar    1  <O>11       0.0389
  12 C9        5.3320    -8.3621    -3.9781  C.ar    1  <O>11      -0.0495
  13 C10       6.6767    -8.0124    -3.8132  C.ar    1  <O>11      -0.0592
  14 C11       7.5583    -8.0761    -4.8956  C.ar    1  <O>11      -0.0350
  15 C12       7.0847    -8.4928    -6.1454  C.ar    1  <O>11       0.1092
  16 S1        8.1998    -8.5710    -7.5047  S.O2    1  <O>11       0.0725
  17 O3        9.7458    -8.2839    -6.9693  O.2     1  <O>11      -0.1500
  18 O4        7.7822    -7.4223    -8.6300  O.2     1  <O>11      -0.1500
  19 N2        8.1251   -10.0702    -8.1930  N.pl3   1  <O>11      -0.2127
  20 C13       8.7500   -10.3087    -9.4815  C.ar    1  <O>11       0.0893
  21 C14       9.7050    -9.4089    -9.9833  C.ar    1  <O>11      -0.0358
  22 C15      10.2977    -9.6319   -11.2309  C.ar    1  <O>11      -0.0597
  23 C16       9.9475   -10.7555   -11.9839  C.ar    1  <O>11      -0.0582
  24 C17       9.0023   -11.6543   -11.4816  C.ar    1  <O>11      -0.0183
  25 C18       8.4057   -11.4404   -10.2381  C.ar    1  <O>11       0.1391
  26 O5        7.5353   -12.2767    -9.7693  O.3     1  <O>11      -0.5049
  27 C19       5.7453    -8.8429    -6.3195  C.ar    1  <O>11      -0.0230
  28 H1        3.2880   -10.1060    -3.5870  H       1  <O>11       0.1552
  29 H2        2.9085   -11.7816    -5.4560  H       1  <O>11       0.2922
  30 H3        7.6418   -10.8286    -7.7128  H       1  <O>11       0.1738
  31 H4        7.2280   -11.9705    -8.9010  H       1  <O>11       0.2922
  32 H5        0.7414    -8.3861    -3.7113  H       1  <O>11       0.0637
  33 H6       -1.6055    -8.9691    -3.9738  H       1  <O>11       0.0618
  34 H7       -2.2288   -11.0702    -5.0272  H       1  <O>11       0.0619
  35 H8       -0.4985   -12.5832    -5.8132  H       1  <O>11       0.0655
  36 H9        4.6871    -8.3172    -3.1736  H       1  <O>11       0.0625
  37 H10       7.0187    -7.7063    -2.8889  H       1  <O>11       0.0618
  38 H11       8.5502    -7.8181    -4.7746  H       1  <O>11       0.0637
  39 H12       9.9706    -8.5797    -9.4292  H       1  <O>11       0.0638
  40 H13      10.9953    -8.9647   -11.5959  H       1  <O>11       0.0618
  41 H14      10.3836   -10.9206   -12.9045  H       1  <O>11       0.0619
  42 H15       8.7428   -12.4851   -12.0361  H       1  <O>11       0.0655
  43 H16       5.4082    -9.1522    -7.2446  H       1  <O>11       0.0645
@<TRIPOS>BOND
     1     1     2    2
     2     2     3   am
     3     3     4    1
     4     4     5   ar
     5     5     6   ar
     6     6     7   ar
     7     7     8   ar
     8     8     9   ar
     9     4     9   ar
    10     9    10    1
    11     2    11    1
    12    11    12   ar
    13    12    13   ar
    14    13    14   ar
    15    14    15   ar
    16    15    16    1
    17    16    17    2
    18    16    18    2
    19    16    19    1
    20    19    20    1
    21    20    21   ar
    22    21    22   ar
    23    22    23   ar
    24    23    24   ar
    25    24    25   ar
    26    20    25   ar
    27    25    26    1
    28    15    27   ar
    29    11    27   ar
    30     3    28    1
    31    10    29    1
    32    19    30    1
    33    26    31    1
    34     5    32    1
    35     6    33    1
    36     7    34    1
    37     8    35    1
    38    12    36    1
    39    13    37    1
    40    14    38    1
    41    21    39    1
    42    22    40    1
    43    23    41    1
    44    24    42    1
    45    27    43    1
@<TRIPOS>MOLECULE
mol29_1_8
 43 45 0 0 0
SMALL
USER_CHARGES
****
VDW energy = 66.22
@<TRIPOS>ATOM
   1 O1        2.8627    -8.7918    -6.4269  O.2     1  <O>11      -0.2699
   2 C1        3.4528    -9.1250    -5.4100  C.2     1  <O>11       0.2484
   3 N1        2.7960    -9.8280    -4.4360  N.am    1  <O>11      -0.2786
   4 C2        1.4620   -10.1610    -4.6040  C.ar    1  <O>11       0.0756
   5 C3        0.4760    -9.2795    -4.1544  C.ar    1  <O>11      -0.0369
   6 C4       -0.8735    -9.6150    -4.3085  C.ar    1  <O>11      -0.0598
   7 C5       -1.2335   -10.8221    -4.9140  C.ar    1  <O>11      -0.0582
   8 C6       -0.2351   -11.6914    -5.3657  C.ar    1  <O>11      -0.0183
   9 C7        1.1138   -11.3648    -5.2171  C.ar    1  <O>11       0.1380
  10 O2        2.0380   -12.1657    -5.6413  O.3     1  <O>11      -0.5049
  11 C8        4.8560    -8.7740    -5.2340  C.ar    1  <O>11       0.0389
  12 C9        5.6106    -8.3011    -6.3206  C.ar    1  <O>11      -0.0495
  13 C10       6.9614    -7.9770    -6.1537  C.ar    1  <O>11      -0.0592
  14 C11       7.5691    -8.1155    -4.9029  C.ar    1  <O>11      -0.0350
  15 C12       6.8149    -8.5807    -3.8190  C.ar    1  <O>11       0.1092
  16 S1        7.5857    -8.7529    -2.2463  S.O2    1  <O>11       0.0725
  17 O3        9.1209    -8.1216    -2.3105  O.2     1  <O>11      -0.1500
  18 O4        7.6663   -10.3625    -1.8426  O.2     1  <O>11      -0.1500
  19 N2        6.7043    -7.9425    -1.1090  N.pl3   1  <O>11      -0.2127
  20 C13       5.3218    -8.3116    -0.8643  C.ar    1  <O>11       0.0893
  21 C14       5.0081    -9.2843     0.0996  C.ar    1  <O>11      -0.0358
  22 C15       3.6766    -9.6494     0.3263  C.ar    1  <O>11      -0.0597
  23 C16       2.6488    -9.0437    -0.4010  C.ar    1  <O>11      -0.0582
  24 C17       2.9605    -8.0710    -1.3551  C.ar    1  <O>11      -0.0183
  25 C18       4.2856    -7.7003    -1.5883  C.ar    1  <O>11       0.1391
  26 O5        4.5742    -6.7939    -2.4671  O.3     1  <O>11      -0.5049
  27 C19       5.4674    -8.9069    -3.9760  C.ar    1  <O>11      -0.0230
  28 H1        3.2880   -10.1060    -3.5870  H       1  <O>11       0.1552
  29 H2        2.9085   -11.7816    -5.4560  H       1  <O>11       0.2922
  30 H3        7.1312    -7.1843    -0.5777  H       1  <O>11       0.1738
  31 H4        5.5359    -6.6662    -2.4957  H       1  <O>11       0.2922
  32 H5        0.7414    -8.3861    -3.7113  H       1  <O>11       0.0637
  33 H6       -1.6055    -8.9691    -3.9738  H       1  <O>11       0.0618
  34 H7       -2.2288   -11.0702    -5.0272  H       1  <O>11       0.0619
  35 H8       -0.4985   -12.5832    -5.8132  H       1  <O>11       0.0655
  36 H9        5.1666    -8.1924    -7.2458  H       1  <O>11       0.0625
  37 H10       7.5110    -7.6345    -6.9572  H       1  <O>11       0.0618
  38 H11       8.5654    -7.8768    -4.7792  H       1  <O>11       0.0637
  39 H12       5.7630    -9.7317     0.6427  H       1  <O>11       0.0638
  40 H13       3.4531   -10.3679     1.0326  H       1  <O>11       0.0618
  41 H14       1.6664    -9.3127    -0.2349  H       1  <O>11       0.0619
  42 H15       2.2026    -7.6222    -1.8928  H       1  <O>11       0.0655
  43 H16       4.9204    -9.2454    -3.1691  H       1  <O>11       0.0645
@<TRIPOS>BOND
     1     1     2    2
     2     2     3   am
     3     3     4    1
     4     4     5   ar
     5     5     6   ar
     6     6     7   ar
     7     7     8   ar
     8     8     9   ar
     9     4     9   ar
    10     9    10    1
    11     2    11    1
    12    11    12   ar
    13    12    13   ar
    14    13    14   ar
    15    14    15   ar
    16    15    16    1
    17    16    17    2
    18    16    18    2
    19    16    19    1
    20    19    20    1
    21    20    21   ar
    22    21    22   ar
    23    22    23   ar
    24    23    24   ar
    25    24    25   ar
    26    20    25   ar
    27    25    26    1
    28    15    27   ar
    29    11    27   ar
    30     3    28    1
    31    10    29    1
    32    19    30    1
    33    26    31    1
    34     5    32    1
    35     6    33    1
    36     7    34    1
    37     8    35    1
    38    12    36    1
    39    13    37    1
    40    14    38    1
    41    21    39    1
    42    22    40    1
    43    23    41    1
    44    24    42    1
    45    27    43    1
@<TRIPOS>MOLECULE
mol29_1_9
 43 45 0 0 0
SMALL
USER_CHARGES
****
VDW energy = 67.19
@<TRIPOS>ATOM
   1 O1        2.8627    -8.7918    -6.4269  O.2     1  <O>11      -0.2699
   2 C1        3.4528    -9.1250    -5.4100  C.2     1  <O>11       0.2484
   3 N1        2.7960    -9.8280    -4.4360  N.am    1  <O>11      -0.2786
   4 C2        1.4620   -10.1610    -4.6040  C.ar    1  <O>11       0.0756
   5 C3        0.4760    -9.2795    -4.1544  C.ar    1  <O>11      -0.0369
   6 C4       -0.8735    -9.6150    -4.3085  C.ar    1  <O>11      -0.0598
   7 C5       -1.2335   -10.8221    -4.9140  C.ar    1  <O>11      -0.0582
   8 C6       -0.2351   -11.6914    -5.3657  C.ar    1  <O>11      -0.0183
   9 C7        1.1138   -11.3648    -5.2171  C.ar    1  <O>11       0.1380
  10 O2        2.0380   -12.1657    -5.6413  O.3     1  <O>11      -0.5049
  11 C8        4.8560    -8.7740    -5.2340  C.ar    1  <O>11       0.0389
  12 C9        5.6106    -8.3011    -6.3206  C.ar    1  <O>11      -0.0495
  13 C10       6.9614    -7.9770    -6.1537  C.ar    1  <O>11      -0.0592
  14 C11       7.5691    -8.1155    -4.9029  C.ar    1  <O>11      -0.0350
  15 C12       6.8149    -8.5807    -3.8190  C.ar    1  <O>11       0.1092
  16 S1        7.5857    -8.7529    -2.2463  S.O2    1  <O>11       0.0725
  17 O3        8.8473    -9.8272    -2.3631  O.2     1  <O>11      -0.1500
  18 O4        6.4775    -9.3192    -1.1457  O.2     1  <O>11      -0.1500
  19 N2        8.1566    -7.2853    -1.7490  N.pl3   1  <O>11      -0.2127
  20 C13       8.6006    -7.1063    -0.3785  C.ar    1  <O>11       0.0893
  21 C14       8.8868    -8.2225     0.4252  C.ar    1  <O>11      -0.0358
  22 C15       9.3022    -8.0503     1.7501  C.ar    1  <O>11      -0.0597
  23 C16       9.4410    -6.7654     2.2811  C.ar    1  <O>11      -0.0582
  24 C17       9.1628    -5.6548     1.4794  C.ar    1  <O>11      -0.0183
  25 C18       8.7479    -5.8166     0.1567  C.ar    1  <O>11       0.1391
  26 O5        8.4970    -4.7876    -0.5885  O.3     1  <O>11      -0.5049
  27 C19       5.4674    -8.9069    -3.9760  C.ar    1  <O>11      -0.0230
  28 H1        3.2880   -10.1060    -3.5870  H       1  <O>11       0.1552
  29 H2        2.9085   -11.7816    -5.4560  H       1  <O>11       0.2922
  30 H3        8.1989    -6.5056    -2.4043  H       1  <O>11       0.1738
  31 H4        8.2226    -5.0865    -1.4702  H       1  <O>11       0.2922
  32 H5        0.7414    -8.3861    -3.7113  H       1  <O>11       0.0637
  33 H6       -1.6055    -8.9691    -3.9738  H       1  <O>11       0.0618
  34 H7       -2.2288   -11.0702    -5.0272  H       1  <O>11       0.0619
  35 H8       -0.4985   -12.5832    -5.8132  H       1  <O>11       0.0655
  36 H9        5.1666    -8.1924    -7.2458  H       1  <O>11       0.0625
  37 H10       7.5110    -7.6345    -6.9572  H       1  <O>11       0.0618
  38 H11       8.5654    -7.8768    -4.7792  H       1  <O>11       0.0637
  39 H12       8.7902    -9.1737     0.0367  H       1  <O>11       0.0638
  40 H13       9.5065    -8.8744     2.3366  H       1  <O>11       0.0618
  41 H14       9.7468    -6.6373     3.2584  H       1  <O>11       0.0619
  42 H15       9.2653    -4.7050     1.8697  H       1  <O>11       0.0655
  43 H16       4.9204    -9.2454    -3.1691  H       1  <O>11       0.0645
@<TRIPOS>BOND
     1     1     2    2
     2     2     3   am
     3     3     4    1
     4     4     5   ar
     5     5     6   ar
     6     6     7   ar
     7     7     8   ar
     8     8     9   ar
     9     4     9   ar
    10     9    10    1
    11     2    11    1
    12    11    12   ar
    13    12    13   ar
    14    13    14   ar
    15    14    15   ar
    16    15    16    1
    17    16    17    2
    18    16    18    2
    19    16    19    1
    20    19    20    1
    21    20    21   ar
    22    21    22   ar
    23    22    23   ar
    24    23    24   ar
    25    24    25   ar
    26    20    25   ar
    27    25    26    1
    28    15    27   ar
    29    11    27   ar
    30     3    28    1
    31    10    29    1
    32    19    30    1
    33    26    31    1
    34     5    32    1
    35     6    33    1
    36     7    34    1
    37     8    35    1
    38    12    36    1
    39    13    37    1
    40    14    38    1
    41    21    39    1
    42    22    40    1
    43    23    41    1
    44    24    42    1
    45    27    43    1
@<TRIPOS>MOLECULE
mol29_1_10
 43 45 0 0 0
SMALL
USER_CHARGES
****
VDW energy = 67.89
@<TRIPOS>ATOM
   1 O1        2.8627    -8.7918    -6.4269  O.2     1  <O>11      -0.2699
   2 C1        3.4528    -9.1250    -5.4100  C.2     1  <O>11       0.2484
   3 N1        2.7960    -9.8280    -4.4360  N.am    1  <O>11      -0.2786
   4 C2        1.4620   -10.1610    -4.6040  C.ar    1  <O>11       0.0756
   5 C3        0.4760    -9.2795    -4.1544  C.ar    1  <O>11      -0.0369
   6 C4       -0.8735    -9.6150    -4.3085  C.ar    1  <O>11      -0.0598
   7 C5       -1.2335   -10.8221    -4.9140  C.ar    1  <O>11      -0.0582
   8 C6       -0.2351   -11.6914    -5.3657  C.ar    1  <O>11      -0.0183
   9 C7        1.1138   -11.3648    -5.2171  C.ar    1  <O>11       0.1380
  10 O2        2.0380   -12.1657    -5.6413  O.3     1  <O>11      -0.5049
  11 C8        4.8560    -8.7740    -5.2340  C.ar    1  <O>11       0.0389
  12 C9        5.6106    -8.3011    -6.3206  C.ar    1  <O>11      -0.0495
  13 C10       6.9614    -7.9770    -6.1537  C.ar    1  <O>11      -0.0592
  14 C11       7.5691    -8.1155    -4.9029  C.ar    1  <O>11      -0.0350
  15 C12       6.8149    -8.5807    -3.8190  C.ar    1  <O>11       0.1092
  16 S1        7.5857    -8.7529    -2.2463  S.O2    1  <O>11       0.0725
  17 O3        9.1209    -8.1216    -2.3105  O.2     1  <O>11      -0.1500
  18 O4        7.6663   -10.3625    -1.8426  O.2     1  <O>11      -0.1500
  19 N2        6.7043    -7.9425    -1.1090  N.pl3   1  <O>11      -0.2127
  20 C13       6.9812    -8.1433     0.3018  C.ar    1  <O>11       0.0893
  21 C14       7.4863    -7.0897     1.0818  C.ar    1  <O>11      -0.0358
  22 C15       7.7654    -7.2869     2.4385  C.ar    1  <O>11      -0.0597
  23 C16       7.5375    -8.5328     3.0285  C.ar    1  <O>11      -0.0582
  24 C17       7.0285    -9.5791     2.2540  C.ar    1  <O>11      -0.0183
  25 C18       6.7471    -9.3919     0.8999  C.ar    1  <O>11       0.1391
  26 O5        6.2687   -10.3591     0.1838  O.3     1  <O>11      -0.5049
  27 C19       5.4674    -8.9069    -3.9760  C.ar    1  <O>11      -0.0230
  28 H1        3.2880   -10.1060    -3.5870  H       1  <O>11       0.1552
  29 H2        2.9085   -11.7816    -5.4560  H       1  <O>11       0.2922
  30 H3        5.9671    -7.3001    -1.3973  H       1  <O>11       0.1738
  31 H4        6.1363   -10.0517    -0.7272  H       1  <O>11       0.2922
  32 H5        0.7414    -8.3861    -3.7113  H       1  <O>11       0.0637
  33 H6       -1.6055    -8.9691    -3.9738  H       1  <O>11       0.0618
  34 H7       -2.2288   -11.0702    -5.0272  H       1  <O>11       0.0619
  35 H8       -0.4985   -12.5832    -5.8132  H       1  <O>11       0.0655
  36 H9        5.1666    -8.1924    -7.2458  H       1  <O>11       0.0625
  37 H10       7.5110    -7.6345    -6.9572  H       1  <O>11       0.0618
  38 H11       8.5654    -7.8768    -4.7792  H       1  <O>11       0.0637
  39 H12       7.6523    -6.1662     0.6521  H       1  <O>11       0.0638
  40 H13       8.1406    -6.5101     3.0050  H       1  <O>11       0.0618
  41 H14       7.7436    -8.6794     4.0290  H       1  <O>11       0.0619
  42 H15       6.8590   -10.4998     2.6881  H       1  <O>11       0.0655
  43 H16       4.9204    -9.2454    -3.1691  H       1  <O>11       0.0645
@<TRIPOS>BOND
     1     1     2    2
     2     2     3   am
     3     3     4    1
     4     4     5   ar
     5     5     6   ar
     6     6     7   ar
     7     7     8   ar
     8     8     9   ar
     9     4     9   ar
    10     9    10    1
    11     2    11    1
    12    11    12   ar
    13    12    13   ar
    14    13    14   ar
    15    14    15   ar
    16    15    16    1
    17    16    17    2
    18    16    18    2
    19    16    19    1
    20    19    20    1
    21    20    21   ar
    22    21    22   ar
    23    22    23   ar
    24    23    24   ar
    25    24    25   ar
    26    20    25   ar
    27    25    26    1
    28    15    27   ar
    29    11    27   ar
    30     3    28    1
    31    10    29    1
    32    19    30    1
    33    26    31    1
    34     5    32    1
    35     6    33    1
    36     7    34    1
    37     8    35    1
    38    12    36    1
    39    13    37    1
    40    14    38    1
    41    21    39    1
    42    22    40    1
    43    23    41    1
    44    24    42    1
    45    27    43    1
@<TRIPOS>MOLECULE
mol29_1_11
 43 45 0 0 0
SMALL
USER_CHARGES
****
VDW energy = 69.26
@<TRIPOS>ATOM
   1 O1        2.8627    -8.7918    -6.4269  O.2     1  <O>11      -0.2699
   2 C1        3.4528    -9.1250    -5.4100  C.2     1  <O>11       0.2484
   3 N1        2.7960    -9.8280    -4.4360  N.am    1  <O>11      -0.2786
   4 C2        1.4620   -10.1610    -4.6040  C.ar    1  <O>11       0.0756
   5 C3        0.4760    -9.2795    -4.1544  C.ar    1  <O>11      -0.0369
   6 C4       -0.8735    -9.6150    -4.3085  C.ar    1  <O>11      -0.0598
   7 C5       -1.2335   -10.8221    -4.9140  C.ar    1  <O>11      -0.0582
   8 C6       -0.2351   -11.6914    -5.3657  C.ar    1  <O>11      -0.0183
   9 C7        1.1138   -11.3648    -5.2171  C.ar    1  <O>11       0.1380
  10 O2        2.0380   -12.1657    -5.6413  O.3     1  <O>11      -0.5049
  11 C8        4.8560    -8.7740    -5.2340  C.ar    1  <O>11       0.0389
  12 C9        5.6106    -8.3011    -6.3206  C.ar    1  <O>11      -0.0495
  13 C10       6.9614    -7.9770    -6.1537  C.ar    1  <O>11      -0.0592
  14 C11       7.5691    -8.1155    -4.9029  C.ar    1  <O>11      -0.0350
  15 C12       6.8149    -8.5807    -3.8190  C.ar    1  <O>11       0.1092
  16 S1        7.5857    -8.7529    -2.2463  S.O2    1  <O>11       0.0725
  17 O3        9.1209    -8.1216    -2.3105  O.2     1  <O>11      -0.1500
  18 O4        7.6663   -10.3625    -1.8426  O.2     1  <O>11      -0.1500
  19 N2        6.7043    -7.9425    -1.1090  N.pl3   1  <O>11      -0.2127
  20 C13       6.9812    -8.1433     0.3018  C.ar    1  <O>11       0.0893
  21 C14       8.1928    -8.7254     0.7104  C.ar    1  <O>11      -0.0358
  22 C15       8.4541    -8.9308     2.0694  C.ar    1  <O>11      -0.0597
  23 C16       7.5132    -8.5524     3.0304  C.ar    1  <O>11      -0.0582
  24 C17       6.3107    -7.9670     2.6243  C.ar    1  <O>11      -0.0183
  25 C18       6.0410    -7.7581     1.2710  C.ar    1  <O>11       0.1391
  26 O5        4.9301    -7.2092     0.8948  O.3     1  <O>11      -0.5049
  27 C19       5.4674    -8.9069    -3.9760  C.ar    1  <O>11      -0.0230
  28 H1        3.2880   -10.1060    -3.5870  H       1  <O>11       0.1552
  29 H2        2.9085   -11.7816    -5.4560  H       1  <O>11       0.2922
  30 H3        5.9671    -7.3001    -1.3973  H       1  <O>11       0.1738
  31 H4        4.9135    -7.1441    -0.0734  H       1  <O>11       0.2922
  32 H5        0.7414    -8.3861    -3.7113  H       1  <O>11       0.0637
  33 H6       -1.6055    -8.9691    -3.9738  H       1  <O>11       0.0618
  34 H7       -2.2288   -11.0702    -5.0272  H       1  <O>11       0.0619
  35 H8       -0.4985   -12.5832    -5.8132  H       1  <O>11       0.0655
  36 H9        5.1666    -8.1924    -7.2458  H       1  <O>11       0.0625
  37 H10       7.5110    -7.6345    -6.9572  H       1  <O>11       0.0618
  38 H11       8.5654    -7.8768    -4.7792  H       1  <O>11       0.0637
  39 H12       8.8931    -9.0027     0.0049  H       1  <O>11       0.0638
  40 H13       9.3441    -9.3630     2.3628  H       1  <O>11       0.0618
  41 H14       7.7047    -8.7040     4.0331  H       1  <O>11       0.0619
  42 H15       5.6147    -7.6863     3.3327  H       1  <O>11       0.0655
  43 H16       4.9204    -9.2454    -3.1691  H       1  <O>11       0.0645
@<TRIPOS>BOND
     1     1     2    2
     2     2     3   am
     3     3     4    1
     4     4     5   ar
     5     5     6   ar
     6     6     7   ar
     7     7     8   ar
     8     8     9   ar
     9     4     9   ar
    10     9    10    1
    11     2    11    1
    12    11    12   ar
    13    12    13   ar
    14    13    14   ar
    15    14    15   ar
    16    15    16    1
    17    16    17    2
    18    16    18    2
    19    16    19    1
    20    19    20    1
    21    20    21   ar
    22    21    22   ar
    23    22    23   ar
    24    23    24   ar
    25    24    25   ar
    26    20    25   ar
    27    25    26    1
    28    15    27   ar
    29    11    27   ar
    30     3    28    1
    31    10    29    1
    32    19    30    1
    33    26    31    1
    34     5    32    1
    35     6    33    1
    36     7    34    1
    37     8    35    1
    38    12    36    1
    39    13    37    1
    40    14    38    1
    41    21    39    1
    42    22    40    1
    43    23    41    1
    44    24    42    1
    45    27    43    1
@<TRIPOS>MOLECULE
mol29_1_12
 43 45 0 0 0
SMALL
USER_CHARGES
****
VDW energy = 69.26
@<TRIPOS>ATOM
   1 O1        2.8627    -8.7918    -6.4269  O.2     1  <O>11      -0.2699
   2 C1        3.4528    -9.1250    -5.4100  C.2     1  <O>11       0.2484
   3 N1        2.7960    -9.8280    -4.4360  N.am    1  <O>11      -0.2786
   4 C2        1.4620   -10.1610    -4.6040  C.ar    1  <O>11       0.0756
   5 C3        1.0888   -11.5071    -4.6050  C.ar    1  <O>11      -0.0369
   6 C4       -0.2548   -11.8518    -4.7875  C.ar    1  <O>11      -0.0598
   7 C5       -1.2192   -10.8553    -4.9618  C.ar    1  <O>11      -0.0582
   8 C6       -0.8315    -9.5115    -4.9514  C.ar    1  <O>11      -0.0183
   9 C7        0.5065    -9.1580    -4.7690  C.ar    1  <O>11       0.1380
  10 O2        0.8648    -7.9142    -4.7522  O.3     1  <O>11      -0.5049
  11 C8        4.8560    -8.7740    -5.2340  C.ar    1  <O>11       0.0389
  12 C9        5.8658    -9.6435    -5.6788  C.ar    1  <O>11      -0.0495
  13 C10       7.2130    -9.3117    -5.4974  C.ar    1  <O>11      -0.0592
  14 C11       7.5644    -8.1096    -4.8774  C.ar    1  <O>11      -0.0350
  15 C12       6.5575    -7.2406    -4.4401  C.ar    1  <O>11       0.1092
  16 S1        7.0065    -5.7283    -3.6601  S.O2    1  <O>11       0.0725
  17 O3        7.9152    -4.8139    -4.7076  O.2     1  <O>11      -0.1500
  18 O4        7.8959    -6.0523    -2.2948  O.2     1  <O>11      -0.1500
  19 N2        5.6418    -4.8963    -3.2448  N.pl3   1  <O>11      -0.2127
  20 C13       4.6801    -5.4891    -2.3331  C.ar    1  <O>11       0.0893
  21 C14       5.0455    -6.5825    -1.5302  C.ar    1  <O>11      -0.0358
  22 C15       4.1149    -7.1621    -0.6611  C.ar    1  <O>11      -0.0597
  23 C16       2.8163    -6.6527    -0.5816  C.ar    1  <O>11      -0.0582
  24 C17       2.4547    -5.5606    -1.3753  C.ar    1  <O>11      -0.0183
  25 C18       3.3762    -4.9757    -2.2453  C.ar    1  <O>11       0.1391
  26 O5        3.0436    -3.9593    -2.9756  O.3     1  <O>11      -0.5049
  27 C19       5.2116    -7.5633    -4.6162  C.ar    1  <O>11      -0.0230
  28 H1        3.2880   -10.1060    -3.5870  H       1  <O>11       0.1552
  29 H2        1.8228    -7.8557    -4.6167  H       1  <O>11       0.2922
  30 H3        5.4753    -3.9660    -3.6270  H       1  <O>11       0.1738
  31 H4        3.8029    -3.6870    -3.5152  H       1  <O>11       0.2922
  32 H5        1.8000   -12.2430    -4.4718  H       1  <O>11       0.0637
  33 H6       -0.5347   -12.8451    -4.7935  H       1  <O>11       0.0618
  34 H7       -2.2102   -11.1093    -5.0973  H       1  <O>11       0.0619
  35 H8       -1.5418    -8.7739    -5.0798  H       1  <O>11       0.0655
  36 H9        5.6130   -10.5306    -6.1415  H       1  <O>11       0.0625
  37 H10       7.9497    -9.9571    -5.8225  H       1  <O>11       0.0618
  38 H11       8.5578    -7.8644    -4.7431  H       1  <O>11       0.0637
  39 H12       6.0047    -6.9599    -1.5818  H       1  <O>11       0.0638
  40 H13       4.3883    -7.9680    -0.0773  H       1  <O>11       0.0618
  41 H14       2.1289    -7.0799     0.0588  H       1  <O>11       0.0619
  42 H15       1.4962    -5.1826    -1.3175  H       1  <O>11       0.0655
  43 H16       4.4780    -6.9133    -4.2931  H       1  <O>11       0.0645
@<TRIPOS>BOND
     1     1     2    2
     2     2     3   am
     3     3     4    1
     4     4     5   ar
     5     5     6   ar
     6     6     7   ar
     7     7     8   ar
     8     8     9   ar
     9     4     9   ar
    10     9    10    1
    11     2    11    1
    12    11    12   ar
    13    12    13   ar
    14    13    14   ar
    15    14    15   ar
    16    15    16    1
    17    16    17    2
    18    16    18    2
    19    16    19    1
    20    19    20    1
    21    20    21   ar
    22    21    22   ar
    23    22    23   ar
    24    23    24   ar
    25    24    25   ar
    26    20    25   ar
    27    25    26    1
    28    15    27   ar
    29    11    27   ar
    30     3    28    1
    31    10    29    1
    32    19    30    1
    33    26    31    1
    34     5    32    1
    35     6    33    1
    36     7    34    1
    37     8    35    1
    38    12    36    1
    39    13    37    1
    40    14    38    1
    41    21    39    1
    42    22    40    1
    43    23    41    1
    44    24    42    1
    45    27    43    1
@<TRIPOS>MOLECULE
mol29_1_13
 43 45 0 0 0
SMALL
USER_CHARGES
****
VDW energy = 70.42
@<TRIPOS>ATOM
   1 O1        2.8627    -8.7918    -6.4269  O.2     1  <O>11      -0.2699
   2 C1        3.4528    -9.1250    -5.4100  C.2     1  <O>11       0.2484
   3 N1        2.7960    -9.8280    -4.4360  N.am    1  <O>11      -0.2786
   4 C2        1.4620   -10.1610    -4.6040  C.ar    1  <O>11       0.0756
   5 C3        0.4760    -9.2795    -4.1544  C.ar    1  <O>11      -0.0369
   6 C4       -0.8735    -9.6150    -4.3085  C.ar    1  <O>11      -0.0598
   7 C5       -1.2335   -10.8221    -4.9140  C.ar    1  <O>11      -0.0582
   8 C6       -0.2351   -11.6914    -5.3657  C.ar    1  <O>11      -0.0183
   9 C7        1.1138   -11.3648    -5.2171  C.ar    1  <O>11       0.1380
  10 O2        2.0380   -12.1657    -5.6413  O.3     1  <O>11      -0.5049
  11 C8        4.8560    -8.7740    -5.2340  C.ar    1  <O>11       0.0389
  12 C9        5.6106    -8.3011    -6.3206  C.ar    1  <O>11      -0.0495
  13 C10       6.9614    -7.9770    -6.1537  C.ar    1  <O>11      -0.0592
  14 C11       7.5691    -8.1155    -4.9029  C.ar    1  <O>11      -0.0350
  15 C12       6.8149    -8.5807    -3.8190  C.ar    1  <O>11       0.1092
  16 S1        7.5857    -8.7529    -2.2463  S.O2    1  <O>11       0.0725
  17 O3        8.1598    -7.2764    -1.7468  O.2     1  <O>11      -0.1500
  18 O4        8.8485    -9.8262    -2.3634  O.2     1  <O>11      -0.1500
  19 N2        6.4844    -9.3144    -1.1514  N.pl3   1  <O>11      -0.2127
  20 C13       5.8362   -10.5954    -1.3664  C.ar    1  <O>11       0.0893
  21 C14       6.3740   -11.5173    -2.2800  C.ar    1  <O>11      -0.0358
  22 C15       5.7420   -12.7466    -2.4968  C.ar    1  <O>11      -0.0597
  23 C16       4.5739   -13.0681    -1.8008  C.ar    1  <O>11      -0.0582
  24 C17       4.0427   -12.1537    -0.8868  C.ar    1  <O>11      -0.0183
  25 C18       4.6660   -10.9250    -0.6639  C.ar    1  <O>11       0.1391
  26 O5        4.1780   -10.0806     0.1881  O.3     1  <O>11      -0.5049
  27 C19       5.4674    -8.9069    -3.9760  C.ar    1  <O>11      -0.0230
  28 H1        3.2880   -10.1060    -3.5870  H       1  <O>11       0.1552
  29 H2        2.9085   -11.7816    -5.4560  H       1  <O>11       0.2922
  30 H3        6.2608    -8.7626    -0.3239  H       1  <O>11       0.1738
  31 H4        4.7362    -9.2870     0.2124  H       1  <O>11       0.2922
  32 H5        0.7414    -8.3861    -3.7113  H       1  <O>11       0.0637
  33 H6       -1.6055    -8.9691    -3.9738  H       1  <O>11       0.0618
  34 H7       -2.2288   -11.0702    -5.0272  H       1  <O>11       0.0619
  35 H8       -0.4985   -12.5832    -5.8132  H       1  <O>11       0.0655
  36 H9        5.1666    -8.1924    -7.2458  H       1  <O>11       0.0625
  37 H10       7.5110    -7.6345    -6.9572  H       1  <O>11       0.0618
  38 H11       8.5654    -7.8768    -4.7792  H       1  <O>11       0.0637
  39 H12       7.2390   -11.2867    -2.7935  H       1  <O>11       0.0638
  40 H13       6.1397   -13.4176    -3.1725  H       1  <O>11       0.0618
  41 H14       4.1067   -13.9743    -1.9604  H       1  <O>11       0.0619
  42 H15       3.1803   -12.3896    -0.3714  H       1  <O>11       0.0655
  43 H16       4.9204    -9.2454    -3.1691  H       1  <O>11       0.0645
@<TRIPOS>BOND
     1     1     2    2
     2     2     3   am
     3     3     4    1
     4     4     5   ar
     5     5     6   ar
     6     6     7   ar
     7     7     8   ar
     8     8     9   ar
     9     4     9   ar
    10     9    10    1
    11     2    11    1
    12    11    12   ar
    13    12    13   ar
    14    13    14   ar
    15    14    15   ar
    16    15    16    1
    17    16    17    2
    18    16    18    2
    19    16    19    1
    20    19    20    1
    21    20    21   ar
    22    21    22   ar
    23    22    23   ar
    24    23    24   ar
    25    24    25   ar
    26    20    25   ar
    27    25    26    1
    28    15    27   ar
    29    11    27   ar
    30     3    28    1
    31    10    29    1
    32    19    30    1
    33    26    31    1
    34     5    32    1
    35     6    33    1
    36     7    34    1
    37     8    35    1
    38    12    36    1
    39    13    37    1
    40    14    38    1
    41    21    39    1
    42    22    40    1
    43    23    41    1
    44    24    42    1
    45    27    43    1
@<TRIPOS>MOLECULE
mol29_1_14
 43 45 0 0 0
SMALL
USER_CHARGES
****
VDW energy = 74.15
@<TRIPOS>ATOM
   1 O1        2.8627    -8.7918    -6.4269  O.2     1  <O>11      -0.2699
   2 C1        3.4528    -9.1250    -5.4100  C.2     1  <O>11       0.2484
   3 N1        2.7960    -9.8280    -4.4360  N.am    1  <O>11      -0.2786
   4 C2        1.4620   -10.1610    -4.6040  C.ar    1  <O>11       0.0756
   5 C3        0.4760    -9.2795    -4.1544  C.ar    1  <O>11      -0.0369
   6 C4       -0.8735    -9.6150    -4.3085  C.ar    1  <O>11      -0.0598
   7 C5       -1.2335   -10.8221    -4.9140  C.ar    1  <O>11      -0.0582
   8 C6       -0.2351   -11.6914    -5.3657  C.ar    1  <O>11      -0.0183
   9 C7        1.1138   -11.3648    -5.2171  C.ar    1  <O>11       0.1380
  10 O2        2.0380   -12.1657    -5.6413  O.3     1  <O>11      -0.5049
  11 C8        4.8560    -8.7740    -5.2340  C.ar    1  <O>11       0.0389
  12 C9        5.6106    -8.3011    -6.3206  C.ar    1  <O>11      -0.0495
  13 C10       6.9614    -7.9770    -6.1537  C.ar    1  <O>11      -0.0592
  14 C11       7.5691    -8.1155    -4.9029  C.ar    1  <O>11      -0.0350
  15 C12       6.8149    -8.5807    -3.8190  C.ar    1  <O>11       0.1092
  16 S1        7.5857    -8.7529    -2.2463  S.O2    1  <O>11       0.0725
  17 O3        8.1598    -7.2764    -1.7468  O.2     1  <O>11      -0.1500
  18 O4        8.8485    -9.8262    -2.3634  O.2     1  <O>11      -0.1500
  19 N2        6.4844    -9.3144    -1.1514  N.pl3   1  <O>11      -0.2127
  20 C13       6.9287    -9.7859     0.1477  C.ar    1  <O>11       0.0893
  21 C14       8.2073    -9.4511     0.6238  C.ar    1  <O>11      -0.0358
  22 C15       8.6405    -9.9163     1.8701  C.ar    1  <O>11      -0.0597
  23 C16       7.8009   -10.7129     2.6529  C.ar    1  <O>11      -0.0582
  24 C17       6.5262   -11.0403     2.1821  C.ar    1  <O>11      -0.0183
  25 C18       6.0853   -10.5810     0.9402  C.ar    1  <O>11       0.1391
  26 O5        4.9017   -10.8783     0.5070  O.3     1  <O>11      -0.5049
  27 C19       5.4674    -8.9069    -3.9760  C.ar    1  <O>11      -0.0230
  28 H1        3.2880   -10.1060    -3.5870  H       1  <O>11       0.1552
  29 H2        2.9085   -11.7816    -5.4560  H       1  <O>11       0.2922
  30 H3        5.4926    -9.3285    -1.3868  H       1  <O>11       0.1738
  31 H4        4.7674   -10.4778    -0.3668  H       1  <O>11       0.2922
  32 H5        0.7414    -8.3861    -3.7113  H       1  <O>11       0.0637
  33 H6       -1.6055    -8.9691    -3.9738  H       1  <O>11       0.0618
  34 H7       -2.2288   -11.0702    -5.0272  H       1  <O>11       0.0619
  35 H8       -0.4985   -12.5832    -5.8132  H       1  <O>11       0.0655
  36 H9        5.1666    -8.1924    -7.2458  H       1  <O>11       0.0625
  37 H10       7.5110    -7.6345    -6.9572  H       1  <O>11       0.0618
  38 H11       8.5654    -7.8768    -4.7792  H       1  <O>11       0.0637
  39 H12       8.8299    -8.8593     0.0516  H       1  <O>11       0.0638
  40 H13       9.5826    -9.6705     2.2122  H       1  <O>11       0.0618
  41 H14       8.1196   -11.0570     3.5721  H       1  <O>11       0.0619
  42 H15       5.9044   -11.6281     2.7591  H       1  <O>11       0.0655
  43 H16       4.9204    -9.2454    -3.1691  H       1  <O>11       0.0645
@<TRIPOS>BOND
     1     1     2    2
     2     2     3   am
     3     3     4    1
     4     4     5   ar
     5     5     6   ar
     6     6     7   ar
     7     7     8   ar
     8     8     9   ar
     9     4     9   ar
    10     9    10    1
    11     2    11    1
    12    11    12   ar
    13    12    13   ar
    14    13    14   ar
    15    14    15   ar
    16    15    16    1
    17    16    17    2
    18    16    18    2
    19    16    19    1
    20    19    20    1
    21    20    21   ar
    22    21    22   ar
    23    22    23   ar
    24    23    24   ar
    25    24    25   ar
    26    20    25   ar
    27    25    26    1
    28    15    27   ar
    29    11    27   ar
    30     3    28    1
    31    10    29    1
    32    19    30    1
    33    26    31    1
    34     5    32    1
    35     6    33    1
    36     7    34    1
    37     8    35    1
    38    12    36    1
    39    13    37    1
    40    14    38    1
    41    21    39    1
    42    22    40    1
    43    23    41    1
    44    24    42    1
    45    27    43    1
@<TRIPOS>MOLECULE
mol29_1_15
 43 45 0 0 0
SMALL
USER_CHARGES
****
VDW energy = 80.14
@<TRIPOS>ATOM
   1 O1        2.8627    -8.7918    -6.4269  O.2     1  <O>11      -0.2699
   2 C1        3.4528    -9.1250    -5.4100  C.2     1  <O>11       0.2484
   3 N1        2.7960    -9.8280    -4.4360  N.am    1  <O>11      -0.2786
   4 C2        1.4620   -10.1610    -4.6040  C.ar    1  <O>11       0.0756
   5 C3        1.0888   -11.5071    -4.6050  C.ar    1  <O>11      -0.0369
   6 C4       -0.2548   -11.8518    -4.7875  C.ar    1  <O>11      -0.0598
   7 C5       -1.2192   -10.8553    -4.9618  C.ar    1  <O>11      -0.0582
   8 C6       -0.8315    -9.5115    -4.9514  C.ar    1  <O>11      -0.0183
   9 C7        0.5065    -9.1580    -4.7690  C.ar    1  <O>11       0.1380
  10 O2        0.8648    -7.9142    -4.7522  O.3     1  <O>11      -0.5049
  11 C8        4.8560    -8.7740    -5.2340  C.ar    1  <O>11       0.0389
  12 C9        5.6106    -8.3011    -6.3206  C.ar    1  <O>11      -0.0495
  13 C10       6.9614    -7.9770    -6.1537  C.ar    1  <O>11      -0.0592
  14 C11       7.5691    -8.1155    -4.9029  C.ar    1  <O>11      -0.0350
  15 C12       6.8149    -8.5807    -3.8190  C.ar    1  <O>11       0.1092
  16 S1        7.5857    -8.7529    -2.2463  S.O2    1  <O>11       0.0725
  17 O3        8.1598    -7.2764    -1.7468  O.2     1  <O>11      -0.1500
  18 O4        8.8485    -9.8262    -2.3634  O.2     1  <O>11      -0.1500
  19 N2        6.4844    -9.3144    -1.1514  N.pl3   1  <O>11      -0.2127
  20 C13       6.9287    -9.7859     0.1477  C.ar    1  <O>11       0.0893
  21 C14       8.2073    -9.4511     0.6238  C.ar    1  <O>11      -0.0358
  22 C15       8.6405    -9.9163     1.8701  C.ar    1  <O>11      -0.0597
  23 C16       7.8009   -10.7129     2.6529  C.ar    1  <O>11      -0.0582
  24 C17       6.5262   -11.0403     2.1821  C.ar    1  <O>11      -0.0183
  25 C18       6.0853   -10.5810     0.9402  C.ar    1  <O>11       0.1391
  26 O5        4.9017   -10.8783     0.5070  O.3     1  <O>11      -0.5049
  27 C19       5.4674    -8.9069    -3.9760  C.ar    1  <O>11      -0.0230
  28 H1        3.2880   -10.1060    -3.5870  H       1  <O>11       0.1552
  29 H2        1.8228    -7.8557    -4.6167  H       1  <O>11       0.2922
  30 H3        5.4926    -9.3285    -1.3868  H       1  <O>11       0.1738
  31 H4        4.7674   -10.4778    -0.3668  H       1  <O>11       0.2922
  32 H5        1.8000   -12.2430    -4.4718  H       1  <O>11       0.0637
  33 H6       -0.5347   -12.8451    -4.7935  H       1  <O>11       0.0618
  34 H7       -2.2102   -11.1093    -5.0973  H       1  <O>11       0.0619
  35 H8       -1.5418    -8.7739    -5.0798  H       1  <O>11       0.0655
  36 H9        5.1666    -8.1924    -7.2458  H       1  <O>11       0.0625
  37 H10       7.5110    -7.6345    -6.9572  H       1  <O>11       0.0618
  38 H11       8.5654    -7.8768    -4.7792  H       1  <O>11       0.0637
  39 H12       8.8299    -8.8593     0.0516  H       1  <O>11       0.0638
  40 H13       9.5826    -9.6705     2.2122  H       1  <O>11       0.0618
  41 H14       8.1196   -11.0570     3.5721  H       1  <O>11       0.0619
  42 H15       5.9044   -11.6281     2.7591  H       1  <O>11       0.0655
  43 H16       4.9204    -9.2454    -3.1691  H       1  <O>11       0.0645
@<TRIPOS>BOND
     1     1     2    2
     2     2     3   am
     3     3     4    1
     4     4     5   ar
     5     5     6   ar
     6     6     7   ar
     7     7     8   ar
     8     8     9   ar
     9     4     9   ar
    10     9    10    1
    11     2    11    1
    12    11    12   ar
    13    12    13   ar
    14    13    14   ar
    15    14    15   ar
    16    15    16    1
    17    16    17    2
    18    16    18    2
    19    16    19    1
    20    19    20    1
    21    20    21   ar
    22    21    22   ar
    23    22    23   ar
    24    23    24   ar
    25    24    25   ar
    26    20    25   ar
    27    25    26    1
    28    15    27   ar
    29    11    27   ar
    30     3    28    1
    31    10    29    1
    32    19    30    1
    33    26    31    1
    34     5    32    1
    35     6    33    1
    36     7    34    1
    37     8    35    1
    38    12    36    1
    39    13    37    1
    40    14    38    1
    41    21    39    1
    42    22    40    1
    43    23    41    1
    44    24    42    1
    45    27    43    1
@<TRIPOS>MOLECULE
mol29_1_16
 43 45 0 0 0
SMALL
USER_CHARGES
****
VDW energy = 81.36
@<TRIPOS>ATOM
   1 O1        2.8627    -8.7918    -6.4269  O.2     1  <O>11      -0.2699
   2 C1        3.4528    -9.1250    -5.4100  C.2     1  <O>11       0.2484
   3 N1        2.7960    -9.8280    -4.4360  N.am    1  <O>11      -0.2786
   4 C2        1.4620   -10.1610    -4.6040  C.ar    1  <O>11       0.0756
   5 C3        0.9044   -10.1232    -5.8843  C.ar    1  <O>11      -0.0369
   6 C4       -0.4457   -10.4452    -6.0600  C.ar    1  <O>11      -0.0598
   7 C5       -1.2308   -10.8085    -4.9623  C.ar    1  <O>11      -0.0582
   8 C6       -0.6568   -10.8488    -3.6874  C.ar    1  <O>11      -0.0183
   9 C7        0.6895   -10.5301    -3.5025  C.ar    1  <O>11       0.1380
  10 O2        1.2229   -10.5741    -2.3239  O.3     1  <O>11      -0.5049
  11 C8        4.8560    -8.7740    -5.2340  C.ar    1  <O>11       0.0389
  12 C9        5.6106    -8.3011    -6.3206  C.ar    1  <O>11      -0.0495
  13 C10       6.9614    -7.9770    -6.1537  C.ar    1  <O>11      -0.0592
  14 C11       7.5691    -8.1155    -4.9029  C.ar    1  <O>11      -0.0350
  15 C12       6.8149    -8.5807    -3.8190  C.ar    1  <O>11       0.1092
  16 S1        7.5857    -8.7529    -2.2463  S.O2    1  <O>11       0.0725
  17 O3        9.1965    -9.1012    -2.4548  O.2     1  <O>11      -0.1500
  18 O4        6.8577    -9.9868    -1.4051  O.2     1  <O>11      -0.1500
  19 N2        7.4324    -7.3430    -1.4003  N.pl3   1  <O>11      -0.2127
  20 C13       6.1130    -6.8236    -1.0892  C.ar    1  <O>11       0.0893
  21 C14       5.4695    -5.9457    -1.9773  C.ar    1  <O>11      -0.0358
  22 C15       4.2034    -5.4349    -1.6713  C.ar    1  <O>11      -0.0597
  23 C16       3.5676    -5.7998    -0.4819  C.ar    1  <O>11      -0.0582
  24 C17       4.2050    -6.6787     0.3985  C.ar    1  <O>11      -0.0183
  25 C18       5.4679    -7.1934     0.1019  C.ar    1  <O>11       0.1391
  26 O5        6.0555    -8.0133     0.9140  O.3     1  <O>11      -0.5049
  27 C19       5.4674    -8.9069    -3.9760  C.ar    1  <O>11      -0.0230
  28 H1        3.2880   -10.1060    -3.5870  H       1  <O>11       0.1552
  29 H2        2.1575   -10.3235    -2.3826  H       1  <O>11       0.2922
  30 H3        8.2639    -6.8382    -1.0951  H       1  <O>11       0.1738
  31 H4        6.9190    -8.2656     0.5497  H       1  <O>11       0.2922
  32 H5        1.4850    -9.8594    -6.6957  H       1  <O>11       0.0637
  33 H6       -0.8632   -10.4144    -7.0033  H       1  <O>11       0.0618
  34 H7       -2.2269   -11.0454    -5.0915  H       1  <O>11       0.0619
  35 H8       -1.2346   -11.1169    -2.8754  H       1  <O>11       0.0655
  36 H9        5.1666    -8.1924    -7.2458  H       1  <O>11       0.0625
  37 H10       7.5110    -7.6345    -6.9572  H       1  <O>11       0.0618
  38 H11       8.5654    -7.8768    -4.7792  H       1  <O>11       0.0637
  39 H12       5.9327    -5.6763    -2.8593  H       1  <O>11       0.0638
  40 H13       3.7380    -4.7868    -2.3258  H       1  <O>11       0.0618
  41 H14       2.6340    -5.4232    -0.2550  H       1  <O>11       0.0619
  42 H15       3.7367    -6.9498     1.2772  H       1  <O>11       0.0655
  43 H16       4.9204    -9.2454    -3.1691  H       1  <O>11       0.0645
@<TRIPOS>BOND
     1     1     2    2
     2     2     3   am
     3     3     4    1
     4     4     5   ar
     5     5     6   ar
     6     6     7   ar
     7     7     8   ar
     8     8     9   ar
     9     4     9   ar
    10     9    10    1
    11     2    11    1
    12    11    12   ar
    13    12    13   ar
    14    13    14   ar
    15    14    15   ar
    16    15    16    1
    17    16    17    2
    18    16    18    2
    19    16    19    1
    20    19    20    1
    21    20    21   ar
    22    21    22   ar
    23    22    23   ar
    24    23    24   ar
    25    24    25   ar
    26    20    25   ar
    27    25    26    1
    28    15    27   ar
    29    11    27   ar
    30     3    28    1
    31    10    29    1
    32    19    30    1
    33    26    31    1
    34     5    32    1
    35     6    33    1
    36     7    34    1
    37     8    35    1
    38    12    36    1
    39    13    37    1
    40    14    38    1
    41    21    39    1
    42    22    40    1
    43    23    41    1
    44    24    42    1
    45    27    43    1
@<TRIPOS>MOLECULE
mol29_1_17
 43 45 0 0 0
SMALL
USER_CHARGES
****
VDW energy = 82.79
@<TRIPOS>ATOM
   1 O1        2.8627    -8.7918    -6.4269  O.2     1  <O>11      -0.2699
   2 C1        3.4528    -9.1250    -5.4100  C.2     1  <O>11       0.2484
   3 N1        2.7960    -9.8280    -4.4360  N.am    1  <O>11      -0.2786
   4 C2        1.4620   -10.1610    -4.6040  C.ar    1  <O>11       0.0756
   5 C3        0.9044   -10.1232    -5.8843  C.ar    1  <O>11      -0.0369
   6 C4       -0.4457   -10.4452    -6.0600  C.ar    1  <O>11      -0.0598
   7 C5       -1.2308   -10.8085    -4.9623  C.ar    1  <O>11      -0.0582
   8 C6       -0.6568   -10.8488    -3.6874  C.ar    1  <O>11      -0.0183
   9 C7        0.6895   -10.5301    -3.5025  C.ar    1  <O>11       0.1380
  10 O2        1.2229   -10.5741    -2.3239  O.3     1  <O>11      -0.5049
  11 C8        4.8560    -8.7740    -5.2340  C.ar    1  <O>11       0.0389
  12 C9        5.6106    -8.3011    -6.3206  C.ar    1  <O>11      -0.0495
  13 C10       6.9614    -7.9770    -6.1537  C.ar    1  <O>11      -0.0592
  14 C11       7.5691    -8.1155    -4.9029  C.ar    1  <O>11      -0.0350
  15 C12       6.8149    -8.5807    -3.8190  C.ar    1  <O>11       0.1092
  16 S1        7.5857    -8.7529    -2.2463  S.O2    1  <O>11       0.0725
  17 O3        6.4598    -8.5129    -1.0489  O.2     1  <O>11      -0.1500
  18 O4        8.7987    -7.6273    -2.0983  O.2     1  <O>11      -0.1500
  19 N2        8.2217   -10.2706    -2.1077  N.pl3   1  <O>11      -0.2127
  20 C13       9.2339   -10.7214    -3.0457  C.ar    1  <O>11       0.0893
  21 C14       8.8599   -11.3720    -4.2333  C.ar    1  <O>11      -0.0358
  22 C15       9.8358   -11.8181    -5.1311  C.ar    1  <O>11      -0.0597
  23 C16      11.1901   -11.6136    -4.8548  C.ar    1  <O>11      -0.0582
  24 C17      11.5619   -10.9601    -3.6765  C.ar    1  <O>11      -0.0183
  25 C18      10.5956   -10.5116    -2.7749  C.ar    1  <O>11       0.1391
  26 O5       10.9395    -9.8998    -1.6866  O.3     1  <O>11      -0.5049
  27 C19       5.4674    -8.9069    -3.9760  C.ar    1  <O>11      -0.0230
  28 H1        3.2880   -10.1060    -3.5870  H       1  <O>11       0.1552
  29 H2        2.1575   -10.3235    -2.3826  H       1  <O>11       0.2922
  30 H3        7.9050   -10.8904    -1.3628  H       1  <O>11       0.1738
  31 H4       10.1438    -9.6627    -1.1840  H       1  <O>11       0.2922
  32 H5        1.4850    -9.8594    -6.6957  H       1  <O>11       0.0637
  33 H6       -0.8632   -10.4144    -7.0033  H       1  <O>11       0.0618
  34 H7       -2.2269   -11.0454    -5.0915  H       1  <O>11       0.0619
  35 H8       -1.2346   -11.1169    -2.8754  H       1  <O>11       0.0655
  36 H9        5.1666    -8.1924    -7.2458  H       1  <O>11       0.0625
  37 H10       7.5110    -7.6345    -6.9572  H       1  <O>11       0.0618
  38 H11       8.5654    -7.8768    -4.7792  H       1  <O>11       0.0637
  39 H12       7.8608   -11.5217    -4.4444  H       1  <O>11       0.0638
  40 H13       9.5547   -12.2994    -5.9996  H       1  <O>11       0.0618
  41 H14      11.9108   -11.9427    -5.5161  H       1  <O>11       0.0619
  42 H15      12.5616   -10.8077    -3.4710  H       1  <O>11       0.0655
  43 H16       4.9204    -9.2454    -3.1691  H       1  <O>11       0.0645
@<TRIPOS>BOND
     1     1     2    2
     2     2     3   am
     3     3     4    1
     4     4     5   ar
     5     5     6   ar
     6     6     7   ar
     7     7     8   ar
     8     8     9   ar
     9     4     9   ar
    10     9    10    1
    11     2    11    1
    12    11    12   ar
    13    12    13   ar
    14    13    14   ar
    15    14    15   ar
    16    15    16    1
    17    16    17    2
    18    16    18    2
    19    16    19    1
    20    19    20    1
    21    20    21   ar
    22    21    22   ar
    23    22    23   ar
    24    23    24   ar
    25    24    25   ar
    26    20    25   ar
    27    25    26    1
    28    15    27   ar
    29    11    27   ar
    30     3    28    1
    31    10    29    1
    32    19    30    1
    33    26    31    1
    34     5    32    1
    35     6    33    1
    36     7    34    1
    37     8    35    1
    38    12    36    1
    39    13    37    1
    40    14    38    1
    41    21    39    1
    42    22    40    1
    43    23    41    1
    44    24    42    1
    45    27    43    1
@<TRIPOS>MOLECULE
mol29_1_18
 43 45 0 0 0
SMALL
USER_CHARGES
****
VDW energy = 87.08
@<TRIPOS>ATOM
   1 O1        2.8627    -8.7918    -6.4269  O.2     1  <O>11      -0.2699
   2 C1        3.4528    -9.1250    -5.4100  C.2     1  <O>11       0.2484
   3 N1        2.7960    -9.8280    -4.4360  N.am    1  <O>11      -0.2786
   4 C2        1.4620   -10.1610    -4.6040  C.ar    1  <O>11       0.0756
   5 C3        0.9044   -10.1232    -5.8843  C.ar    1  <O>11      -0.0369
   6 C4       -0.4457   -10.4452    -6.0600  C.ar    1  <O>11      -0.0598
   7 C5       -1.2308   -10.8085    -4.9623  C.ar    1  <O>11      -0.0582
   8 C6       -0.6568   -10.8488    -3.6874  C.ar    1  <O>11      -0.0183
   9 C7        0.6895   -10.5301    -3.5025  C.ar    1  <O>11       0.1380
  10 O2        1.2229   -10.5741    -2.3239  O.3     1  <O>11      -0.5049
  11 C8        4.8560    -8.7740    -5.2340  C.ar    1  <O>11       0.0389
  12 C9        5.6106    -8.3011    -6.3206  C.ar    1  <O>11      -0.0495
  13 C10       6.9614    -7.9770    -6.1537  C.ar    1  <O>11      -0.0592
  14 C11       7.5691    -8.1155    -4.9029  C.ar    1  <O>11      -0.0350
  15 C12       6.8149    -8.5807    -3.8190  C.ar    1  <O>11       0.1092
  16 S1        7.5857    -8.7529    -2.2463  S.O2    1  <O>11       0.0725
  17 O3        6.4598    -8.5129    -1.0489  O.2     1  <O>11      -0.1500
  18 O4        8.7987    -7.6273    -2.0983  O.2     1  <O>11      -0.1500
  19 N2        8.2217   -10.2706    -2.1077  N.pl3   1  <O>11      -0.2127
  20 C13       9.1300   -10.5797    -1.0182  C.ar    1  <O>11       0.0893
  21 C14      10.5142   -10.3996    -1.1768  C.ar    1  <O>11      -0.0358
  22 C15      11.3906   -10.7099    -0.1313  C.ar    1  <O>11      -0.0597
  23 C16      10.8936   -11.1956     1.0808  C.ar    1  <O>11      -0.0582
  24 C17       9.5159   -11.3683     1.2409  C.ar    1  <O>11      -0.0183
  25 C18       8.6338   -11.0616     0.2037  C.ar    1  <O>11       0.1391
  26 O5        7.3568   -11.2147     0.3543  O.3     1  <O>11      -0.5049
  27 C19       5.4674    -8.9069    -3.9760  C.ar    1  <O>11      -0.0230
  28 H1        3.2880   -10.1060    -3.5870  H       1  <O>11       0.1552
  29 H2        2.1575   -10.3235    -2.3826  H       1  <O>11       0.2922
  30 H3        7.9755   -10.9908    -2.7859  H       1  <O>11       0.1738
  31 H4        6.9017   -10.9554    -0.4628  H       1  <O>11       0.2922
  32 H5        1.4850    -9.8594    -6.6957  H       1  <O>11       0.0637
  33 H6       -0.8632   -10.4144    -7.0033  H       1  <O>11       0.0618
  34 H7       -2.2269   -11.0454    -5.0915  H       1  <O>11       0.0619
  35 H8       -1.2346   -11.1169    -2.8754  H       1  <O>11       0.0655
  36 H9        5.1666    -8.1924    -7.2458  H       1  <O>11       0.0625
  37 H10       7.5110    -7.6345    -6.9572  H       1  <O>11       0.0618
  38 H11       8.5654    -7.8768    -4.7792  H       1  <O>11       0.0637
  39 H12      10.8862   -10.0369    -2.0685  H       1  <O>11       0.0638
  40 H13      12.4067   -10.5796    -0.2558  H       1  <O>11       0.0618
  41 H14      11.5393   -11.4253     1.8524  H       1  <O>11       0.0619
  42 H15       9.1469   -11.7265     2.1357  H       1  <O>11       0.0655
  43 H16       4.9204    -9.2454    -3.1691  H       1  <O>11       0.0645
@<TRIPOS>BOND
     1     1     2    2
     2     2     3   am
     3     3     4    1
     4     4     5   ar
     5     5     6   ar
     6     6     7   ar
     7     7     8   ar
     8     8     9   ar
     9     4     9   ar
    10     9    10    1
    11     2    11    1
    12    11    12   ar
    13    12    13   ar
    14    13    14   ar
    15    14    15   ar
    16    15    16    1
    17    16    17    2
    18    16    18    2
    19    16    19    1
    20    19    20    1
    21    20    21   ar
    22    21    22   ar
    23    22    23   ar
    24    23    24   ar
    25    24    25   ar
    26    20    25   ar
    27    25    26    1
    28    15    27   ar
    29    11    27   ar
    30     3    28    1
    31    10    29    1
    32    19    30    1
    33    26    31    1
    34     5    32    1
    35     6    33    1
    36     7    34    1
    37     8    35    1
    38    12    36    1
    39    13    37    1
    40    14    38    1
    41    21    39    1
    42    22    40    1
    43    23    41    1
    44    24    42    1
    45    27    43    1
@<TRIPOS>MOLECULE
mol29_1_19
 43 45 0 0 0
SMALL
USER_CHARGES
****
VDW energy = 87.41
@<TRIPOS>ATOM
   1 O1        2.8627    -8.7918    -6.4269  O.2     1  <O>11      -0.2699
   2 C1        3.4528    -9.1250    -5.4100  C.2     1  <O>11       0.2484
   3 N1        2.7960    -9.8280    -4.4360  N.am    1  <O>11      -0.2786
   4 C2        1.4620   -10.1610    -4.6040  C.ar    1  <O>11       0.0756
   5 C3        0.9044   -10.1232    -5.8843  C.ar    1  <O>11      -0.0369
   6 C4       -0.4457   -10.4452    -6.0600  C.ar    1  <O>11      -0.0598
   7 C5       -1.2308   -10.8085    -4.9623  C.ar    1  <O>11      -0.0582
   8 C6       -0.6568   -10.8488    -3.6874  C.ar    1  <O>11      -0.0183
   9 C7        0.6895   -10.5301    -3.5025  C.ar    1  <O>11       0.1380
  10 O2        1.2229   -10.5741    -2.3239  O.3     1  <O>11      -0.5049
  11 C8        4.8560    -8.7740    -5.2340  C.ar    1  <O>11       0.0389
  12 C9        5.8658    -9.6435    -5.6788  C.ar    1  <O>11      -0.0495
  13 C10       7.2130    -9.3117    -5.4974  C.ar    1  <O>11      -0.0592
  14 C11       7.5644    -8.1096    -4.8774  C.ar    1  <O>11      -0.0350
  15 C12       6.5575    -7.2406    -4.4401  C.ar    1  <O>11       0.1092
  16 S1        7.0065    -5.7283    -3.6601  S.O2    1  <O>11       0.0725
  17 O3        5.8422    -4.5828    -3.9625  O.2     1  <O>11      -0.1500
  18 O4        8.4646    -5.2067    -4.2618  O.2     1  <O>11      -0.1500
  19 N2        7.1352    -5.9656    -2.0310  N.pl3   1  <O>11      -0.2127
  20 C13       8.0919    -6.9258    -1.5112  C.ar    1  <O>11       0.0893
  21 C14       7.6469    -8.0820    -0.8488  C.ar    1  <O>11      -0.0358
  22 C15       8.5692    -9.0009    -0.3364  C.ar    1  <O>11      -0.0597
  23 C16       9.9403    -8.7773    -0.4858  C.ar    1  <O>11      -0.0582
  24 C17      10.3829    -7.6304    -1.1509  C.ar    1  <O>11      -0.0183
  25 C18       9.4705    -6.7080    -1.6654  C.ar    1  <O>11       0.1391
  26 O5        9.8802    -5.6490    -2.2879  O.3     1  <O>11      -0.5049
  27 C19       5.2116    -7.5633    -4.6162  C.ar    1  <O>11      -0.0230
  28 H1        3.2880   -10.1060    -3.5870  H       1  <O>11       0.1552
  29 H2        2.1575   -10.3235    -2.3826  H       1  <O>11       0.2922
  30 H3        6.5443    -5.4370    -1.3901  H       1  <O>11       0.1738
  31 H4        9.1144    -5.1256    -2.5735  H       1  <O>11       0.2922
  32 H5        1.4850    -9.8594    -6.6957  H       1  <O>11       0.0637
  33 H6       -0.8632   -10.4144    -7.0033  H       1  <O>11       0.0618
  34 H7       -2.2269   -11.0454    -5.0915  H       1  <O>11       0.0619
  35 H8       -1.2346   -11.1169    -2.8754  H       1  <O>11       0.0655
  36 H9        5.6130   -10.5306    -6.1415  H       1  <O>11       0.0625
  37 H10       7.9497    -9.9571    -5.8225  H       1  <O>11       0.0618
  38 H11       8.5578    -7.8644    -4.7431  H       1  <O>11       0.0637
  39 H12       6.6353    -8.2543    -0.7395  H       1  <O>11       0.0638
  40 H13       8.2359    -9.8460     0.1532  H       1  <O>11       0.0618
  41 H14      10.6213    -9.4542    -0.1077  H       1  <O>11       0.0619
  42 H15      11.3952    -7.4638    -1.2627  H       1  <O>11       0.0655
  43 H16       4.4780    -6.9133    -4.2931  H       1  <O>11       0.0645
@<TRIPOS>BOND
     1     1     2    2
     2     2     3   am
     3     3     4    1
     4     4     5   ar
     5     5     6   ar
     6     6     7   ar
     7     7     8   ar
     8     8     9   ar
     9     4     9   ar
    10     9    10    1
    11     2    11    1
    12    11    12   ar
    13    12    13   ar
    14    13    14   ar
    15    14    15   ar
    16    15    16    1
    17    16    17    2
    18    16    18    2
    19    16    19    1
    20    19    20    1
    21    20    21   ar
    22    21    22   ar
    23    22    23   ar
    24    23    24   ar
    25    24    25   ar
    26    20    25   ar
    27    25    26    1
    28    15    27   ar
    29    11    27   ar
    30     3    28    1
    31    10    29    1
    32    19    30    1
    33    26    31    1
    34     5    32    1
    35     6    33    1
    36     7    34    1
    37     8    35    1
    38    12    36    1
    39    13    37    1
    40    14    38    1
    41    21    39    1
    42    22    40    1
    43    23    41    1
    44    24    42    1
    45    27    43    1
@<TRIPOS>MOLECULE
mol29_1_20
 43 45 0 0 0
SMALL
USER_CHARGES
****
VDW energy = 87.73
@<TRIPOS>ATOM
   1 O1        2.8627    -8.7918    -6.4269  O.2     1  <O>11      -0.2699
   2 C1        3.4528    -9.1250    -5.4100  C.2     1  <O>11       0.2484
   3 N1        2.7960    -9.8280    -4.4360  N.am    1  <O>11      -0.2786
   4 C2        1.4620   -10.1610    -4.6040  C.ar    1  <O>11       0.0756
   5 C3        0.9044   -10.1232    -5.8843  C.ar    1  <O>11      -0.0369
   6 C4       -0.4457   -10.4452    -6.0600  C.ar    1  <O>11      -0.0598
   7 C5       -1.2308   -10.8085    -4.9623  C.ar    1  <O>11      -0.0582
   8 C6       -0.6568   -10.8488    -3.6874  C.ar    1  <O>11      -0.0183
   9 C7        0.6895   -10.5301    -3.5025  C.ar    1  <O>11       0.1380
  10 O2        1.2229   -10.5741    -2.3239  O.3     1  <O>11      -0.5049
  11 C8        4.8560    -8.7740    -5.2340  C.ar    1  <O>11       0.0389
  12 C9        5.8658    -9.6435    -5.6788  C.ar    1  <O>11      -0.0495
  13 C10       7.2130    -9.3117    -5.4974  C.ar    1  <O>11      -0.0592
  14 C11       7.5644    -8.1096    -4.8774  C.ar    1  <O>11      -0.0350
  15 C12       6.5575    -7.2406    -4.4401  C.ar    1  <O>11       0.1092
  16 S1        7.0065    -5.7283    -3.6601  S.O2    1  <O>11       0.0725
  17 O3        8.6522    -5.5241    -3.7547  O.2     1  <O>11      -0.1500
  18 O4        6.5454    -5.7702    -2.0645  O.2     1  <O>11      -0.1500
  19 N2        6.2513    -4.4713    -4.4196  N.pl3   1  <O>11      -0.2127
  20 C13       4.8014    -4.4216    -4.4728  C.ar    1  <O>11       0.0893
  21 C14       4.1332    -4.5353    -5.7033  C.ar    1  <O>11      -0.0358
  22 C15       2.7364    -4.4744    -5.7561  C.ar    1  <O>11      -0.0597
  23 C16       1.9960    -4.3059    -4.5833  C.ar    1  <O>11      -0.0582
  24 C17       2.6606    -4.1997    -3.3582  C.ar    1  <O>11      -0.0183
  25 C18       4.0536    -4.2593    -3.2955  C.ar    1  <O>11       0.1391
  26 O5        4.6692    -4.1681    -2.1599  O.3     1  <O>11      -0.5049
  27 C19       5.2116    -7.5633    -4.6162  C.ar    1  <O>11      -0.0230
  28 H1        3.2880   -10.1060    -3.5870  H       1  <O>11       0.1552
  29 H2        2.1575   -10.3235    -2.3826  H       1  <O>11       0.2922
  30 H3        6.8028    -3.7295    -4.8496  H       1  <O>11       0.1738
  31 H4        5.6268    -4.2284    -2.3058  H       1  <O>11       0.2922
  32 H5        1.4850    -9.8594    -6.6957  H       1  <O>11       0.0637
  33 H6       -0.8632   -10.4144    -7.0033  H       1  <O>11       0.0618
  34 H7       -2.2269   -11.0454    -5.0915  H       1  <O>11       0.0619
  35 H8       -1.2346   -11.1169    -2.8754  H       1  <O>11       0.0655
  36 H9        5.6130   -10.5306    -6.1415  H       1  <O>11       0.0625
  37 H10       7.9497    -9.9571    -5.8225  H       1  <O>11       0.0618
  38 H11       8.5578    -7.8644    -4.7431  H       1  <O>11       0.0637
  39 H12       4.6750    -4.6643    -6.5722  H       1  <O>11       0.0638
  40 H13       2.2517    -4.5540    -6.6638  H       1  <O>11       0.0618
  41 H14       0.9658    -4.2603    -4.6212  H       1  <O>11       0.0619
  42 H15       2.1154    -4.0758    -2.4908  H       1  <O>11       0.0655
  43 H16       4.4780    -6.9133    -4.2931  H       1  <O>11       0.0645
@<TRIPOS>BOND
     1     1     2    2
     2     2     3   am
     3     3     4    1
     4     4     5   ar
     5     5     6   ar
     6     6     7   ar
     7     7     8   ar
     8     8     9   ar
     9     4     9   ar
    10     9    10    1
    11     2    11    1
    12    11    12   ar
    13    12    13   ar
    14    13    14   ar
    15    14    15   ar
    16    15    16    1
    17    16    17    2
    18    16    18    2
    19    16    19    1
    20    19    20    1
    21    20    21   ar
    22    21    22   ar
    23    22    23   ar
    24    23    24   ar
    25    24    25   ar
    26    20    25   ar
    27    25    26    1
    28    15    27   ar
    29    11    27   ar
    30     3    28    1
    31    10    29    1
    32    19    30    1
    33    26    31    1
    34     5    32    1
    35     6    33    1
    36     7    34    1
    37     8    35    1
    38    12    36    1
    39    13    37    1
    40    14    38    1
    41    21    39    1
    42    22    40    1
    43    23    41    1
    44    24    42    1
    45    27    43    1
@<TRIPOS>MOLECULE
mol29_1_21
 43 45 0 0 0
SMALL
USER_CHARGES
****
VDW energy = 90.23
@<TRIPOS>ATOM
   1 O1        2.8627    -8.7918    -6.4269  O.2     1  <O>11      -0.2699
   2 C1        3.4528    -9.1250    -5.4100  C.2     1  <O>11       0.2484
   3 N1        2.7960    -9.8280    -4.4360  N.am    1  <O>11      -0.2786
   4 C2        1.4620   -10.1610    -4.6040  C.ar    1  <O>11       0.0756
   5 C3        0.9044   -10.1232    -5.8843  C.ar    1  <O>11      -0.0369
   6 C4       -0.4457   -10.4452    -6.0600  C.ar    1  <O>11      -0.0598
   7 C5       -1.2308   -10.8085    -4.9623  C.ar    1  <O>11      -0.0582
   8 C6       -0.6568   -10.8488    -3.6874  C.ar    1  <O>11      -0.0183
   9 C7        0.6895   -10.5301    -3.5025  C.ar    1  <O>11       0.1380
  10 O2        1.2229   -10.5741    -2.3239  O.3     1  <O>11      -0.5049
  11 C8        4.8560    -8.7740    -5.2340  C.ar    1  <O>11       0.0389
  12 C9        5.8658    -9.6435    -5.6788  C.ar    1  <O>11      -0.0495
  13 C10       7.2130    -9.3117    -5.4974  C.ar    1  <O>11      -0.0592
  14 C11       7.5644    -8.1096    -4.8774  C.ar    1  <O>11      -0.0350
  15 C12       6.5575    -7.2406    -4.4401  C.ar    1  <O>11       0.1092
  16 S1        7.0065    -5.7283    -3.6601  S.O2    1  <O>11       0.0725
  17 O3        7.8944    -6.0524    -2.2942  O.2     1  <O>11      -0.1500
  18 O4        5.6331    -4.8925    -3.2413  O.2     1  <O>11      -0.1500
  19 N2        7.9098    -4.8186    -4.7010  N.pl3   1  <O>11      -0.2127
  20 C13       7.3504    -4.4037    -5.9747  C.ar    1  <O>11       0.0893
  21 C14       5.9628    -4.4523    -6.1888  C.ar    1  <O>11      -0.0358
  22 C15       5.4248    -4.0648    -7.4208  C.ar    1  <O>11      -0.0597
  23 C16       6.2647    -3.6208    -8.4453  C.ar    1  <O>11      -0.0582
  24 C17       7.6446    -3.5660    -8.2300  C.ar    1  <O>11      -0.0183
  25 C18       8.1906    -3.9504    -7.0044  C.ar    1  <O>11       0.1391
  26 O5        9.4684    -3.8930    -6.8022  O.3     1  <O>11      -0.5049
  27 C19       5.2116    -7.5633    -4.6162  C.ar    1  <O>11      -0.0230
  28 H1        3.2880   -10.1060    -3.5870  H       1  <O>11       0.1552
  29 H2        2.1575   -10.3235    -2.3826  H       1  <O>11       0.2922
  30 H3        8.8595    -4.5468    -4.4487  H       1  <O>11       0.1738
  31 H4        9.6670    -4.1967    -5.9021  H       1  <O>11       0.2922
  32 H5        1.4850    -9.8594    -6.6957  H       1  <O>11       0.0637
  33 H6       -0.8632   -10.4144    -7.0033  H       1  <O>11       0.0618
  34 H7       -2.2269   -11.0454    -5.0915  H       1  <O>11       0.0619
  35 H8       -1.2346   -11.1169    -2.8754  H       1  <O>11       0.0655
  36 H9        5.6130   -10.5306    -6.1415  H       1  <O>11       0.0625
  37 H10       7.9497    -9.9571    -5.8225  H       1  <O>11       0.0618
  38 H11       8.5578    -7.8644    -4.7431  H       1  <O>11       0.0637
  39 H12       5.3375    -4.7753    -5.4339  H       1  <O>11       0.0638
  40 H13       4.4050    -4.1071    -7.5732  H       1  <O>11       0.0618
  41 H14       5.8689    -3.3353    -9.3546  H       1  <O>11       0.0619
  42 H15       8.2665    -3.2378    -8.9854  H       1  <O>11       0.0655
  43 H16       4.4780    -6.9133    -4.2931  H       1  <O>11       0.0645
@<TRIPOS>BOND
     1     1     2    2
     2     2     3   am
     3     3     4    1
     4     4     5   ar
     5     5     6   ar
     6     6     7   ar
     7     7     8   ar
     8     8     9   ar
     9     4     9   ar
    10     9    10    1
    11     2    11    1
    12    11    12   ar
    13    12    13   ar
    14    13    14   ar
    15    14    15   ar
    16    15    16    1
    17    16    17    2
    18    16    18    2
    19    16    19    1
    20    19    20    1
    21    20    21   ar
    22    21    22   ar
    23    22    23   ar
    24    23    24   ar
    25    24    25   ar
    26    20    25   ar
    27    25    26    1
    28    15    27   ar
    29    11    27   ar
    30     3    28    1
    31    10    29    1
    32    19    30    1
    33    26    31    1
    34     5    32    1
    35     6    33    1
    36     7    34    1
    37     8    35    1
    38    12    36    1
    39    13    37    1
    40    14    38    1
    41    21    39    1
    42    22    40    1
    43    23    41    1
    44    24    42    1
    45    27    43    1
@<TRIPOS>MOLECULE
mol29_1_22
 43 45 0 0 0
SMALL
USER_CHARGES
****
VDW energy = 91.37
@<TRIPOS>ATOM
   1 O1        2.8627    -8.7918    -6.4269  O.2     1  <O>11      -0.2699
   2 C1        3.4528    -9.1250    -5.4100  C.2     1  <O>11       0.2484
   3 N1        2.7960    -9.8280    -4.4360  N.am    1  <O>11      -0.2786
   4 C2        1.4620   -10.1610    -4.6040  C.ar    1  <O>11       0.0756
   5 C3        0.9044   -10.1232    -5.8843  C.ar    1  <O>11      -0.0369
   6 C4       -0.4457   -10.4452    -6.0600  C.ar    1  <O>11      -0.0598
   7 C5       -1.2308   -10.8085    -4.9623  C.ar    1  <O>11      -0.0582
   8 C6       -0.6568   -10.8488    -3.6874  C.ar    1  <O>11      -0.0183
   9 C7        0.6895   -10.5301    -3.5025  C.ar    1  <O>11       0.1380
  10 O2        1.2229   -10.5741    -2.3239  O.3     1  <O>11      -0.5049
  11 C8        4.8560    -8.7740    -5.2340  C.ar    1  <O>11       0.0389
  12 C9        5.8658    -9.6435    -5.6788  C.ar    1  <O>11      -0.0495
  13 C10       7.2130    -9.3117    -5.4974  C.ar    1  <O>11      -0.0592
  14 C11       7.5644    -8.1096    -4.8774  C.ar    1  <O>11      -0.0350
  15 C12       6.5575    -7.2406    -4.4401  C.ar    1  <O>11       0.1092
  16 S1        7.0065    -5.7283    -3.6601  S.O2    1  <O>11       0.0725
  17 O3        8.6522    -5.5241    -3.7547  O.2     1  <O>11      -0.1500
  18 O4        6.5454    -5.7702    -2.0645  O.2     1  <O>11      -0.1500
  19 N2        6.2513    -4.4713    -4.4196  N.pl3   1  <O>11      -0.2127
  20 C13       6.2489    -3.1528    -3.8122  C.ar    1  <O>11       0.0893
  21 C14       7.1601    -2.8423    -2.7890  C.ar    1  <O>11      -0.0358
  22 C15       7.1491    -1.5758    -2.1946  C.ar    1  <O>11      -0.0597
  23 C16       6.2347    -0.6086    -2.6195  C.ar    1  <O>11      -0.0582
  24 C17       5.3327    -0.9153    -3.6422  C.ar    1  <O>11      -0.0183
  25 C18       5.3361    -2.1759    -4.2412  C.ar    1  <O>11       0.1391
  26 O5        4.5053    -2.4580    -5.1936  O.3     1  <O>11      -0.5049
  27 C19       5.2116    -7.5633    -4.6162  C.ar    1  <O>11      -0.0230
  28 H1        3.2880   -10.1060    -3.5870  H       1  <O>11       0.1552
  29 H2        2.1575   -10.3235    -2.3826  H       1  <O>11       0.2922
  30 H3        5.7882    -4.6206    -5.3155  H       1  <O>11       0.1738
  31 H4        4.6490    -3.3718    -5.4876  H       1  <O>11       0.2922
  32 H5        1.4850    -9.8594    -6.6957  H       1  <O>11       0.0637
  33 H6       -0.8632   -10.4144    -7.0033  H       1  <O>11       0.0618
  34 H7       -2.2269   -11.0454    -5.0915  H       1  <O>11       0.0619
  35 H8       -1.2346   -11.1169    -2.8754  H       1  <O>11       0.0655
  36 H9        5.6130   -10.5306    -6.1415  H       1  <O>11       0.0625
  37 H10       7.9497    -9.9571    -5.8225  H       1  <O>11       0.0618
  38 H11       8.5578    -7.8644    -4.7431  H       1  <O>11       0.0637
  39 H12       7.8405    -3.5516    -2.4743  H       1  <O>11       0.0638
  40 H13       7.8181    -1.3554    -1.4403  H       1  <O>11       0.0618
  41 H14       6.2254     0.3257    -2.1814  H       1  <O>11       0.0619
  42 H15       4.6570    -0.2020    -3.9578  H       1  <O>11       0.0655
  43 H16       4.4780    -6.9133    -4.2931  H       1  <O>11       0.0645
@<TRIPOS>BOND
     1     1     2    2
     2     2     3   am
     3     3     4    1
     4     4     5   ar
     5     5     6   ar
     6     6     7   ar
     7     7     8   ar
     8     8     9   ar
     9     4     9   ar
    10     9    10    1
    11     2    11    1
    12    11    12   ar
    13    12    13   ar
    14    13    14   ar
    15    14    15   ar
    16    15    16    1
    17    16    17    2
    18    16    18    2
    19    16    19    1
    20    19    20    1
    21    20    21   ar
    22    21    22   ar
    23    22    23   ar
    24    23    24   ar
    25    24    25   ar
    26    20    25   ar
    27    25    26    1
    28    15    27   ar
    29    11    27   ar
    30     3    28    1
    31    10    29    1
    32    19    30    1
    33    26    31    1
    34     5    32    1
    35     6    33    1
    36     7    34    1
    37     8    35    1
    38    12    36    1
    39    13    37    1
    40    14    38    1
    41    21    39    1
    42    22    40    1
    43    23    41    1
    44    24    42    1
    45    27    43    1
@<TRIPOS>MOLECULE
mol29_1_23
 43 45 0 0 0
SMALL
USER_CHARGES
****
VDW energy = 91.49
@<TRIPOS>ATOM
   1 O1        2.8627    -8.7918    -6.4269  O.2     1  <O>11      -0.2699
   2 C1        3.4528    -9.1250    -5.4100  C.2     1  <O>11       0.2484
   3 N1        2.7960    -9.8280    -4.4360  N.am    1  <O>11      -0.2786
   4 C2        1.4620   -10.1610    -4.6040  C.ar    1  <O>11       0.0756
   5 C3        0.4760    -9.2795    -4.1544  C.ar    1  <O>11      -0.0369
   6 C4       -0.8735    -9.6150    -4.3085  C.ar    1  <O>11      -0.0598
   7 C5       -1.2335   -10.8221    -4.9140  C.ar    1  <O>11      -0.0582
   8 C6       -0.2351   -11.6914    -5.3657  C.ar    1  <O>11      -0.0183
   9 C7        1.1138   -11.3648    -5.2171  C.ar    1  <O>11       0.1380
  10 O2        2.0380   -12.1657    -5.6413  O.3     1  <O>11      -0.5049
  11 C8        4.8560    -8.7740    -5.2340  C.ar    1  <O>11       0.0389
  12 C9        5.6106    -8.3011    -6.3206  C.ar    1  <O>11      -0.0495
  13 C10       6.9614    -7.9770    -6.1537  C.ar    1  <O>11      -0.0592
  14 C11       7.5691    -8.1155    -4.9029  C.ar    1  <O>11      -0.0350
  15 C12       6.8149    -8.5807    -3.8190  C.ar    1  <O>11       0.1092
  16 S1        7.5857    -8.7529    -2.2463  S.O2    1  <O>11       0.0725
  17 O3        9.1209    -8.1216    -2.3105  O.2     1  <O>11      -0.1500
  18 O4        7.6663   -10.3625    -1.8426  O.2     1  <O>11      -0.1500
  19 N2        6.7043    -7.9425    -1.1090  N.pl3   1  <O>11      -0.2127
  20 C13       5.3218    -8.3116    -0.8643  C.ar    1  <O>11       0.0893
  21 C14       4.8299    -9.5505    -1.3078  C.ar    1  <O>11      -0.0358
  22 C15       3.4941    -9.9007    -1.0833  C.ar    1  <O>11      -0.0597
  23 C16       2.6413    -9.0220    -0.4105  C.ar    1  <O>11      -0.0582
  24 C17       3.1325    -7.7923     0.0368  C.ar    1  <O>11      -0.0183
  25 C18       4.4635    -7.4341    -0.1824  C.ar    1  <O>11       0.1391
  26 O5        4.9207    -6.2979     0.2382  O.3     1  <O>11      -0.5049
  27 C19       5.4674    -8.9069    -3.9760  C.ar    1  <O>11      -0.0230
  28 H1        3.2880   -10.1060    -3.5870  H       1  <O>11       0.1552
  29 H2        2.9085   -11.7816    -5.4560  H       1  <O>11       0.2922
  30 H3        7.1312    -7.1843    -0.5777  H       1  <O>11       0.1738
  31 H4        5.8579    -6.2181    -0.0014  H       1  <O>11       0.2922
  32 H5        0.7414    -8.3861    -3.7113  H       1  <O>11       0.0637
  33 H6       -1.6055    -8.9691    -3.9738  H       1  <O>11       0.0618
  34 H7       -2.2288   -11.0702    -5.0272  H       1  <O>11       0.0619
  35 H8       -0.4985   -12.5832    -5.8132  H       1  <O>11       0.0655
  36 H9        5.1666    -8.1924    -7.2458  H       1  <O>11       0.0625
  37 H10       7.5110    -7.6345    -6.9572  H       1  <O>11       0.0618
  38 H11       8.5654    -7.8768    -4.7792  H       1  <O>11       0.0637
  39 H12       5.4567   -10.2052    -1.8014  H       1  <O>11       0.0638
  40 H13       3.1378   -10.8105    -1.4156  H       1  <O>11       0.0618
  41 H14       1.6557    -9.2792    -0.2449  H       1  <O>11       0.0619
  42 H15       2.5043    -7.1422     0.5345  H       1  <O>11       0.0655
  43 H16       4.9204    -9.2454    -3.1691  H       1  <O>11       0.0645
@<TRIPOS>BOND
     1     1     2    2
     2     2     3   am
     3     3     4    1
     4     4     5   ar
     5     5     6   ar
     6     6     7   ar
     7     7     8   ar
     8     8     9   ar
     9     4     9   ar
    10     9    10    1
    11     2    11    1
    12    11    12   ar
    13    12    13   ar
    14    13    14   ar
    15    14    15   ar
    16    15    16    1
    17    16    17    2
    18    16    18    2
    19    16    19    1
    20    19    20    1
    21    20    21   ar
    22    21    22   ar
    23    22    23   ar
    24    23    24   ar
    25    24    25   ar
    26    20    25   ar
    27    25    26    1
    28    15    27   ar
    29    11    27   ar
    30     3    28    1
    31    10    29    1
    32    19    30    1
    33    26    31    1
    34     5    32    1
    35     6    33    1
    36     7    34    1
    37     8    35    1
    38    12    36    1
    39    13    37    1
    40    14    38    1
    41    21    39    1
    42    22    40    1
    43    23    41    1
    44    24    42    1
    45    27    43    1
@<TRIPOS>MOLECULE
mol29_1_24
 43 45 0 0 0
SMALL
USER_CHARGES
****
VDW energy = 91.51
@<TRIPOS>ATOM
   1 O1        2.8627    -8.7918    -6.4269  O.2     1  <O>11      -0.2699
   2 C1        3.4528    -9.1250    -5.4100  C.2     1  <O>11       0.2484
   3 N1        2.7960    -9.8280    -4.4360  N.am    1  <O>11      -0.2786
   4 C2        1.4620   -10.1610    -4.6040  C.ar    1  <O>11       0.0756
   5 C3        0.9044   -10.1232    -5.8843  C.ar    1  <O>11      -0.0369
   6 C4       -0.4457   -10.4452    -6.0600  C.ar    1  <O>11      -0.0598
   7 C5       -1.2308   -10.8085    -4.9623  C.ar    1  <O>11      -0.0582
   8 C6       -0.6568   -10.8488    -3.6874  C.ar    1  <O>11      -0.0183
   9 C7        0.6895   -10.5301    -3.5025  C.ar    1  <O>11       0.1380
  10 O2        1.2229   -10.5741    -2.3239  O.3     1  <O>11      -0.5049
  11 C8        4.8560    -8.7740    -5.2340  C.ar    1  <O>11       0.0389
  12 C9        5.3320    -8.3621    -3.9781  C.ar    1  <O>11      -0.0495
  13 C10       6.6767    -8.0124    -3.8132  C.ar    1  <O>11      -0.0592
  14 C11       7.5583    -8.0761    -4.8956  C.ar    1  <O>11      -0.0350
  15 C12       7.0847    -8.4928    -6.1454  C.ar    1  <O>11       0.1092
  16 S1        8.1998    -8.5710    -7.5047  S.O2    1  <O>11       0.0725
  17 O3        9.7458    -8.2839    -6.9693  O.2     1  <O>11      -0.1500
  18 O4        7.7822    -7.4223    -8.6300  O.2     1  <O>11      -0.1500
  19 N2        8.1251   -10.0702    -8.1930  N.pl3   1  <O>11      -0.2127
  20 C13       6.8710   -10.5557    -8.7398  C.ar    1  <O>11       0.0893
  21 C14       6.2220   -11.6562    -8.1557  C.ar    1  <O>11      -0.0358
  22 C15       5.0200   -12.1322    -8.6906  C.ar    1  <O>11      -0.0597
  23 C16       4.4536   -11.5115    -9.8069  C.ar    1  <O>11      -0.0582
  24 C17       5.0958   -10.4122   -10.3839  C.ar    1  <O>11      -0.0183
  25 C18       6.2952    -9.9303    -9.8574  C.ar    1  <O>11       0.1391
  26 O5        6.8867    -8.9075   -10.3874  O.3     1  <O>11      -0.5049
  27 C19       5.7453    -8.8429    -6.3195  C.ar    1  <O>11      -0.0230
  28 H1        3.2880   -10.1060    -3.5870  H       1  <O>11       0.1552
  29 H2        2.1575   -10.3235    -2.3826  H       1  <O>11       0.2922
  30 H3        8.9596   -10.6542    -8.2355  H       1  <O>11       0.1738
  31 H4        7.7010    -8.7147    -9.8959  H       1  <O>11       0.2922
  32 H5        1.4850    -9.8594    -6.6957  H       1  <O>11       0.0637
  33 H6       -0.8632   -10.4144    -7.0033  H       1  <O>11       0.0618
  34 H7       -2.2269   -11.0454    -5.0915  H       1  <O>11       0.0619
  35 H8       -1.2346   -11.1169    -2.8754  H       1  <O>11       0.0655
  36 H9        4.6871    -8.3172    -3.1736  H       1  <O>11       0.0625
  37 H10       7.0187    -7.7063    -2.8889  H       1  <O>11       0.0618
  38 H11       8.5502    -7.8181    -4.7746  H       1  <O>11       0.0637
  39 H12       6.6337   -12.1157    -7.3283  H       1  <O>11       0.0638
  40 H13       4.5505   -12.9439    -8.2595  H       1  <O>11       0.0618
  41 H14       3.5674   -11.8621   -10.2025  H       1  <O>11       0.0619
  42 H15       4.6787    -9.9521   -11.2081  H       1  <O>11       0.0655
  43 H16       5.4082    -9.1522    -7.2446  H       1  <O>11       0.0645
@<TRIPOS>BOND
     1     1     2    2
     2     2     3   am
     3     3     4    1
     4     4     5   ar
     5     5     6   ar
     6     6     7   ar
     7     7     8   ar
     8     8     9   ar
     9     4     9   ar
    10     9    10    1
    11     2    11    1
    12    11    12   ar
    13    12    13   ar
    14    13    14   ar
    15    14    15   ar
    16    15    16    1
    17    16    17    2
    18    16    18    2
    19    16    19    1
    20    19    20    1
    21    20    21   ar
    22    21    22   ar
    23    22    23   ar
    24    23    24   ar
    25    24    25   ar
    26    20    25   ar
    27    25    26    1
    28    15    27   ar
    29    11    27   ar
    30     3    28    1
    31    10    29    1
    32    19    30    1
    33    26    31    1
    34     5    32    1
    35     6    33    1
    36     7    34    1
    37     8    35    1
    38    12    36    1
    39    13    37    1
    40    14    38    1
    41    21    39    1
    42    22    40    1
    43    23    41    1
    44    24    42    1
    45    27    43    1
@<TRIPOS>MOLECULE
mol29_1_25
 43 45 0 0 0
SMALL
USER_CHARGES
****
VDW energy = 91.92
@<TRIPOS>ATOM
   1 O1        2.8627    -8.7918    -6.4269  O.2     1  <O>11      -0.2699
   2 C1        3.4528    -9.1250    -5.4100  C.2     1  <O>11       0.2484
   3 N1        2.7960    -9.8280    -4.4360  N.am    1  <O>11      -0.2786
   4 C2        1.4620   -10.1610    -4.6040  C.ar    1  <O>11       0.0756
   5 C3        0.9044   -10.1232    -5.8843  C.ar    1  <O>11      -0.0369
   6 C4       -0.4457   -10.4452    -6.0600  C.ar    1  <O>11      -0.0598
   7 C5       -1.2308   -10.8085    -4.9623  C.ar    1  <O>11      -0.0582
   8 C6       -0.6568   -10.8488    -3.6874  C.ar    1  <O>11      -0.0183
   9 C7        0.6895   -10.5301    -3.5025  C.ar    1  <O>11       0.1380
  10 O2        1.2229   -10.5741    -2.3239  O.3     1  <O>11      -0.5049
  11 C8        4.8560    -8.7740    -5.2340  C.ar    1  <O>11       0.0389
  12 C9        5.8658    -9.6435    -5.6788  C.ar    1  <O>11      -0.0495
  13 C10       7.2130    -9.3117    -5.4974  C.ar    1  <O>11      -0.0592
  14 C11       7.5644    -8.1096    -4.8774  C.ar    1  <O>11      -0.0350
  15 C12       6.5575    -7.2406    -4.4401  C.ar    1  <O>11       0.1092
  16 S1        7.0065    -5.7283    -3.6601  S.O2    1  <O>11       0.0725
  17 O3        7.8944    -6.0524    -2.2942  O.2     1  <O>11      -0.1500
  18 O4        5.6331    -4.8925    -3.2413  O.2     1  <O>11      -0.1500
  19 N2        7.9098    -4.8186    -4.7010  N.pl3   1  <O>11      -0.2127
  20 C13       8.1839    -3.4258    -4.3966  C.ar    1  <O>11       0.0893
  21 C14       8.0059    -2.9374    -3.0915  C.ar    1  <O>11      -0.0358
  22 C15       8.2576    -1.5921    -2.8010  C.ar    1  <O>11      -0.0597
  23 C16       8.6939    -0.7262    -3.8069  C.ar    1  <O>11      -0.0582
  24 C17       8.8777    -1.2138    -5.1039  C.ar    1  <O>11      -0.0183
  25 C18       8.6292    -2.5541    -5.4033  C.ar    1  <O>11       0.1391
  26 O5        8.8062    -3.0077    -6.6032  O.3     1  <O>11      -0.5049
  27 C19       5.2116    -7.5633    -4.6162  C.ar    1  <O>11      -0.0230
  28 H1        3.2880   -10.1060    -3.5870  H       1  <O>11       0.1552
  29 H2        2.1575   -10.3235    -2.3826  H       1  <O>11       0.2922
  30 H3        8.2764    -5.2350    -5.5563  H       1  <O>11       0.1738
  31 H4        8.5858    -3.9526    -6.6272  H       1  <O>11       0.2922
  32 H5        1.4850    -9.8594    -6.6957  H       1  <O>11       0.0637
  33 H6       -0.8632   -10.4144    -7.0033  H       1  <O>11       0.0618
  34 H7       -2.2269   -11.0454    -5.0915  H       1  <O>11       0.0619
  35 H8       -1.2346   -11.1169    -2.8754  H       1  <O>11       0.0655
  36 H9        5.6130   -10.5306    -6.1415  H       1  <O>11       0.0625
  37 H10       7.9497    -9.9571    -5.8225  H       1  <O>11       0.0618
  38 H11       8.5578    -7.8644    -4.7431  H       1  <O>11       0.0637
  39 H12       7.6879    -3.5737    -2.3437  H       1  <O>11       0.0638
  40 H13       8.1205    -1.2385    -1.8412  H       1  <O>11       0.0618
  41 H14       8.8793     0.2664    -3.5938  H       1  <O>11       0.0619
  42 H15       9.2005    -0.5758    -5.8481  H       1  <O>11       0.0655
  43 H16       4.4780    -6.9133    -4.2931  H       1  <O>11       0.0645
@<TRIPOS>BOND
     1     1     2    2
     2     2     3   am
     3     3     4    1
     4     4     5   ar
     5     5     6   ar
     6     6     7   ar
     7     7     8   ar
     8     8     9   ar
     9     4     9   ar
    10     9    10    1
    11     2    11    1
    12    11    12   ar
    13    12    13   ar
    14    13    14   ar
    15    14    15   ar
    16    15    16    1
    17    16    17    2
    18    16    18    2
    19    16    19    1
    20    19    20    1
    21    20    21   ar
    22    21    22   ar
    23    22    23   ar
    24    23    24   ar
    25    24    25   ar
    26    20    25   ar
    27    25    26    1
    28    15    27   ar
    29    11    27   ar
    30     3    28    1
    31    10    29    1
    32    19    30    1
    33    26    31    1
    34     5    32    1
    35     6    33    1
    36     7    34    1
    37     8    35    1
    38    12    36    1
    39    13    37    1
    40    14    38    1
    41    21    39    1
    42    22    40    1
    43    23    41    1
    44    24    42    1
    45    27    43    1
@<TRIPOS>MOLECULE
mol29_1_26
 43 45 0 0 0
SMALL
USER_CHARGES
****
VDW energy = 93.12
@<TRIPOS>ATOM
   1 O1        2.8627    -8.7918    -6.4269  O.2     1  <O>11      -0.2699
   2 C1        3.4528    -9.1250    -5.4100  C.2     1  <O>11       0.2484
   3 N1        2.7960    -9.8280    -4.4360  N.am    1  <O>11      -0.2786
   4 C2        1.4620   -10.1610    -4.6040  C.ar    1  <O>11       0.0756
   5 C3        0.9044   -10.1232    -5.8843  C.ar    1  <O>11      -0.0369
   6 C4       -0.4457   -10.4452    -6.0600  C.ar    1  <O>11      -0.0598
   7 C5       -1.2308   -10.8085    -4.9623  C.ar    1  <O>11      -0.0582
   8 C6       -0.6568   -10.8488    -3.6874  C.ar    1  <O>11      -0.0183
   9 C7        0.6895   -10.5301    -3.5025  C.ar    1  <O>11       0.1380
  10 O2        1.2229   -10.5741    -2.3239  O.3     1  <O>11      -0.5049
  11 C8        4.8560    -8.7740    -5.2340  C.ar    1  <O>11       0.0389
  12 C9        5.8658    -9.6435    -5.6788  C.ar    1  <O>11      -0.0495
  13 C10       7.2130    -9.3117    -5.4974  C.ar    1  <O>11      -0.0592
  14 C11       7.5644    -8.1096    -4.8774  C.ar    1  <O>11      -0.0350
  15 C12       6.5575    -7.2406    -4.4401  C.ar    1  <O>11       0.1092
  16 S1        7.0065    -5.7283    -3.6601  S.O2    1  <O>11       0.0725
  17 O3        8.6522    -5.5241    -3.7547  O.2     1  <O>11      -0.1500
  18 O4        6.5454    -5.7702    -2.0645  O.2     1  <O>11      -0.1500
  19 N2        6.2513    -4.4713    -4.4196  N.pl3   1  <O>11      -0.2127
  20 C13       6.4940    -4.2244    -5.8294  C.ar    1  <O>11       0.0893
  21 C14       7.0665    -5.2226    -6.6354  C.ar    1  <O>11      -0.0358
  22 C15       7.3124    -4.9801    -7.9912  C.ar    1  <O>11      -0.0597
  23 C16       6.9841    -3.7442    -8.5543  C.ar    1  <O>11      -0.0582
  24 C17       6.4081    -2.7536    -7.7540  C.ar    1  <O>11      -0.0183
  25 C18       6.1591    -2.9862    -6.4006  C.ar    1  <O>11       0.1391
  26 O5        5.6189    -2.0711    -5.6605  O.3     1  <O>11      -0.5049
  27 C19       5.2116    -7.5633    -4.6162  C.ar    1  <O>11      -0.0230
  28 H1        3.2880   -10.1060    -3.5870  H       1  <O>11       0.1552
  29 H2        2.1575   -10.3235    -2.3826  H       1  <O>11       0.2922
  30 H3        5.6136    -3.8698    -3.8992  H       1  <O>11       0.1738
  31 H4        5.5217    -2.4042    -4.7541  H       1  <O>11       0.2922
  32 H5        1.4850    -9.8594    -6.6957  H       1  <O>11       0.0637
  33 H6       -0.8632   -10.4144    -7.0033  H       1  <O>11       0.0618
  34 H7       -2.2269   -11.0454    -5.0915  H       1  <O>11       0.0619
  35 H8       -1.2346   -11.1169    -2.8754  H       1  <O>11       0.0655
  36 H9        5.6130   -10.5306    -6.1415  H       1  <O>11       0.0625
  37 H10       7.9497    -9.9571    -5.8225  H       1  <O>11       0.0618
  38 H11       8.5578    -7.8644    -4.7431  H       1  <O>11       0.0637
  39 H12       7.3069    -6.1387    -6.2255  H       1  <O>11       0.0638
  40 H13       7.7374    -5.7159    -8.5768  H       1  <O>11       0.0618
  41 H14       7.1656    -3.5642    -9.5541  H       1  <O>11       0.0619
  42 H15       6.1644    -1.8404    -8.1683  H       1  <O>11       0.0655
  43 H16       4.4780    -6.9133    -4.2931  H       1  <O>11       0.0645
@<TRIPOS>BOND
     1     1     2    2
     2     2     3   am
     3     3     4    1
     4     4     5   ar
     5     5     6   ar
     6     6     7   ar
     7     7     8   ar
     8     8     9   ar
     9     4     9   ar
    10     9    10    1
    11     2    11    1
    12    11    12   ar
    13    12    13   ar
    14    13    14   ar
    15    14    15   ar
    16    15    16    1
    17    16    17    2
    18    16    18    2
    19    16    19    1
    20    19    20    1
    21    20    21   ar
    22    21    22   ar
    23    22    23   ar
    24    23    24   ar
    25    24    25   ar
    26    20    25   ar
    27    25    26    1
    28    15    27   ar
    29    11    27   ar
    30     3    28    1
    31    10    29    1
    32    19    30    1
    33    26    31    1
    34     5    32    1
    35     6    33    1
    36     7    34    1
    37     8    35    1
    38    12    36    1
    39    13    37    1
    40    14    38    1
    41    21    39    1
    42    22    40    1
    43    23    41    1
    44    24    42    1
    45    27    43    1
@<TRIPOS>MOLECULE
mol29_1_27
 43 45 0 0 0
SMALL
USER_CHARGES
****
VDW energy = 93.47
@<TRIPOS>ATOM
   1 O1        2.8627    -8.7918    -6.4269  O.2     1  <O>11      -0.2699
   2 C1        3.4528    -9.1250    -5.4100  C.2     1  <O>11       0.2484
   3 N1        2.7960    -9.8280    -4.4360  N.am    1  <O>11      -0.2786
   4 C2        1.4620   -10.1610    -4.6040  C.ar    1  <O>11       0.0756
   5 C3        0.9044   -10.1232    -5.8843  C.ar    1  <O>11      -0.0369
   6 C4       -0.4457   -10.4452    -6.0600  C.ar    1  <O>11      -0.0598
   7 C5       -1.2308   -10.8085    -4.9623  C.ar    1  <O>11      -0.0582
   8 C6       -0.6568   -10.8488    -3.6874  C.ar    1  <O>11      -0.0183
   9 C7        0.6895   -10.5301    -3.5025  C.ar    1  <O>11       0.1380
  10 O2        1.2229   -10.5741    -2.3239  O.3     1  <O>11      -0.5049
  11 C8        4.8560    -8.7740    -5.2340  C.ar    1  <O>11       0.0389
  12 C9        5.8658    -9.6435    -5.6788  C.ar    1  <O>11      -0.0495
  13 C10       7.2130    -9.3117    -5.4974  C.ar    1  <O>11      -0.0592
  14 C11       7.5644    -8.1096    -4.8774  C.ar    1  <O>11      -0.0350
  15 C12       6.5575    -7.2406    -4.4401  C.ar    1  <O>11       0.1092
  16 S1        7.0065    -5.7283    -3.6601  S.O2    1  <O>11       0.0725
  17 O3        7.9152    -4.8139    -4.7076  O.2     1  <O>11      -0.1500
  18 O4        7.8959    -6.0523    -2.2948  O.2     1  <O>11      -0.1500
  19 N2        5.6418    -4.8963    -3.2448  N.pl3   1  <O>11      -0.2127
  20 C13       4.6801    -5.4891    -2.3331  C.ar    1  <O>11       0.0893
  21 C14       5.0455    -6.5825    -1.5302  C.ar    1  <O>11      -0.0358
  22 C15       4.1149    -7.1621    -0.6611  C.ar    1  <O>11      -0.0597
  23 C16       2.8163    -6.6527    -0.5816  C.ar    1  <O>11      -0.0582
  24 C17       2.4547    -5.5606    -1.3753  C.ar    1  <O>11      -0.0183
  25 C18       3.3762    -4.9757    -2.2453  C.ar    1  <O>11       0.1391
  26 O5        3.0436    -3.9593    -2.9756  O.3     1  <O>11      -0.5049
  27 C19       5.2116    -7.5633    -4.6162  C.ar    1  <O>11      -0.0230
  28 H1        3.2880   -10.1060    -3.5870  H       1  <O>11       0.1552
  29 H2        2.1575   -10.3235    -2.3826  H       1  <O>11       0.2922
  30 H3        5.4753    -3.9660    -3.6270  H       1  <O>11       0.1738
  31 H4        3.8029    -3.6870    -3.5152  H       1  <O>11       0.2922
  32 H5        1.4850    -9.8594    -6.6957  H       1  <O>11       0.0637
  33 H6       -0.8632   -10.4144    -7.0033  H       1  <O>11       0.0618
  34 H7       -2.2269   -11.0454    -5.0915  H       1  <O>11       0.0619
  35 H8       -1.2346   -11.1169    -2.8754  H       1  <O>11       0.0655
  36 H9        5.6130   -10.5306    -6.1415  H       1  <O>11       0.0625
  37 H10       7.9497    -9.9571    -5.8225  H       1  <O>11       0.0618
  38 H11       8.5578    -7.8644    -4.7431  H       1  <O>11       0.0637
  39 H12       6.0047    -6.9599    -1.5818  H       1  <O>11       0.0638
  40 H13       4.3883    -7.9680    -0.0773  H       1  <O>11       0.0618
  41 H14       2.1289    -7.0799     0.0588  H       1  <O>11       0.0619
  42 H15       1.4962    -5.1826    -1.3175  H       1  <O>11       0.0655
  43 H16       4.4780    -6.9133    -4.2931  H       1  <O>11       0.0645
@<TRIPOS>BOND
     1     1     2    2
     2     2     3   am
     3     3     4    1
     4     4     5   ar
     5     5     6   ar
     6     6     7   ar
     7     7     8   ar
     8     8     9   ar
     9     4     9   ar
    10     9    10    1
    11     2    11    1
    12    11    12   ar
    13    12    13   ar
    14    13    14   ar
    15    14    15   ar
    16    15    16    1
    17    16    17    2
    18    16    18    2
    19    16    19    1
    20    19    20    1
    21    20    21   ar
    22    21    22   ar
    23    22    23   ar
    24    23    24   ar
    25    24    25   ar
    26    20    25   ar
    27    25    26    1
    28    15    27   ar
    29    11    27   ar
    30     3    28    1
    31    10    29    1
    32    19    30    1
    33    26    31    1
    34     5    32    1
    35     6    33    1
    36     7    34    1
    37     8    35    1
    38    12    36    1
    39    13    37    1
    40    14    38    1
    41    21    39    1
    42    22    40    1
    43    23    41    1
    44    24    42    1
    45    27    43    1
@<TRIPOS>MOLECULE
mol29_1_28
 43 45 0 0 0
SMALL
USER_CHARGES
****
VDW energy = 94.64
@<TRIPOS>ATOM
   1 O1        2.8627    -8.7918    -6.4269  O.2     1  <O>11      -0.2699
   2 C1        3.4528    -9.1250    -5.4100  C.2     1  <O>11       0.2484
   3 N1        2.7960    -9.8280    -4.4360  N.am    1  <O>11      -0.2786
   4 C2        1.4620   -10.1610    -4.6040  C.ar    1  <O>11       0.0756
   5 C3        0.9044   -10.1232    -5.8843  C.ar    1  <O>11      -0.0369
   6 C4       -0.4457   -10.4452    -6.0600  C.ar    1  <O>11      -0.0598
   7 C5       -1.2308   -10.8085    -4.9623  C.ar    1  <O>11      -0.0582
   8 C6       -0.6568   -10.8488    -3.6874  C.ar    1  <O>11      -0.0183
   9 C7        0.6895   -10.5301    -3.5025  C.ar    1  <O>11       0.1380
  10 O2        1.2229   -10.5741    -2.3239  O.3     1  <O>11      -0.5049
  11 C8        4.8560    -8.7740    -5.2340  C.ar    1  <O>11       0.0389
  12 C9        5.8658    -9.6435    -5.6788  C.ar    1  <O>11      -0.0495
  13 C10       7.2130    -9.3117    -5.4974  C.ar    1  <O>11      -0.0592
  14 C11       7.5644    -8.1096    -4.8774  C.ar    1  <O>11      -0.0350
  15 C12       6.5575    -7.2406    -4.4401  C.ar    1  <O>11       0.1092
  16 S1        7.0065    -5.7283    -3.6601  S.O2    1  <O>11       0.0725
  17 O3        5.8422    -4.5828    -3.9625  O.2     1  <O>11      -0.1500
  18 O4        8.4646    -5.2067    -4.2618  O.2     1  <O>11      -0.1500
  19 N2        7.1352    -5.9656    -2.0310  N.pl3   1  <O>11      -0.2127
  20 C13       7.7429    -4.9459    -1.1952  C.ar    1  <O>11       0.0893
  21 C14       7.8981    -3.6352    -1.6764  C.ar    1  <O>11      -0.0358
  22 C15       8.4956    -2.6557    -0.8757  C.ar    1  <O>11      -0.0597
  23 C16       8.9367    -2.9737     0.4113  C.ar    1  <O>11      -0.0582
  24 C17       8.7761    -4.2761     0.8925  C.ar    1  <O>11      -0.0183
  25 C18       8.1813    -5.2600     0.1012  C.ar    1  <O>11       0.1391
  26 O5        8.0259    -6.4649     0.5494  O.3     1  <O>11      -0.5049
  27 C19       5.2116    -7.5633    -4.6162  C.ar    1  <O>11      -0.0230
  28 H1        3.2880   -10.1060    -3.5870  H       1  <O>11       0.1552
  29 H2        2.1575   -10.3235    -2.3826  H       1  <O>11       0.2922
  30 H3        6.7867    -6.8271    -1.6118  H       1  <O>11       0.1738
  31 H4        7.5993    -7.0102    -0.1308  H       1  <O>11       0.2922
  32 H5        1.4850    -9.8594    -6.6957  H       1  <O>11       0.0637
  33 H6       -0.8632   -10.4144    -7.0033  H       1  <O>11       0.0618
  34 H7       -2.2269   -11.0454    -5.0915  H       1  <O>11       0.0619
  35 H8       -1.2346   -11.1169    -2.8754  H       1  <O>11       0.0655
  36 H9        5.6130   -10.5306    -6.1415  H       1  <O>11       0.0625
  37 H10       7.9497    -9.9571    -5.8225  H       1  <O>11       0.0618
  38 H11       8.5578    -7.8644    -4.7431  H       1  <O>11       0.0637
  39 H12       7.5700    -3.3938    -2.6246  H       1  <O>11       0.0638
  40 H13       8.6107    -1.6957    -1.2367  H       1  <O>11       0.0618
  41 H14       9.3781    -2.2521     1.0024  H       1  <O>11       0.0619
  42 H15       9.1008    -4.5128     1.8430  H       1  <O>11       0.0655
  43 H16       4.4780    -6.9133    -4.2931  H       1  <O>11       0.0645
@<TRIPOS>BOND
     1     1     2    2
     2     2     3   am
     3     3     4    1
     4     4     5   ar
     5     5     6   ar
     6     6     7   ar
     7     7     8   ar
     8     8     9   ar
     9     4     9   ar
    10     9    10    1
    11     2    11    1
    12    11    12   ar
    13    12    13   ar
    14    13    14   ar
    15    14    15   ar
    16    15    16    1
    17    16    17    2
    18    16    18    2
    19    16    19    1
    20    19    20    1
    21    20    21   ar
    22    21    22   ar
    23    22    23   ar
    24    23    24   ar
    25    24    25   ar
    26    20    25   ar
    27    25    26    1
    28    15    27   ar
    29    11    27   ar
    30     3    28    1
    31    10    29    1
    32    19    30    1
    33    26    31    1
    34     5    32    1
    35     6    33    1
    36     7    34    1
    37     8    35    1
    38    12    36    1
    39    13    37    1
    40    14    38    1
    41    21    39    1
    42    22    40    1
    43    23    41    1
    44    24    42    1
    45    27    43    1
@<TRIPOS>MOLECULE
mol29_1_29
 43 45 0 0 0
SMALL
USER_CHARGES
****
VDW energy = 96.96
@<TRIPOS>ATOM
   1 O1        2.8627    -8.7918    -6.4269  O.2     1  <O>11      -0.2699
   2 C1        3.4528    -9.1250    -5.4100  C.2     1  <O>11       0.2484
   3 N1        2.7960    -9.8280    -4.4360  N.am    1  <O>11      -0.2786
   4 C2        1.4620   -10.1610    -4.6040  C.ar    1  <O>11       0.0756
   5 C3        0.9044   -10.1232    -5.8843  C.ar    1  <O>11      -0.0369
   6 C4       -0.4457   -10.4452    -6.0600  C.ar    1  <O>11      -0.0598
   7 C5       -1.2308   -10.8085    -4.9623  C.ar    1  <O>11      -0.0582
   8 C6       -0.6568   -10.8488    -3.6874  C.ar    1  <O>11      -0.0183
   9 C7        0.6895   -10.5301    -3.5025  C.ar    1  <O>11       0.1380
  10 O2        1.2229   -10.5741    -2.3239  O.3     1  <O>11      -0.5049
  11 C8        4.8560    -8.7740    -5.2340  C.ar    1  <O>11       0.0389
  12 C9        5.6106    -8.3011    -6.3206  C.ar    1  <O>11      -0.0495
  13 C10       6.9614    -7.9770    -6.1537  C.ar    1  <O>11      -0.0592
  14 C11       7.5691    -8.1155    -4.9029  C.ar    1  <O>11      -0.0350
  15 C12       6.8149    -8.5807    -3.8190  C.ar    1  <O>11       0.1092
  16 S1        7.5857    -8.7529    -2.2463  S.O2    1  <O>11       0.0725
  17 O3        8.8473    -9.8272    -2.3631  O.2     1  <O>11      -0.1500
  18 O4        6.4775    -9.3192    -1.1457  O.2     1  <O>11      -0.1500
  19 N2        8.1566    -7.2853    -1.7490  N.pl3   1  <O>11      -0.2127
  20 C13       8.6006    -7.1063    -0.3785  C.ar    1  <O>11       0.0893
  21 C14       8.8868    -8.2225     0.4252  C.ar    1  <O>11      -0.0358
  22 C15       9.3022    -8.0503     1.7501  C.ar    1  <O>11      -0.0597
  23 C16       9.4410    -6.7654     2.2811  C.ar    1  <O>11      -0.0582
  24 C17       9.1628    -5.6548     1.4794  C.ar    1  <O>11      -0.0183
  25 C18       8.7479    -5.8166     0.1567  C.ar    1  <O>11       0.1391
  26 O5        8.4970    -4.7876    -0.5885  O.3     1  <O>11      -0.5049
  27 C19       5.4674    -8.9069    -3.9760  C.ar    1  <O>11      -0.0230
  28 H1        3.2880   -10.1060    -3.5870  H       1  <O>11       0.1552
  29 H2        2.1575   -10.3235    -2.3826  H       1  <O>11       0.2922
  30 H3        8.1989    -6.5056    -2.4043  H       1  <O>11       0.1738
  31 H4        8.2226    -5.0865    -1.4702  H       1  <O>11       0.2922
  32 H5        1.4850    -9.8594    -6.6957  H       1  <O>11       0.0637
  33 H6       -0.8632   -10.4144    -7.0033  H       1  <O>11       0.0618
  34 H7       -2.2269   -11.0454    -5.0915  H       1  <O>11       0.0619
  35 H8       -1.2346   -11.1169    -2.8754  H       1  <O>11       0.0655
  36 H9        5.1666    -8.1924    -7.2458  H       1  <O>11       0.0625
  37 H10       7.5110    -7.6345    -6.9572  H       1  <O>11       0.0618
  38 H11       8.5654    -7.8768    -4.7792  H       1  <O>11       0.0637
  39 H12       8.7902    -9.1737     0.0367  H       1  <O>11       0.0638
  40 H13       9.5065    -8.8744     2.3366  H       1  <O>11       0.0618
  41 H14       9.7468    -6.6373     3.2584  H       1  <O>11       0.0619
  42 H15       9.2653    -4.7050     1.8697  H       1  <O>11       0.0655
  43 H16       4.9204    -9.2454    -3.1691  H       1  <O>11       0.0645
@<TRIPOS>BOND
     1     1     2    2
     2     2     3   am
     3     3     4    1
     4     4     5   ar
     5     5     6   ar
     6     6     7   ar
     7     7     8   ar
     8     8     9   ar
     9     4     9   ar
    10     9    10    1
    11     2    11    1
    12    11    12   ar
    13    12    13   ar
    14    13    14   ar
    15    14    15   ar
    16    15    16    1
    17    16    17    2
    18    16    18    2
    19    16    19    1
    20    19    20    1
    21    20    21   ar
    22    21    22   ar
    23    22    23   ar
    24    23    24   ar
    25    24    25   ar
    26    20    25   ar
    27    25    26    1
    28    15    27   ar
    29    11    27   ar
    30     3    28    1
    31    10    29    1
    32    19    30    1
    33    26    31    1
    34     5    32    1
    35     6    33    1
    36     7    34    1
    37     8    35    1
    38    12    36    1
    39    13    37    1
    40    14    38    1
    41    21    39    1
    42    22    40    1
    43    23    41    1
    44    24    42    1
    45    27    43    1
@<TRIPOS>MOLECULE
mol29_1_30
 43 45 0 0 0
SMALL
USER_CHARGES
****
VDW energy = 98.41
@<TRIPOS>ATOM
   1 O1        2.8627    -8.7918    -6.4269  O.2     1  <O>11      -0.2699
   2 C1        3.4528    -9.1250    -5.4100  C.2     1  <O>11       0.2484
   3 N1        2.7960    -9.8280    -4.4360  N.am    1  <O>11      -0.2786
   4 C2        1.4620   -10.1610    -4.6040  C.ar    1  <O>11       0.0756
   5 C3        0.9044   -10.1232    -5.8843  C.ar    1  <O>11      -0.0369
   6 C4       -0.4457   -10.4452    -6.0600  C.ar    1  <O>11      -0.0598
   7 C5       -1.2308   -10.8085    -4.9623  C.ar    1  <O>11      -0.0582
   8 C6       -0.6568   -10.8488    -3.6874  C.ar    1  <O>11      -0.0183
   9 C7        0.6895   -10.5301    -3.5025  C.ar    1  <O>11       0.1380
  10 O2        1.2229   -10.5741    -2.3239  O.3     1  <O>11      -0.5049
  11 C8        4.8560    -8.7740    -5.2340  C.ar    1  <O>11       0.0389
  12 C9        5.8658    -9.6435    -5.6788  C.ar    1  <O>11      -0.0495
  13 C10       7.2130    -9.3117    -5.4974  C.ar    1  <O>11      -0.0592
  14 C11       7.5644    -8.1096    -4.8774  C.ar    1  <O>11      -0.0350
  15 C12       6.5575    -7.2406    -4.4401  C.ar    1  <O>11       0.1092
  16 S1        7.0065    -5.7283    -3.6601  S.O2    1  <O>11       0.0725
  17 O3        5.8422    -4.5828    -3.9625  O.2     1  <O>11      -0.1500
  18 O4        8.4646    -5.2067    -4.2618  O.2     1  <O>11      -0.1500
  19 N2        7.1352    -5.9656    -2.0310  N.pl3   1  <O>11      -0.2127
  20 C13       8.0919    -6.9258    -1.5112  C.ar    1  <O>11       0.0893
  21 C14       9.1413    -7.3902    -2.3216  C.ar    1  <O>11      -0.0358
  22 C15      10.0558    -8.3254    -1.8249  C.ar    1  <O>11      -0.0597
  23 C16       9.9345    -8.7995    -0.5162  C.ar    1  <O>11      -0.0582
  24 C17       8.8945    -8.3322     0.2923  C.ar    1  <O>11      -0.0183
  25 C18       7.9775    -7.3994    -0.1943  C.ar    1  <O>11       0.1391
  26 O5        7.0181    -6.9609     0.5568  O.3     1  <O>11      -0.5049
  27 C19       5.2116    -7.5633    -4.6162  C.ar    1  <O>11      -0.0230
  28 H1        3.2880   -10.1060    -3.5870  H       1  <O>11       0.1552
  29 H2        2.1575   -10.3235    -2.3826  H       1  <O>11       0.2922
  30 H3        6.5443    -5.4370    -1.3901  H       1  <O>11       0.1738
  31 H4        6.4817    -6.3246     0.0574  H       1  <O>11       0.2922
  32 H5        1.4850    -9.8594    -6.6957  H       1  <O>11       0.0637
  33 H6       -0.8632   -10.4144    -7.0033  H       1  <O>11       0.0618
  34 H7       -2.2269   -11.0454    -5.0915  H       1  <O>11       0.0619
  35 H8       -1.2346   -11.1169    -2.8754  H       1  <O>11       0.0655
  36 H9        5.6130   -10.5306    -6.1415  H       1  <O>11       0.0625
  37 H10       7.9497    -9.9571    -5.8225  H       1  <O>11       0.0618
  38 H11       8.5578    -7.8644    -4.7431  H       1  <O>11       0.0637
  39 H12       9.2381    -7.0401    -3.2876  H       1  <O>11       0.0638
  40 H13      10.8218    -8.6660    -2.4268  H       1  <O>11       0.0618
  41 H14      10.6081    -9.4897    -0.1490  H       1  <O>11       0.0619
  42 H15       8.8036    -8.6807     1.2594  H       1  <O>11       0.0655
  43 H16       4.4780    -6.9133    -4.2931  H       1  <O>11       0.0645
@<TRIPOS>BOND
     1     1     2    2
     2     2     3   am
     3     3     4    1
     4     4     5   ar
     5     5     6   ar
     6     6     7   ar
     7     7     8   ar
     8     8     9   ar
     9     4     9   ar
    10     9    10    1
    11     2    11    1
    12    11    12   ar
    13    12    13   ar
    14    13    14   ar
    15    14    15   ar
    16    15    16    1
    17    16    17    2
    18    16    18    2
    19    16    19    1
    20    19    20    1
    21    20    21   ar
    22    21    22   ar
    23    22    23   ar
    24    23    24   ar
    25    24    25   ar
    26    20    25   ar
    27    25    26    1
    28    15    27   ar
    29    11    27   ar
    30     3    28    1
    31    10    29    1
    32    19    30    1
    33    26    31    1
    34     5    32    1
    35     6    33    1
    36     7    34    1
    37     8    35    1
    38    12    36    1
    39    13    37    1
    40    14    38    1
    41    21    39    1
    42    22    40    1
    43    23    41    1
    44    24    42    1
    45    27    43    1
@<TRIPOS>MOLECULE
mol29_2_1
 43 45 0 0 0
SMALL
USER_CHARGES
****
VDW energy = 53.16
@<TRIPOS>ATOM
   1 O1        3.4420    -9.1855    -5.2979  O.2     1  <O>11      -0.2699
   2 C1        2.8552    -9.8129    -4.4288  C.2     1  <O>11       0.2484
   3 N1        3.5160   -10.1860    -3.2900  N.am    1  <O>11      -0.2786
   4 C2        4.8600    -9.8500    -3.1210  C.ar    1  <O>11       0.0756
   5 C3        5.8705   -10.7194    -3.5661  C.ar    1  <O>11      -0.0369
   6 C4        7.2173   -10.3872    -3.3866  C.ar    1  <O>11      -0.0598
   7 C5        7.5676    -9.1859    -2.7643  C.ar    1  <O>11      -0.0582
   8 C6        6.5614    -8.3169    -2.3273  C.ar    1  <O>11      -0.0183
   9 C7        5.2157    -8.6388    -2.5046  C.ar    1  <O>11       0.1380
  10 O2        4.2862    -7.8322    -2.1046  O.3     1  <O>11      -0.5049
  11 C8        1.4620   -10.1610    -4.6040  C.ar    1  <O>11       0.0389
  12 C9        0.8636    -9.9823    -5.8527  C.ar    1  <O>11      -0.0495
  13 C10      -0.4870   -10.3056    -6.0254  C.ar    1  <O>11      -0.0592
  14 C11      -1.2329   -10.8080    -4.9561  C.ar    1  <O>11      -0.0350
  15 C12      -0.6172   -10.9869    -3.7116  C.ar    1  <O>11       0.1092
  16 S1       -1.5620   -11.6210    -2.3688  S.O2    1  <O>11       0.0725
  17 O3       -2.8342   -10.6009    -2.0573  O.2     1  <O>11      -0.1500
  18 O4       -0.5998   -11.7336    -1.0199  O.2     1  <O>11      -0.1500
  19 N2       -2.1393   -13.1177    -2.7602  N.pl3   1  <O>11      -0.2127
  20 C13      -1.2167   -14.1916    -3.0772  C.ar    1  <O>11       0.0893
  21 C14      -0.7972   -14.4001    -4.4025  C.ar    1  <O>11      -0.0358
  22 C15       0.0818   -15.4433    -4.7090  C.ar    1  <O>11      -0.0597
  23 C16       0.5543   -16.2841    -3.6983  C.ar    1  <O>11      -0.0582
  24 C17       0.1422   -16.0729    -2.3776  C.ar    1  <O>11      -0.0183
  25 C18      -0.7346   -15.0341    -2.0623  C.ar    1  <O>11       0.1391
  26 O5       -1.1102   -14.8349    -0.8405  O.3     1  <O>11      -0.5049
  27 C19       0.7288   -10.6699    -3.5299  C.ar    1  <O>11      -0.0230
  28 H1        3.0270   -10.7100    -2.5640  H       1  <O>11       0.1552
  29 H2        3.4176    -8.2139    -2.3068  H       1  <O>11       0.2922
  30 H3       -3.1464   -13.2879    -2.7794  H       1  <O>11       0.1738
  31 H4       -1.7125   -14.0775    -0.8062  H       1  <O>11       0.2922
  32 H5        5.6175   -11.6072    -4.0276  H       1  <O>11       0.0637
  33 H6        7.9543   -11.0310    -3.7146  H       1  <O>11       0.0618
  34 H7        8.5610    -8.9414    -2.6280  H       1  <O>11       0.0619
  35 H8        6.8176    -7.4284    -1.8690  H       1  <O>11       0.0655
  36 H9        1.4142    -9.6139    -6.6441  H       1  <O>11       0.0625
  37 H10      -0.9338   -10.1724    -6.9461  H       1  <O>11       0.0618
  38 H11      -2.2293   -11.0451    -5.0826  H       1  <O>11       0.0637
  39 H12      -1.1397   -13.7801    -5.1531  H       1  <O>11       0.0638
  40 H13       0.3826   -15.5926    -5.6849  H       1  <O>11       0.0618
  41 H14       1.2021   -17.0551    -3.9240  H       1  <O>11       0.0619
  42 H15       0.4905   -16.6920    -1.6289  H       1  <O>11       0.0655
  43 H16       1.1781   -10.8100    -2.6114  H       1  <O>11       0.0645
@<TRIPOS>BOND
     1     1     2    2
     2     2     3   am
     3     3     4    1
     4     4     5   ar
     5     5     6   ar
     6     6     7   ar
     7     7     8   ar
     8     8     9   ar
     9     4     9   ar
    10     9    10    1
    11     2    11    1
    12    11    12   ar
    13    12    13   ar
    14    13    14   ar
    15    14    15   ar
    16    15    16    1
    17    16    17    2
    18    16    18    2
    19    16    19    1
    20    19    20    1
    21    20    21   ar
    22    21    22   ar
    23    22    23   ar
    24    23    24   ar
    25    24    25   ar
    26    20    25   ar
    27    25    26    1
    28    15    27   ar
    29    11    27   ar
    30     3    28    1
    31    10    29    1
    32    19    30    1
    33    26    31    1
    34     5    32    1
    35     6    33    1
    36     7    34    1
    37     8    35    1
    38    12    36    1
    39    13    37    1
    40    14    38    1
    41    21    39    1
    42    22    40    1
    43    23    41    1
    44    24    42    1
    45    27    43    1
@<TRIPOS>MOLECULE
mol29_2_2
 43 45 0 0 0
SMALL
USER_CHARGES
****
VDW energy = 57.86
@<TRIPOS>ATOM
   1 O1        3.4420    -9.1855    -5.2979  O.2     1  <O>11      -0.2699
   2 C1        2.8552    -9.8129    -4.4288  C.2     1  <O>11       0.2484
   3 N1        3.5160   -10.1860    -3.2900  N.am    1  <O>11      -0.2786
   4 C2        4.8600    -9.8500    -3.1210  C.ar    1  <O>11       0.0756
   5 C3        5.8705   -10.7194    -3.5661  C.ar    1  <O>11      -0.0369
   6 C4        7.2173   -10.3872    -3.3866  C.ar    1  <O>11      -0.0598
   7 C5        7.5676    -9.1859    -2.7643  C.ar    1  <O>11      -0.0582
   8 C6        6.5614    -8.3169    -2.3273  C.ar    1  <O>11      -0.0183
   9 C7        5.2157    -8.6388    -2.5046  C.ar    1  <O>11       0.1380
  10 O2        4.2862    -7.8322    -2.1046  O.3     1  <O>11      -0.5049
  11 C8        1.4620   -10.1610    -4.6040  C.ar    1  <O>11       0.0389
  12 C9        0.8636    -9.9823    -5.8527  C.ar    1  <O>11      -0.0495
  13 C10      -0.4870   -10.3056    -6.0254  C.ar    1  <O>11      -0.0592
  14 C11      -1.2329   -10.8080    -4.9561  C.ar    1  <O>11      -0.0350
  15 C12      -0.6172   -10.9869    -3.7116  C.ar    1  <O>11       0.1092
  16 S1       -1.5620   -11.6210    -2.3688  S.O2    1  <O>11       0.0725
  17 O3       -0.5999   -11.7341    -1.0205  O.2     1  <O>11      -0.1500
  18 O4       -2.1421   -13.1264    -2.7627  O.2     1  <O>11      -0.1500
  19 N2       -2.8275   -10.6067    -2.0587  N.pl3   1  <O>11      -0.2127
  20 C13      -3.8154   -10.3428    -3.0881  C.ar    1  <O>11       0.0893
  21 C14      -3.6415    -9.2721    -3.9821  C.ar    1  <O>11      -0.0358
  22 C15      -4.6003    -9.0106    -4.9655  C.ar    1  <O>11      -0.0597
  23 C16      -5.7373    -9.8155    -5.0702  C.ar    1  <O>11      -0.0582
  24 C17      -5.9077   -10.8858    -4.1847  C.ar    1  <O>11      -0.0183
  25 C18      -4.9559   -11.1545    -3.2002  C.ar    1  <O>11       0.1391
  26 O5       -5.1104   -12.1478    -2.3860  O.3     1  <O>11      -0.5049
  27 C19       0.7288   -10.6699    -3.5299  C.ar    1  <O>11      -0.0230
  28 H1        3.0270   -10.7100    -2.5640  H       1  <O>11       0.1552
  29 H2        3.4176    -8.2139    -2.3068  H       1  <O>11       0.2922
  30 H3       -2.9153   -10.1647    -1.1420  H       1  <O>11       0.1738
  31 H4       -4.3597   -12.1858    -1.7754  H       1  <O>11       0.2922
  32 H5        5.6175   -11.6072    -4.0276  H       1  <O>11       0.0637
  33 H6        7.9543   -11.0310    -3.7146  H       1  <O>11       0.0618
  34 H7        8.5610    -8.9414    -2.6280  H       1  <O>11       0.0619
  35 H8        6.8176    -7.4284    -1.8690  H       1  <O>11       0.0655
  36 H9        1.4142    -9.6139    -6.6441  H       1  <O>11       0.0625
  37 H10      -0.9338   -10.1724    -6.9461  H       1  <O>11       0.0618
  38 H11      -2.2293   -11.0451    -5.0826  H       1  <O>11       0.0637
  39 H12      -2.8019    -8.6761    -3.9123  H       1  <O>11       0.0638
  40 H13      -4.4676    -8.2205    -5.6161  H       1  <O>11       0.0618
  41 H14      -6.4461    -9.6224    -5.7951  H       1  <O>11       0.0619
  42 H15      -6.7463   -11.4825    -4.2605  H       1  <O>11       0.0655
  43 H16       1.1781   -10.8100    -2.6114  H       1  <O>11       0.0645
@<TRIPOS>BOND
     1     1     2    2
     2     2     3   am
     3     3     4    1
     4     4     5   ar
     5     5     6   ar
     6     6     7   ar
     7     7     8   ar
     8     8     9   ar
     9     4     9   ar
    10     9    10    1
    11     2    11    1
    12    11    12   ar
    13    12    13   ar
    14    13    14   ar
    15    14    15   ar
    16    15    16    1
    17    16    17    2
    18    16    18    2
    19    16    19    1
    20    19    20    1
    21    20    21   ar
    22    21    22   ar
    23    22    23   ar
    24    23    24   ar
    25    24    25   ar
    26    20    25   ar
    27    25    26    1
    28    15    27   ar
    29    11    27   ar
    30     3    28    1
    31    10    29    1
    32    19    30    1
    33    26    31    1
    34     5    32    1
    35     6    33    1
    36     7    34    1
    37     8    35    1
    38    12    36    1
    39    13    37    1
    40    14    38    1
    41    21    39    1
    42    22    40    1
    43    23    41    1
    44    24    42    1
    45    27    43    1
@<TRIPOS>MOLECULE
mol29_2_3
 43 45 0 0 0
SMALL
USER_CHARGES
****
VDW energy = 59.84
@<TRIPOS>ATOM
   1 O1        3.4420    -9.1855    -5.2979  O.2     1  <O>11      -0.2699
   2 C1        2.8552    -9.8129    -4.4288  C.2     1  <O>11       0.2484
   3 N1        3.5160   -10.1860    -3.2900  N.am    1  <O>11      -0.2786
   4 C2        4.8600    -9.8500    -3.1210  C.ar    1  <O>11       0.0756
   5 C3        5.8705   -10.7194    -3.5661  C.ar    1  <O>11      -0.0369
   6 C4        7.2173   -10.3872    -3.3866  C.ar    1  <O>11      -0.0598
   7 C5        7.5676    -9.1859    -2.7643  C.ar    1  <O>11      -0.0582
   8 C6        6.5614    -8.3169    -2.3273  C.ar    1  <O>11      -0.0183
   9 C7        5.2157    -8.6388    -2.5046  C.ar    1  <O>11       0.1380
  10 O2        4.2862    -7.8322    -2.1046  O.3     1  <O>11      -0.5049
  11 C8        1.4620   -10.1610    -4.6040  C.ar    1  <O>11       0.0389
  12 C9        1.0134   -11.4175    -4.1926  C.ar    1  <O>11      -0.0495
  13 C10      -0.3305   -11.7649    -4.3706  C.ar    1  <O>11      -0.0592
  14 C11      -1.2205   -10.8590    -4.9532  C.ar    1  <O>11      -0.0350
  15 C12      -0.7568    -9.6008    -5.3553  C.ar    1  <O>11       0.1092
  16 S1       -1.8831    -8.4638    -6.0878  S.O2    1  <O>11       0.0725
  17 O3       -2.5557    -7.5121    -4.9052  O.2     1  <O>11      -0.1500
  18 O4       -3.0830    -9.3017    -6.8729  O.2     1  <O>11      -0.1500
  19 N2       -1.0780    -7.5111    -7.1697  N.pl3   1  <O>11      -0.2127
  20 C13      -0.4008    -8.1124    -8.3032  C.ar    1  <O>11       0.0893
  21 C14       0.9997    -8.0516    -8.4084  C.ar    1  <O>11      -0.0358
  22 C15       1.6505    -8.6201    -9.5075  C.ar    1  <O>11      -0.0597
  23 C16       0.9133    -9.2579   -10.5081  C.ar    1  <O>11      -0.0582
  24 C17      -0.4805    -9.3247   -10.4007  C.ar    1  <O>11      -0.0183
  25 C18      -1.1386    -8.7604    -9.3071  C.ar    1  <O>11       0.1391
  26 O5       -2.4265    -8.8280    -9.2046  O.3     1  <O>11      -0.5049
  27 C19       0.5801    -9.2441    -5.1802  C.ar    1  <O>11      -0.0230
  28 H1        3.0270   -10.7100    -2.5640  H       1  <O>11       0.1552
  29 H2        3.4176    -8.2139    -2.3068  H       1  <O>11       0.2922
  30 H3       -1.0564    -6.4979    -7.0413  H       1  <O>11       0.1738
  31 H4       -2.7099    -8.3888    -8.3895  H       1  <O>11       0.2922
  32 H5        5.6175   -11.6072    -4.0276  H       1  <O>11       0.0637
  33 H6        7.9543   -11.0310    -3.7146  H       1  <O>11       0.0618
  34 H7        8.5610    -8.9414    -2.6280  H       1  <O>11       0.0619
  35 H8        6.8176    -7.4284    -1.8690  H       1  <O>11       0.0655
  36 H9        1.6693   -12.0865    -3.7596  H       1  <O>11       0.0625
  37 H10      -0.6655   -12.6936    -4.0704  H       1  <O>11       0.0618
  38 H11      -2.2113   -11.1153    -5.0861  H       1  <O>11       0.0637
  39 H12       1.5502    -7.5850    -7.6706  H       1  <O>11       0.0638
  40 H13       2.6787    -8.5683    -9.5797  H       1  <O>11       0.0618
  41 H14       1.3928    -9.6767   -11.3203  H       1  <O>11       0.0619
  42 H15      -1.0274    -9.7962   -11.1380  H       1  <O>11       0.0655
  43 H16       0.9141    -8.3127    -5.4733  H       1  <O>11       0.0645
@<TRIPOS>BOND
     1     1     2    2
     2     2     3   am
     3     3     4    1
     4     4     5   ar
     5     5     6   ar
     6     6     7   ar
     7     7     8   ar
     8     8     9   ar
     9     4     9   ar
    10     9    10    1
    11     2    11    1
    12    11    12   ar
    13    12    13   ar
    14    13    14   ar
    15    14    15   ar
    16    15    16    1
    17    16    17    2
    18    16    18    2
    19    16    19    1
    20    19    20    1
    21    20    21   ar
    22    21    22   ar
    23    22    23   ar
    24    23    24   ar
    25    24    25   ar
    26    20    25   ar
    27    25    26    1
    28    15    27   ar
    29    11    27   ar
    30     3    28    1
    31    10    29    1
    32    19    30    1
    33    26    31    1
    34     5    32    1
    35     6    33    1
    36     7    34    1
    37     8    35    1
    38    12    36    1
    39    13    37    1
    40    14    38    1
    41    21    39    1
    42    22    40    1
    43    23    41    1
    44    24    42    1
    45    27    43    1
@<TRIPOS>MOLECULE
mol29_2_4
 43 45 0 0 0
SMALL
USER_CHARGES
****
VDW energy = 60.50
@<TRIPOS>ATOM
   1 O1        3.4420    -9.1855    -5.2979  O.2     1  <O>11      -0.2699
   2 C1        2.8552    -9.8129    -4.4288  C.2     1  <O>11       0.2484
   3 N1        3.5160   -10.1860    -3.2900  N.am    1  <O>11      -0.2786
   4 C2        4.8600    -9.8500    -3.1210  C.ar    1  <O>11       0.0756
   5 C3        5.8705   -10.7194    -3.5661  C.ar    1  <O>11      -0.0369
   6 C4        7.2173   -10.3872    -3.3866  C.ar    1  <O>11      -0.0598
   7 C5        7.5676    -9.1859    -2.7643  C.ar    1  <O>11      -0.0582
   8 C6        6.5614    -8.3169    -2.3273  C.ar    1  <O>11      -0.0183
   9 C7        5.2157    -8.6388    -2.5046  C.ar    1  <O>11       0.1380
  10 O2        4.2862    -7.8322    -2.1046  O.3     1  <O>11      -0.5049
  11 C8        1.4620   -10.1610    -4.6040  C.ar    1  <O>11       0.0389
  12 C9        0.8636    -9.9823    -5.8527  C.ar    1  <O>11      -0.0495
  13 C10      -0.4870   -10.3056    -6.0254  C.ar    1  <O>11      -0.0592
  14 C11      -1.2329   -10.8080    -4.9561  C.ar    1  <O>11      -0.0350
  15 C12      -0.6172   -10.9869    -3.7116  C.ar    1  <O>11       0.1092
  16 S1       -1.5620   -11.6210    -2.3688  S.O2    1  <O>11       0.0725
  17 O3       -1.4382   -13.2764    -2.3385  O.2     1  <O>11      -0.1500
  18 O4       -3.1540   -11.1884    -2.5595  O.2     1  <O>11      -0.1500
  19 N2       -0.9884   -10.9999    -0.9505  N.pl3   1  <O>11      -0.2127
  20 C13      -0.9897    -9.5654    -0.7330  C.ar    1  <O>11       0.0893
  21 C14       0.1207    -8.7889    -1.1070  C.ar    1  <O>11      -0.0358
  22 C15       0.1238    -7.4085    -0.8853  C.ar    1  <O>11      -0.0597
  23 C16      -0.9800    -6.7891    -0.2941  C.ar    1  <O>11      -0.0582
  24 C17      -2.0886    -7.5606     0.0724  C.ar    1  <O>11      -0.0183
  25 C18      -2.1007    -8.9390    -0.1453  C.ar    1  <O>11       0.1391
  26 O5       -3.1283    -9.6510     0.1876  O.3     1  <O>11      -0.5049
  27 C19       0.7288   -10.6699    -3.5299  C.ar    1  <O>11      -0.0230
  28 H1        3.0270   -10.7100    -2.5640  H       1  <O>11       0.1552
  29 H2        3.4176    -8.2139    -2.3068  H       1  <O>11       0.2922
  30 H3       -0.6323   -11.6255    -0.2256  H       1  <O>11       0.1738
  31 H4       -2.9651   -10.5791    -0.0355  H       1  <O>11       0.2922
  32 H5        5.6175   -11.6072    -4.0276  H       1  <O>11       0.0637
  33 H6        7.9543   -11.0310    -3.7146  H       1  <O>11       0.0618
  34 H7        8.5610    -8.9414    -2.6280  H       1  <O>11       0.0619
  35 H8        6.8176    -7.4284    -1.8690  H       1  <O>11       0.0655
  36 H9        1.4142    -9.6139    -6.6441  H       1  <O>11       0.0625
  37 H10      -0.9338   -10.1724    -6.9461  H       1  <O>11       0.0618
  38 H11      -2.2293   -11.0451    -5.0826  H       1  <O>11       0.0637
  39 H12       0.9377    -9.2400    -1.5476  H       1  <O>11       0.0638
  40 H13       0.9442    -6.8453    -1.1592  H       1  <O>11       0.0618
  41 H14      -0.9779    -5.7704    -0.1290  H       1  <O>11       0.0619
  42 H15      -2.9058    -7.1054     0.5084  H       1  <O>11       0.0655
  43 H16       1.1781   -10.8100    -2.6114  H       1  <O>11       0.0645
@<TRIPOS>BOND
     1     1     2    2
     2     2     3   am
     3     3     4    1
     4     4     5   ar
     5     5     6   ar
     6     6     7   ar
     7     7     8   ar
     8     8     9   ar
     9     4     9   ar
    10     9    10    1
    11     2    11    1
    12    11    12   ar
    13    12    13   ar
    14    13    14   ar
    15    14    15   ar
    16    15    16    1
    17    16    17    2
    18    16    18    2
    19    16    19    1
    20    19    20    1
    21    20    21   ar
    22    21    22   ar
    23    22    23   ar
    24    23    24   ar
    25    24    25   ar
    26    20    25   ar
    27    25    26    1
    28    15    27   ar
    29    11    27   ar
    30     3    28    1
    31    10    29    1
    32    19    30    1
    33    26    31    1
    34     5    32    1
    35     6    33    1
    36     7    34    1
    37     8    35    1
    38    12    36    1
    39    13    37    1
    40    14    38    1
    41    21    39    1
    42    22    40    1
    43    23    41    1
    44    24    42    1
    45    27    43    1
@<TRIPOS>MOLECULE
mol29_2_5
 43 45 0 0 0
SMALL
USER_CHARGES
****
VDW energy = 62.62
@<TRIPOS>ATOM
   1 O1        3.4420    -9.1855    -5.2979  O.2     1  <O>11      -0.2699
   2 C1        2.8552    -9.8129    -4.4288  C.2     1  <O>11       0.2484
   3 N1        3.5160   -10.1860    -3.2900  N.am    1  <O>11      -0.2786
   4 C2        4.8600    -9.8500    -3.1210  C.ar    1  <O>11       0.0756
   5 C3        5.8705   -10.7194    -3.5661  C.ar    1  <O>11      -0.0369
   6 C4        7.2173   -10.3872    -3.3866  C.ar    1  <O>11      -0.0598
   7 C5        7.5676    -9.1859    -2.7643  C.ar    1  <O>11      -0.0582
   8 C6        6.5614    -8.3169    -2.3273  C.ar    1  <O>11      -0.0183
   9 C7        5.2157    -8.6388    -2.5046  C.ar    1  <O>11       0.1380
  10 O2        4.2862    -7.8322    -2.1046  O.3     1  <O>11      -0.5049
  11 C8        1.4620   -10.1610    -4.6040  C.ar    1  <O>11       0.0389
  12 C9        1.1306   -11.3698    -5.2192  C.ar    1  <O>11      -0.0495
  13 C10      -0.2153   -11.7066    -5.4026  C.ar    1  <O>11      -0.0592
  14 C11      -1.2229   -10.8409    -4.9699  C.ar    1  <O>11      -0.0350
  15 C12      -0.8747    -9.6351    -4.3496  C.ar    1  <O>11       0.1092
  16 S1       -2.1487    -8.5493    -3.8059  S.O2    1  <O>11       0.0725
  17 O3       -1.4691    -7.2035    -3.1107  O.2     1  <O>11      -0.1500
  18 O4       -3.1003    -9.3281    -2.6896  O.2     1  <O>11      -0.1500
  19 N2       -3.0730    -8.0951    -5.0966  N.pl3   1  <O>11      -0.2127
  20 C13      -2.4670    -7.3929    -6.2122  C.ar    1  <O>11       0.0893
  21 C14      -1.0934    -7.0941    -6.2022  C.ar    1  <O>11      -0.0358
  22 C15      -0.5128    -6.4061    -7.2718  C.ar    1  <O>11      -0.0597
  23 C16      -1.2933    -6.0143    -8.3622  C.ar    1  <O>11      -0.0582
  24 C17      -2.6595    -6.3173    -8.3758  C.ar    1  <O>11      -0.0183
  25 C18      -3.2477    -7.0040    -7.3128  C.ar    1  <O>11       0.1391
  26 O5       -4.5093    -7.2898    -7.3287  O.3     1  <O>11      -0.5049
  27 C19       0.4636    -9.2913    -4.1600  C.ar    1  <O>11      -0.0230
  28 H1        3.0270   -10.7100    -2.5640  H       1  <O>11       0.1552
  29 H2        3.4176    -8.2139    -2.3068  H       1  <O>11       0.2922
  30 H3       -4.0720    -8.3084    -5.1099  H       1  <O>11       0.1738
  31 H4       -4.7438    -7.7652    -6.5183  H       1  <O>11       0.2922
  32 H5        5.6175   -11.6072    -4.0276  H       1  <O>11       0.0637
  33 H6        7.9543   -11.0310    -3.7146  H       1  <O>11       0.0618
  34 H7        8.5610    -8.9414    -2.6280  H       1  <O>11       0.0619
  35 H8        6.8176    -7.4284    -1.8690  H       1  <O>11       0.0655
  36 H9        1.8739   -12.0113    -5.5368  H       1  <O>11       0.0625
  37 H10      -0.4644   -12.5978    -5.8593  H       1  <O>11       0.0618
  38 H11      -2.2155   -11.0882    -5.1063  H       1  <O>11       0.0637
  39 H12      -0.5108    -7.3841    -5.4013  H       1  <O>11       0.0638
  40 H13       0.4956    -6.1870    -7.2558  H       1  <O>11       0.0618
  41 H14      -0.8656    -5.5052    -9.1515  H       1  <O>11       0.0619
  42 H15      -3.2382    -6.0299    -9.1806  H       1  <O>11       0.0655
  43 H16       0.7134    -8.4037    -3.6966  H       1  <O>11       0.0645
@<TRIPOS>BOND
     1     1     2    2
     2     2     3   am
     3     3     4    1
     4     4     5   ar
     5     5     6   ar
     6     6     7   ar
     7     7     8   ar
     8     8     9   ar
     9     4     9   ar
    10     9    10    1
    11     2    11    1
    12    11    12   ar
    13    12    13   ar
    14    13    14   ar
    15    14    15   ar
    16    15    16    1
    17    16    17    2
    18    16    18    2
    19    16    19    1
    20    19    20    1
    21    20    21   ar
    22    21    22   ar
    23    22    23   ar
    24    23    24   ar
    25    24    25   ar
    26    20    25   ar
    27    25    26    1
    28    15    27   ar
    29    11    27   ar
    30     3    28    1
    31    10    29    1
    32    19    30    1
    33    26    31    1
    34     5    32    1
    35     6    33    1
    36     7    34    1
    37     8    35    1
    38    12    36    1
    39    13    37    1
    40    14    38    1
    41    21    39    1
    42    22    40    1
    43    23    41    1
    44    24    42    1
    45    27    43    1
@<TRIPOS>MOLECULE
mol29_2_6
 43 45 0 0 0
SMALL
USER_CHARGES
****
VDW energy = 62.86
@<TRIPOS>ATOM
   1 O1        3.4420    -9.1855    -5.2979  O.2     1  <O>11      -0.2699
   2 C1        2.8552    -9.8129    -4.4288  C.2     1  <O>11       0.2484
   3 N1        3.5160   -10.1860    -3.2900  N.am    1  <O>11      -0.2786
   4 C2        4.8600    -9.8500    -3.1210  C.ar    1  <O>11       0.0756
   5 C3        5.2167    -8.6388    -2.5040  C.ar    1  <O>11      -0.0369
   6 C4        6.5639    -8.2975    -2.3447  C.ar    1  <O>11      -0.0598
   7 C5        7.5655    -9.1608    -2.7970  C.ar    1  <O>11      -0.0582
   8 C6        7.2103   -10.3702    -3.4052  C.ar    1  <O>11      -0.0183
   9 C7        5.8694   -10.7199    -3.5657  C.ar    1  <O>11       0.1380
  10 O2        5.5422   -11.8407    -4.1237  O.3     1  <O>11      -0.5049
  11 C8        1.4620   -10.1610    -4.6040  C.ar    1  <O>11       0.0389
  12 C9        1.1306   -11.3698    -5.2192  C.ar    1  <O>11      -0.0495
  13 C10      -0.2153   -11.7066    -5.4026  C.ar    1  <O>11      -0.0592
  14 C11      -1.2229   -10.8409    -4.9699  C.ar    1  <O>11      -0.0350
  15 C12      -0.8747    -9.6351    -4.3496  C.ar    1  <O>11       0.1092
  16 S1       -2.1487    -8.5493    -3.8059  S.O2    1  <O>11       0.0725
  17 O3       -1.4691    -7.2035    -3.1107  O.2     1  <O>11      -0.1500
  18 O4       -3.1003    -9.3281    -2.6896  O.2     1  <O>11      -0.1500
  19 N2       -3.0730    -8.0951    -5.0966  N.pl3   1  <O>11      -0.2127
  20 C13      -2.4670    -7.3929    -6.2122  C.ar    1  <O>11       0.0893
  21 C14      -1.0934    -7.0941    -6.2022  C.ar    1  <O>11      -0.0358
  22 C15      -0.5128    -6.4061    -7.2718  C.ar    1  <O>11      -0.0597
  23 C16      -1.2933    -6.0143    -8.3622  C.ar    1  <O>11      -0.0582
  24 C17      -2.6595    -6.3173    -8.3758  C.ar    1  <O>11      -0.0183
  25 C18      -3.2477    -7.0040    -7.3128  C.ar    1  <O>11       0.1391
  26 O5       -4.5093    -7.2898    -7.3287  O.3     1  <O>11      -0.5049
  27 C19       0.4636    -9.2913    -4.1600  C.ar    1  <O>11      -0.0230
  28 H1        3.0270   -10.7100    -2.5640  H       1  <O>11       0.1552
  29 H2        4.5756   -11.9178    -4.1523  H       1  <O>11       0.2922
  30 H3       -4.0720    -8.3084    -5.1099  H       1  <O>11       0.1738
  31 H4       -4.7438    -7.7652    -6.5183  H       1  <O>11       0.2922
  32 H5        4.4813    -7.9981    -2.1668  H       1  <O>11       0.0637
  33 H6        6.8188    -7.4058    -1.8920  H       1  <O>11       0.0618
  34 H7        8.5597    -8.9084    -2.6834  H       1  <O>11       0.0619
  35 H8        7.9481   -11.0101    -3.7385  H       1  <O>11       0.0655
  36 H9        1.8739   -12.0113    -5.5368  H       1  <O>11       0.0625
  37 H10      -0.4644   -12.5978    -5.8593  H       1  <O>11       0.0618
  38 H11      -2.2155   -11.0882    -5.1063  H       1  <O>11       0.0637
  39 H12      -0.5108    -7.3841    -5.4013  H       1  <O>11       0.0638
  40 H13       0.4956    -6.1870    -7.2558  H       1  <O>11       0.0618
  41 H14      -0.8656    -5.5052    -9.1515  H       1  <O>11       0.0619
  42 H15      -3.2382    -6.0299    -9.1806  H       1  <O>11       0.0655
  43 H16       0.7134    -8.4037    -3.6966  H       1  <O>11       0.0645
@<TRIPOS>BOND
     1     1     2    2
     2     2     3   am
     3     3     4    1
     4     4     5   ar
     5     5     6   ar
     6     6     7   ar
     7     7     8   ar
     8     8     9   ar
     9     4     9   ar
    10     9    10    1
    11     2    11    1
    12    11    12   ar
    13    12    13   ar
    14    13    14   ar
    15    14    15   ar
    16    15    16    1
    17    16    17    2
    18    16    18    2
    19    16    19    1
    20    19    20    1
    21    20    21   ar
    22    21    22   ar
    23    22    23   ar
    24    23    24   ar
    25    24    25   ar
    26    20    25   ar
    27    25    26    1
    28    15    27   ar
    29    11    27   ar
    30     3    28    1
    31    10    29    1
    32    19    30    1
    33    26    31    1
    34     5    32    1
    35     6    33    1
    36     7    34    1
    37     8    35    1
    38    12    36    1
    39    13    37    1
    40    14    38    1
    41    21    39    1
    42    22    40    1
    43    23    41    1
    44    24    42    1
    45    27    43    1
@<TRIPOS>MOLECULE
mol29_2_7
 43 45 0 0 0
SMALL
USER_CHARGES
****
VDW energy = 68.01
@<TRIPOS>ATOM
   1 O1        3.4420    -9.1855    -5.2979  O.2     1  <O>11      -0.2699
   2 C1        2.8552    -9.8129    -4.4288  C.2     1  <O>11       0.2484
   3 N1        3.5160   -10.1860    -3.2900  N.am    1  <O>11      -0.2786
   4 C2        4.8600    -9.8500    -3.1210  C.ar    1  <O>11       0.0756
   5 C3        5.8276   -10.8555    -2.9547  C.ar    1  <O>11      -0.0369
   6 C4        7.1730   -10.5179    -2.7744  C.ar    1  <O>11      -0.0598
   7 C5        7.5647    -9.1764    -2.7603  C.ar    1  <O>11      -0.0582
   8 C6        6.6021    -8.1752    -2.9329  C.ar    1  <O>11      -0.0183
   9 C7        5.2586    -8.5030    -3.1161  C.ar    1  <O>11       0.1380
  10 O2        4.3701    -7.5766    -3.2806  O.3     1  <O>11      -0.5049
  11 C8        1.4620   -10.1610    -4.6040  C.ar    1  <O>11       0.0389
  12 C9        1.1306   -11.3698    -5.2192  C.ar    1  <O>11      -0.0495
  13 C10      -0.2153   -11.7066    -5.4026  C.ar    1  <O>11      -0.0592
  14 C11      -1.2229   -10.8409    -4.9699  C.ar    1  <O>11      -0.0350
  15 C12      -0.8747    -9.6351    -4.3496  C.ar    1  <O>11       0.1092
  16 S1       -2.1487    -8.5493    -3.8059  S.O2    1  <O>11       0.0725
  17 O3       -2.5439    -8.9042    -2.2329  O.2     1  <O>11      -0.1500
  18 O4       -3.4876    -8.7408    -4.7696  O.2     1  <O>11      -0.1500
  19 N2       -1.6196    -6.9881    -3.9019  N.pl3   1  <O>11      -0.2127
  20 C13      -2.3672    -5.9271    -3.2534  C.ar    1  <O>11       0.0893
  21 C14      -2.9946    -4.9293    -4.0194  C.ar    1  <O>11      -0.0358
  22 C15      -3.7039    -3.9000    -3.3932  C.ar    1  <O>11      -0.0597
  23 C16      -3.7987    -3.8582    -2.0001  C.ar    1  <O>11      -0.0582
  24 C17      -3.1799    -4.8550    -1.2372  C.ar    1  <O>11      -0.0183
  25 C18      -2.4701    -5.8864    -1.8535  C.ar    1  <O>11       0.1391
  26 O5       -1.9037    -6.8114    -1.1484  O.3     1  <O>11      -0.5049
  27 C19       0.4636    -9.2913    -4.1600  C.ar    1  <O>11      -0.0230
  28 H1        3.0270   -10.7100    -2.5640  H       1  <O>11       0.1552
  29 H2        3.4962    -7.9827    -3.3919  H       1  <O>11       0.2922
  30 H3       -0.7657    -6.7688    -4.4179  H       1  <O>11       0.1738
  31 H4       -1.4606    -7.4408    -1.7359  H       1  <O>11       0.2922
  32 H5        5.5442   -11.8478    -2.9657  H       1  <O>11       0.0637
  33 H6        7.8781   -11.2613    -2.6514  H       1  <O>11       0.0618
  34 H7        8.5566    -8.9259    -2.6237  H       1  <O>11       0.0619
  35 H8        6.8893    -7.1840    -2.9246  H       1  <O>11       0.0655
  36 H9        1.8739   -12.0113    -5.5368  H       1  <O>11       0.0625
  37 H10      -0.4644   -12.5978    -5.8593  H       1  <O>11       0.0618
  38 H11      -2.2155   -11.0882    -5.1063  H       1  <O>11       0.0637
  39 H12      -2.9314    -4.9567    -5.0491  H       1  <O>11       0.0638
  40 H13      -4.1589    -3.1688    -3.9620  H       1  <O>11       0.0618
  41 H14      -4.3210    -3.0980    -1.5371  H       1  <O>11       0.0619
  42 H15      -3.2492    -4.8270    -0.2078  H       1  <O>11       0.0655
  43 H16       0.7134    -8.4037    -3.6966  H       1  <O>11       0.0645
@<TRIPOS>BOND
     1     1     2    2
     2     2     3   am
     3     3     4    1
     4     4     5   ar
     5     5     6   ar
     6     6     7   ar
     7     7     8   ar
     8     8     9   ar
     9     4     9   ar
    10     9    10    1
    11     2    11    1
    12    11    12   ar
    13    12    13   ar
    14    13    14   ar
    15    14    15   ar
    16    15    16    1
    17    16    17    2
    18    16    18    2
    19    16    19    1
    20    19    20    1
    21    20    21   ar
    22    21    22   ar
    23    22    23   ar
    24    23    24   ar
    25    24    25   ar
    26    20    25   ar
    27    25    26    1
    28    15    27   ar
    29    11    27   ar
    30     3    28    1
    31    10    29    1
    32    19    30    1
    33    26    31    1
    34     5    32    1
    35     6    33    1
    36     7    34    1
    37     8    35    1
    38    12    36    1
    39    13    37    1
    40    14    38    1
    41    21    39    1
    42    22    40    1
    43    23    41    1
    44    24    42    1
    45    27    43    1
@<TRIPOS>MOLECULE
mol29_2_8
 43 45 0 0 0
SMALL
USER_CHARGES
****
VDW energy = 70.06
@<TRIPOS>ATOM
   1 O1        3.4420    -9.1855    -5.2979  O.2     1  <O>11      -0.2699
   2 C1        2.8552    -9.8129    -4.4288  C.2     1  <O>11       0.2484
   3 N1        3.5160   -10.1860    -3.2900  N.am    1  <O>11      -0.2786
   4 C2        4.8600    -9.8500    -3.1210  C.ar    1  <O>11       0.0756
   5 C3        5.2167    -8.6388    -2.5040  C.ar    1  <O>11      -0.0369
   6 C4        6.5639    -8.2975    -2.3447  C.ar    1  <O>11      -0.0598
   7 C5        7.5655    -9.1608    -2.7970  C.ar    1  <O>11      -0.0582
   8 C6        7.2103   -10.3702    -3.4052  C.ar    1  <O>11      -0.0183
   9 C7        5.8694   -10.7199    -3.5657  C.ar    1  <O>11       0.1380
  10 O2        5.5422   -11.8407    -4.1237  O.3     1  <O>11      -0.5049
  11 C8        1.4620   -10.1610    -4.6040  C.ar    1  <O>11       0.0389
  12 C9        0.8636    -9.9823    -5.8527  C.ar    1  <O>11      -0.0495
  13 C10      -0.4870   -10.3056    -6.0254  C.ar    1  <O>11      -0.0592
  14 C11      -1.2329   -10.8080    -4.9561  C.ar    1  <O>11      -0.0350
  15 C12      -0.6172   -10.9869    -3.7116  C.ar    1  <O>11       0.1092
  16 S1       -1.5620   -11.6210    -2.3688  S.O2    1  <O>11       0.0725
  17 O3       -1.4382   -13.2764    -2.3385  O.2     1  <O>11      -0.1500
  18 O4       -3.1540   -11.1884    -2.5595  O.2     1  <O>11      -0.1500
  19 N2       -0.9884   -10.9999    -0.9505  N.pl3   1  <O>11      -0.2127
  20 C13      -1.4047   -11.5750     0.3149  C.ar    1  <O>11       0.0893
  21 C14      -2.6374   -12.2422     0.4209  C.ar    1  <O>11      -0.0358
  22 C15      -3.0436   -12.7849     1.6437  C.ar    1  <O>11      -0.0597
  23 C16      -2.2242   -12.6722     2.7695  C.ar    1  <O>11      -0.0582
  24 C17      -0.9938   -12.0138     2.6630  C.ar    1  <O>11      -0.0183
  25 C18      -0.5800   -11.4693     1.4466  C.ar    1  <O>11       0.1391
  26 O5        0.5603   -10.8665     1.3468  O.3     1  <O>11      -0.5049
  27 C19       0.7288   -10.6699    -3.5299  C.ar    1  <O>11      -0.0230
  28 H1        3.0270   -10.7100    -2.5640  H       1  <O>11       0.1552
  29 H2        4.5756   -11.9178    -4.1523  H       1  <O>11       0.2922
  30 H3       -0.3402   -10.2104    -0.9634  H       1  <O>11       0.1738
  31 H4        0.6837   -10.5554     0.4381  H       1  <O>11       0.2922
  32 H5        4.4813    -7.9981    -2.1668  H       1  <O>11       0.0637
  33 H6        6.8188    -7.4058    -1.8920  H       1  <O>11       0.0618
  34 H7        8.5597    -8.9084    -2.6834  H       1  <O>11       0.0619
  35 H8        7.9481   -11.0101    -3.7385  H       1  <O>11       0.0655
  36 H9        1.4142    -9.6139    -6.6441  H       1  <O>11       0.0625
  37 H10      -0.9338   -10.1724    -6.9461  H       1  <O>11       0.0618
  38 H11      -2.2293   -11.0451    -5.0826  H       1  <O>11       0.0637
  39 H12      -3.2455   -12.3321    -0.4081  H       1  <O>11       0.0638
  40 H13      -3.9516   -13.2702     1.7148  H       1  <O>11       0.0618
  41 H14      -2.5239   -13.0714     3.6728  H       1  <O>11       0.0619
  42 H15      -0.3861   -11.9299     3.4929  H       1  <O>11       0.0655
  43 H16       1.1781   -10.8100    -2.6114  H       1  <O>11       0.0645
@<TRIPOS>BOND
     1     1     2    2
     2     2     3   am
     3     3     4    1
     4     4     5   ar
     5     5     6   ar
     6     6     7   ar
     7     7     8   ar
     8     8     9   ar
     9     4     9   ar
    10     9    10    1
    11     2    11    1
    12    11    12   ar
    13    12    13   ar
    14    13    14   ar
    15    14    15   ar
    16    15    16    1
    17    16    17    2
    18    16    18    2
    19    16    19    1
    20    19    20    1
    21    20    21   ar
    22    21    22   ar
    23    22    23   ar
    24    23    24   ar
    25    24    25   ar
    26    20    25   ar
    27    25    26    1
    28    15    27   ar
    29    11    27   ar
    30     3    28    1
    31    10    29    1
    32    19    30    1
    33    26    31    1
    34     5    32    1
    35     6    33    1
    36     7    34    1
    37     8    35    1
    38    12    36    1
    39    13    37    1
    40    14    38    1
    41    21    39    1
    42    22    40    1
    43    23    41    1
    44    24    42    1
    45    27    43    1
@<TRIPOS>MOLECULE
mol29_2_9
 43 45 0 0 0
SMALL
USER_CHARGES
****
VDW energy = 71.38
@<TRIPOS>ATOM
   1 O1        3.4420    -9.1855    -5.2979  O.2     1  <O>11      -0.2699
   2 C1        2.8552    -9.8129    -4.4288  C.2     1  <O>11       0.2484
   3 N1        3.5160   -10.1860    -3.2900  N.am    1  <O>11      -0.2786
   4 C2        4.8600    -9.8500    -3.1210  C.ar    1  <O>11       0.0756
   5 C3        5.2615    -9.0537    -2.0349  C.ar    1  <O>11      -0.0369
   6 C4        6.6071    -8.7081    -1.8721  C.ar    1  <O>11      -0.0598
   7 C5        7.5629    -9.1547    -2.7887  C.ar    1  <O>11      -0.0582
   8 C6        7.1641    -9.9535    -3.8664  C.ar    1  <O>11      -0.0183
   9 C7        5.8247   -10.3052    -4.0350  C.ar    1  <O>11       0.1380
  10 O2        5.4579   -11.0481    -5.0291  O.3     1  <O>11      -0.5049
  11 C8        1.4620   -10.1610    -4.6040  C.ar    1  <O>11       0.0389
  12 C9        1.0134   -11.4175    -4.1926  C.ar    1  <O>11      -0.0495
  13 C10      -0.3305   -11.7649    -4.3706  C.ar    1  <O>11      -0.0592
  14 C11      -1.2205   -10.8590    -4.9532  C.ar    1  <O>11      -0.0350
  15 C12      -0.7568    -9.6008    -5.3553  C.ar    1  <O>11       0.1092
  16 S1       -1.8831    -8.4638    -6.0878  S.O2    1  <O>11       0.0725
  17 O3       -2.5557    -7.5121    -4.9052  O.2     1  <O>11      -0.1500
  18 O4       -3.0830    -9.3017    -6.8729  O.2     1  <O>11      -0.1500
  19 N2       -1.0780    -7.5111    -7.1697  N.pl3   1  <O>11      -0.2127
  20 C13      -0.4008    -8.1124    -8.3032  C.ar    1  <O>11       0.0893
  21 C14       0.0549    -9.4405    -8.2360  C.ar    1  <O>11      -0.0358
  22 C15       0.7189   -10.0150    -9.3240  C.ar    1  <O>11      -0.0597
  23 C16       0.9302    -9.2742   -10.4894  C.ar    1  <O>11      -0.0582
  24 C17       0.4708    -7.9540   -10.5594  C.ar    1  <O>11      -0.0183
  25 C18      -0.1931    -7.3724    -9.4785  C.ar    1  <O>11       0.1391
  26 O5       -0.6235    -6.1543    -9.5459  O.3     1  <O>11      -0.5049
  27 C19       0.5801    -9.2441    -5.1802  C.ar    1  <O>11      -0.0230
  28 H1        3.0270   -10.7100    -2.5640  H       1  <O>11       0.1552
  29 H2        4.4991   -11.1903    -4.9901  H       1  <O>11       0.2922
  30 H3       -1.0564    -6.4979    -7.0413  H       1  <O>11       0.1738
  31 H4       -1.0573    -5.9176    -8.7131  H       1  <O>11       0.2922
  32 H5        4.5601    -8.7223    -1.3542  H       1  <O>11       0.0637
  33 H6        6.8948    -8.1218    -1.0730  H       1  <O>11       0.0618
  34 H7        8.5555    -8.8974    -2.6717  H       1  <O>11       0.0619
  35 H8        7.8683   -10.2859    -4.5436  H       1  <O>11       0.0655
  36 H9        1.6693   -12.0865    -3.7596  H       1  <O>11       0.0625
  37 H10      -0.6655   -12.6936    -4.0704  H       1  <O>11       0.0618
  38 H11      -2.2113   -11.1153    -5.0861  H       1  <O>11       0.0637
  39 H12      -0.1014    -9.9942    -7.3792  H       1  <O>11       0.0638
  40 H13       1.0538   -10.9894    -9.2661  H       1  <O>11       0.0618
  41 H14       1.4213    -9.6971   -11.2925  H       1  <O>11       0.0619
  42 H15       0.6247    -7.4048   -11.4195  H       1  <O>11       0.0655
  43 H16       0.9141    -8.3127    -5.4733  H       1  <O>11       0.0645
@<TRIPOS>BOND
     1     1     2    2
     2     2     3   am
     3     3     4    1
     4     4     5   ar
     5     5     6   ar
     6     6     7   ar
     7     7     8   ar
     8     8     9   ar
     9     4     9   ar
    10     9    10    1
    11     2    11    1
    12    11    12   ar
    13    12    13   ar
    14    13    14   ar
    15    14    15   ar
    16    15    16    1
    17    16    17    2
    18    16    18    2
    19    16    19    1
    20    19    20    1
    21    20    21   ar
    22    21    22   ar
    23    22    23   ar
    24    23    24   ar
    25    24    25   ar
    26    20    25   ar
    27    25    26    1
    28    15    27   ar
    29    11    27   ar
    30     3    28    1
    31    10    29    1
    32    19    30    1
    33    26    31    1
    34     5    32    1
    35     6    33    1
    36     7    34    1
    37     8    35    1
    38    12    36    1
    39    13    37    1
    40    14    38    1
    41    21    39    1
    42    22    40    1
    43    23    41    1
    44    24    42    1
    45    27    43    1
@<TRIPOS>MOLECULE
mol29_2_10
 43 45 0 0 0
SMALL
USER_CHARGES
****
VDW energy = 71.49
@<TRIPOS>ATOM
   1 O1        3.4420    -9.1855    -5.2979  O.2     1  <O>11      -0.2699
   2 C1        2.8552    -9.8129    -4.4288  C.2     1  <O>11       0.2484
   3 N1        3.5160   -10.1860    -3.2900  N.am    1  <O>11      -0.2786
   4 C2        4.8600    -9.8500    -3.1210  C.ar    1  <O>11       0.0756
   5 C3        5.8276   -10.8555    -2.9547  C.ar    1  <O>11      -0.0369
   6 C4        7.1730   -10.5179    -2.7744  C.ar    1  <O>11      -0.0598
   7 C5        7.5647    -9.1764    -2.7603  C.ar    1  <O>11      -0.0582
   8 C6        6.6021    -8.1752    -2.9329  C.ar    1  <O>11      -0.0183
   9 C7        5.2586    -8.5030    -3.1161  C.ar    1  <O>11       0.1380
  10 O2        4.3701    -7.5766    -3.2806  O.3     1  <O>11      -0.5049
  11 C8        1.4620   -10.1610    -4.6040  C.ar    1  <O>11       0.0389
  12 C9        1.1306   -11.3698    -5.2192  C.ar    1  <O>11      -0.0495
  13 C10      -0.2153   -11.7066    -5.4026  C.ar    1  <O>11      -0.0592
  14 C11      -1.2229   -10.8409    -4.9699  C.ar    1  <O>11      -0.0350
  15 C12      -0.8747    -9.6351    -4.3496  C.ar    1  <O>11       0.1092
  16 S1       -2.1487    -8.5493    -3.8059  S.O2    1  <O>11       0.0725
  17 O3       -1.4691    -7.2035    -3.1107  O.2     1  <O>11      -0.1500
  18 O4       -3.1003    -9.3281    -2.6896  O.2     1  <O>11      -0.1500
  19 N2       -3.0730    -8.0951    -5.0966  N.pl3   1  <O>11      -0.2127
  20 C13      -4.0069    -6.9921    -4.9684  C.ar    1  <O>11       0.0893
  21 C14      -4.1321    -6.3051    -3.7485  C.ar    1  <O>11      -0.0358
  22 C15      -5.0415    -5.2507    -3.6221  C.ar    1  <O>11      -0.0597
  23 C16      -5.8299    -4.8684    -4.7101  C.ar    1  <O>11      -0.0582
  24 C17      -5.7011    -5.5477    -5.9269  C.ar    1  <O>11      -0.0183
  25 C18      -4.7958    -6.6011    -6.0624  C.ar    1  <O>11       0.1391
  26 O5       -4.6721    -7.2246    -7.1891  O.3     1  <O>11      -0.5049
  27 C19       0.4636    -9.2913    -4.1600  C.ar    1  <O>11      -0.0230
  28 H1        3.0270   -10.7100    -2.5640  H       1  <O>11       0.1552
  29 H2        3.4962    -7.9827    -3.3919  H       1  <O>11       0.2922
  30 H3       -2.9877    -8.5907    -5.9858  H       1  <O>11       0.1738
  31 H4       -4.0034    -7.9196    -7.1029  H       1  <O>11       0.2922
  32 H5        5.5442   -11.8478    -2.9657  H       1  <O>11       0.0637
  33 H6        7.8781   -11.2613    -2.6514  H       1  <O>11       0.0618
  34 H7        8.5566    -8.9259    -2.6237  H       1  <O>11       0.0619
  35 H8        6.8893    -7.1840    -2.9246  H       1  <O>11       0.0655
  36 H9        1.8739   -12.0113    -5.5368  H       1  <O>11       0.0625
  37 H10      -0.4644   -12.5978    -5.8593  H       1  <O>11       0.0618
  38 H11      -2.2155   -11.0882    -5.1063  H       1  <O>11       0.0637
  39 H12      -3.5497    -6.5803    -2.9421  H       1  <O>11       0.0638
  40 H13      -5.1305    -4.7532    -2.7223  H       1  <O>11       0.0618
  41 H14      -6.5024    -4.0910    -4.6172  H       1  <O>11       0.0619
  42 H15      -6.2816    -5.2667    -6.7325  H       1  <O>11       0.0655
  43 H16       0.7134    -8.4037    -3.6966  H       1  <O>11       0.0645
@<TRIPOS>BOND
     1     1     2    2
     2     2     3   am
     3     3     4    1
     4     4     5   ar
     5     5     6   ar
     6     6     7   ar
     7     7     8   ar
     8     8     9   ar
     9     4     9   ar
    10     9    10    1
    11     2    11    1
    12    11    12   ar
    13    12    13   ar
    14    13    14   ar
    15    14    15   ar
    16    15    16    1
    17    16    17    2
    18    16    18    2
    19    16    19    1
    20    19    20    1
    21    20    21   ar
    22    21    22   ar
    23    22    23   ar
    24    23    24   ar
    25    24    25   ar
    26    20    25   ar
    27    25    26    1
    28    15    27   ar
    29    11    27   ar
    30     3    28    1
    31    10    29    1
    32    19    30    1
    33    26    31    1
    34     5    32    1
    35     6    33    1
    36     7    34    1
    37     8    35    1
    38    12    36    1
    39    13    37    1
    40    14    38    1
    41    21    39    1
    42    22    40    1
    43    23    41    1
    44    24    42    1
    45    27    43    1
@<TRIPOS>MOLECULE
mol29_2_11
 43 45 0 0 0
SMALL
USER_CHARGES
****
VDW energy = 72.46
@<TRIPOS>ATOM
   1 O1        3.4420    -9.1855    -5.2979  O.2     1  <O>11      -0.2699
   2 C1        2.8552    -9.8129    -4.4288  C.2     1  <O>11       0.2484
   3 N1        3.5160   -10.1860    -3.2900  N.am    1  <O>11      -0.2786
   4 C2        4.8600    -9.8500    -3.1210  C.ar    1  <O>11       0.0756
   5 C3        5.8705   -10.7194    -3.5661  C.ar    1  <O>11      -0.0369
   6 C4        7.2173   -10.3872    -3.3866  C.ar    1  <O>11      -0.0598
   7 C5        7.5676    -9.1859    -2.7643  C.ar    1  <O>11      -0.0582
   8 C6        6.5614    -8.3169    -2.3273  C.ar    1  <O>11      -0.0183
   9 C7        5.2157    -8.6388    -2.5046  C.ar    1  <O>11       0.1380
  10 O2        4.2862    -7.8322    -2.1046  O.3     1  <O>11      -0.5049
  11 C8        1.4620   -10.1610    -4.6040  C.ar    1  <O>11       0.0389
  12 C9        0.8636    -9.9823    -5.8527  C.ar    1  <O>11      -0.0495
  13 C10      -0.4870   -10.3056    -6.0254  C.ar    1  <O>11      -0.0592
  14 C11      -1.2329   -10.8080    -4.9561  C.ar    1  <O>11      -0.0350
  15 C12      -0.6172   -10.9869    -3.7116  C.ar    1  <O>11       0.1092
  16 S1       -1.5620   -11.6210    -2.3688  S.O2    1  <O>11       0.0725
  17 O3       -1.4382   -13.2764    -2.3385  O.2     1  <O>11      -0.1500
  18 O4       -3.1540   -11.1884    -2.5595  O.2     1  <O>11      -0.1500
  19 N2       -0.9884   -10.9999    -0.9505  N.pl3   1  <O>11      -0.2127
  20 C13      -0.9897    -9.5654    -0.7330  C.ar    1  <O>11       0.0893
  21 C14      -0.9411    -8.6811    -1.8246  C.ar    1  <O>11      -0.0358
  22 C15      -0.9294    -7.2990    -1.6136  C.ar    1  <O>11      -0.0597
  23 C16      -0.9710    -6.7859    -0.3149  C.ar    1  <O>11      -0.0582
  24 C17      -1.0262    -7.6657     0.7721  C.ar    1  <O>11      -0.0183
  25 C18      -1.0386    -9.0466     0.5711  C.ar    1  <O>11       0.1391
  26 O5       -1.0963    -9.8596     1.5758  O.3     1  <O>11      -0.5049
  27 C19       0.7288   -10.6699    -3.5299  C.ar    1  <O>11      -0.0230
  28 H1        3.0270   -10.7100    -2.5640  H       1  <O>11       0.1552
  29 H2        3.4176    -8.2139    -2.3068  H       1  <O>11       0.2922
  30 H3       -0.6323   -11.6255    -0.2256  H       1  <O>11       0.1738
  31 H4       -1.0975   -10.7728     1.2536  H       1  <O>11       0.2922
  32 H5        5.6175   -11.6072    -4.0276  H       1  <O>11       0.0637
  33 H6        7.9543   -11.0310    -3.7146  H       1  <O>11       0.0618
  34 H7        8.5610    -8.9414    -2.6280  H       1  <O>11       0.0619
  35 H8        6.8176    -7.4284    -1.8690  H       1  <O>11       0.0655
  36 H9        1.4142    -9.6139    -6.6441  H       1  <O>11       0.0625
  37 H10      -0.9338   -10.1724    -6.9461  H       1  <O>11       0.0618
  38 H11      -2.2293   -11.0451    -5.0826  H       1  <O>11       0.0637
  39 H12      -0.9139    -9.0538    -2.7865  H       1  <O>11       0.0638
  40 H13      -0.8899    -6.6559    -2.4198  H       1  <O>11       0.0618
  41 H14      -0.9611    -5.7659    -0.1583  H       1  <O>11       0.0619
  42 H15      -1.0580    -7.2893     1.7325  H       1  <O>11       0.0655
  43 H16       1.1781   -10.8100    -2.6114  H       1  <O>11       0.0645
@<TRIPOS>BOND
     1     1     2    2
     2     2     3   am
     3     3     4    1
     4     4     5   ar
     5     5     6   ar
     6     6     7   ar
     7     7     8   ar
     8     8     9   ar
     9     4     9   ar
    10     9    10    1
    11     2    11    1
    12    11    12   ar
    13    12    13   ar
    14    13    14   ar
    15    14    15   ar
    16    15    16    1
    17    16    17    2
    18    16    18    2
    19    16    19    1
    20    19    20    1
    21    20    21   ar
    22    21    22   ar
    23    22    23   ar
    24    23    24   ar
    25    24    25   ar
    26    20    25   ar
    27    25    26    1
    28    15    27   ar
    29    11    27   ar
    30     3    28    1
    31    10    29    1
    32    19    30    1
    33    26    31    1
    34     5    32    1
    35     6    33    1
    36     7    34    1
    37     8    35    1
    38    12    36    1
    39    13    37    1
    40    14    38    1
    41    21    39    1
    42    22    40    1
    43    23    41    1
    44    24    42    1
    45    27    43    1
@<TRIPOS>MOLECULE
mol29_2_12
 43 45 0 0 0
SMALL
USER_CHARGES
****
VDW energy = 75.67
@<TRIPOS>ATOM
   1 O1        3.4420    -9.1855    -5.2979  O.2     1  <O>11      -0.2699
   2 C1        2.8552    -9.8129    -4.4288  C.2     1  <O>11       0.2484
   3 N1        3.5160   -10.1860    -3.2900  N.am    1  <O>11      -0.2786
   4 C2        4.8600    -9.8500    -3.1210  C.ar    1  <O>11       0.0756
   5 C3        5.2615    -9.0537    -2.0349  C.ar    1  <O>11      -0.0369
   6 C4        6.6071    -8.7081    -1.8721  C.ar    1  <O>11      -0.0598
   7 C5        7.5629    -9.1547    -2.7887  C.ar    1  <O>11      -0.0582
   8 C6        7.1641    -9.9535    -3.8664  C.ar    1  <O>11      -0.0183
   9 C7        5.8247   -10.3052    -4.0350  C.ar    1  <O>11       0.1380
  10 O2        5.4579   -11.0481    -5.0291  O.3     1  <O>11      -0.5049
  11 C8        1.4620   -10.1610    -4.6040  C.ar    1  <O>11       0.0389
  12 C9        0.8636    -9.9823    -5.8527  C.ar    1  <O>11      -0.0495
  13 C10      -0.4870   -10.3056    -6.0254  C.ar    1  <O>11      -0.0592
  14 C11      -1.2329   -10.8080    -4.9561  C.ar    1  <O>11      -0.0350
  15 C12      -0.6172   -10.9869    -3.7116  C.ar    1  <O>11       0.1092
  16 S1       -1.5620   -11.6210    -2.3688  S.O2    1  <O>11       0.0725
  17 O3       -1.4382   -13.2764    -2.3385  O.2     1  <O>11      -0.1500
  18 O4       -3.1540   -11.1884    -2.5595  O.2     1  <O>11      -0.1500
  19 N2       -0.9884   -10.9999    -0.9505  N.pl3   1  <O>11      -0.2127
  20 C13      -1.4047   -11.5750     0.3149  C.ar    1  <O>11       0.0893
  21 C14      -2.6374   -12.2422     0.4209  C.ar    1  <O>11      -0.0358
  22 C15      -3.0436   -12.7849     1.6437  C.ar    1  <O>11      -0.0597
  23 C16      -2.2242   -12.6722     2.7695  C.ar    1  <O>11      -0.0582
  24 C17      -0.9938   -12.0138     2.6630  C.ar    1  <O>11      -0.0183
  25 C18      -0.5800   -11.4693     1.4466  C.ar    1  <O>11       0.1391
  26 O5        0.5603   -10.8665     1.3468  O.3     1  <O>11      -0.5049
  27 C19       0.7288   -10.6699    -3.5299  C.ar    1  <O>11      -0.0230
  28 H1        3.0270   -10.7100    -2.5640  H       1  <O>11       0.1552
  29 H2        4.4991   -11.1903    -4.9901  H       1  <O>11       0.2922
  30 H3       -0.3402   -10.2104    -0.9634  H       1  <O>11       0.1738
  31 H4        0.6837   -10.5554     0.4381  H       1  <O>11       0.2922
  32 H5        4.5601    -8.7223    -1.3542  H       1  <O>11       0.0637
  33 H6        6.8948    -8.1218    -1.0730  H       1  <O>11       0.0618
  34 H7        8.5555    -8.8974    -2.6717  H       1  <O>11       0.0619
  35 H8        7.8683   -10.2859    -4.5436  H       1  <O>11       0.0655
  36 H9        1.4142    -9.6139    -6.6441  H       1  <O>11       0.0625
  37 H10      -0.9338   -10.1724    -6.9461  H       1  <O>11       0.0618
  38 H11      -2.2293   -11.0451    -5.0826  H       1  <O>11       0.0637
  39 H12      -3.2455   -12.3321    -0.4081  H       1  <O>11       0.0638
  40 H13      -3.9516   -13.2702     1.7148  H       1  <O>11       0.0618
  41 H14      -2.5239   -13.0714     3.6728  H       1  <O>11       0.0619
  42 H15      -0.3861   -11.9299     3.4929  H       1  <O>11       0.0655
  43 H16       1.1781   -10.8100    -2.6114  H       1  <O>11       0.0645
@<TRIPOS>BOND
     1     1     2    2
     2     2     3   am
     3     3     4    1
     4     4     5   ar
     5     5     6   ar
     6     6     7   ar
     7     7     8   ar
     8     8     9   ar
     9     4     9   ar
    10     9    10    1
    11     2    11    1
    12    11    12   ar
    13    12    13   ar
    14    13    14   ar
    15    14    15   ar
    16    15    16    1
    17    16    17    2
    18    16    18    2
    19    16    19    1
    20    19    20    1
    21    20    21   ar
    22    21    22   ar
    23    22    23   ar
    24    23    24   ar
    25    24    25   ar
    26    20    25   ar
    27    25    26    1
    28    15    27   ar
    29    11    27   ar
    30     3    28    1
    31    10    29    1
    32    19    30    1
    33    26    31    1
    34     5    32    1
    35     6    33    1
    36     7    34    1
    37     8    35    1
    38    12    36    1
    39    13    37    1
    40    14    38    1
    41    21    39    1
    42    22    40    1
    43    23    41    1
    44    24    42    1
    45    27    43    1
@<TRIPOS>MOLECULE
mol29_2_13
 43 45 0 0 0
SMALL
USER_CHARGES
****
VDW energy = 76.86
@<TRIPOS>ATOM
   1 O1        3.4420    -9.1855    -5.2979  O.2     1  <O>11      -0.2699
   2 C1        2.8552    -9.8129    -4.4288  C.2     1  <O>11       0.2484
   3 N1        3.5160   -10.1860    -3.2900  N.am    1  <O>11      -0.2786
   4 C2        4.8600    -9.8500    -3.1210  C.ar    1  <O>11       0.0756
   5 C3        5.2615    -9.0537    -2.0349  C.ar    1  <O>11      -0.0369
   6 C4        6.6071    -8.7081    -1.8721  C.ar    1  <O>11      -0.0598
   7 C5        7.5629    -9.1547    -2.7887  C.ar    1  <O>11      -0.0582
   8 C6        7.1641    -9.9535    -3.8664  C.ar    1  <O>11      -0.0183
   9 C7        5.8247   -10.3052    -4.0350  C.ar    1  <O>11       0.1380
  10 O2        5.4579   -11.0481    -5.0291  O.3     1  <O>11      -0.5049
  11 C8        1.4620   -10.1610    -4.6040  C.ar    1  <O>11       0.0389
  12 C9        1.0134   -11.4175    -4.1926  C.ar    1  <O>11      -0.0495
  13 C10      -0.3305   -11.7649    -4.3706  C.ar    1  <O>11      -0.0592
  14 C11      -1.2205   -10.8590    -4.9532  C.ar    1  <O>11      -0.0350
  15 C12      -0.7568    -9.6008    -5.3553  C.ar    1  <O>11       0.1092
  16 S1       -1.8831    -8.4638    -6.0878  S.O2    1  <O>11       0.0725
  17 O3       -2.5557    -7.5121    -4.9052  O.2     1  <O>11      -0.1500
  18 O4       -3.0830    -9.3017    -6.8729  O.2     1  <O>11      -0.1500
  19 N2       -1.0780    -7.5111    -7.1697  N.pl3   1  <O>11      -0.2127
  20 C13       0.0220    -6.6764    -6.7241  C.ar    1  <O>11       0.0893
  21 C14       0.0840    -6.2344    -5.3911  C.ar    1  <O>11      -0.0358
  22 C15       1.1375    -5.4196    -4.9658  C.ar    1  <O>11      -0.0597
  23 C16       2.1402    -5.0422    -5.8623  C.ar    1  <O>11      -0.0582
  24 C17       2.0827    -5.4874    -7.1879  C.ar    1  <O>11      -0.0183
  25 C18       1.0351    -6.3012    -7.6212  C.ar    1  <O>11       0.1391
  26 O5        0.9856    -6.7181    -8.8449  O.3     1  <O>11      -0.5049
  27 C19       0.5801    -9.2441    -5.1802  C.ar    1  <O>11      -0.0230
  28 H1        3.0270   -10.7100    -2.5640  H       1  <O>11       0.1552
  29 H2        4.4991   -11.1903    -4.9901  H       1  <O>11       0.2922
  30 H3       -1.3542    -7.5089    -8.1532  H       1  <O>11       0.1738
  31 H4        0.1981    -7.2681    -8.9680  H       1  <O>11       0.2922
  32 H5        4.5601    -8.7223    -1.3542  H       1  <O>11       0.0637
  33 H6        6.8948    -8.1218    -1.0730  H       1  <O>11       0.0618
  34 H7        8.5555    -8.8974    -2.6717  H       1  <O>11       0.0619
  35 H8        7.8683   -10.2859    -4.5436  H       1  <O>11       0.0655
  36 H9        1.6693   -12.0865    -3.7596  H       1  <O>11       0.0625
  37 H10      -0.6655   -12.6936    -4.0704  H       1  <O>11       0.0618
  38 H11      -2.2113   -11.1153    -5.0861  H       1  <O>11       0.0637
  39 H12      -0.6517    -6.5129    -4.7231  H       1  <O>11       0.0638
  40 H13       1.1745    -5.0960    -3.9866  H       1  <O>11       0.0618
  41 H14       2.9175    -4.4397    -5.5494  H       1  <O>11       0.0619
  42 H15       2.8227    -5.2109    -7.8519  H       1  <O>11       0.0655
  43 H16       0.9141    -8.3127    -5.4733  H       1  <O>11       0.0645
@<TRIPOS>BOND
     1     1     2    2
     2     2     3   am
     3     3     4    1
     4     4     5   ar
     5     5     6   ar
     6     6     7   ar
     7     7     8   ar
     8     8     9   ar
     9     4     9   ar
    10     9    10    1
    11     2    11    1
    12    11    12   ar
    13    12    13   ar
    14    13    14   ar
    15    14    15   ar
    16    15    16    1
    17    16    17    2
    18    16    18    2
    19    16    19    1
    20    19    20    1
    21    20    21   ar
    22    21    22   ar
    23    22    23   ar
    24    23    24   ar
    25    24    25   ar
    26    20    25   ar
    27    25    26    1
    28    15    27   ar
    29    11    27   ar
    30     3    28    1
    31    10    29    1
    32    19    30    1
    33    26    31    1
    34     5    32    1
    35     6    33    1
    36     7    34    1
    37     8    35    1
    38    12    36    1
    39    13    37    1
    40    14    38    1
    41    21    39    1
    42    22    40    1
    43    23    41    1
    44    24    42    1
    45    27    43    1
@<TRIPOS>MOLECULE
mol29_2_14
 43 45 0 0 0
SMALL
USER_CHARGES
****
VDW energy = 77.95
@<TRIPOS>ATOM
   1 O1        3.4420    -9.1855    -5.2979  O.2     1  <O>11      -0.2699
   2 C1        2.8552    -9.8129    -4.4288  C.2     1  <O>11       0.2484
   3 N1        3.5160   -10.1860    -3.2900  N.am    1  <O>11      -0.2786
   4 C2        4.8600    -9.8500    -3.1210  C.ar    1  <O>11       0.0756
   5 C3        5.2615    -9.0537    -2.0349  C.ar    1  <O>11      -0.0369
   6 C4        6.6071    -8.7081    -1.8721  C.ar    1  <O>11      -0.0598
   7 C5        7.5629    -9.1547    -2.7887  C.ar    1  <O>11      -0.0582
   8 C6        7.1641    -9.9535    -3.8664  C.ar    1  <O>11      -0.0183
   9 C7        5.8247   -10.3052    -4.0350  C.ar    1  <O>11       0.1380
  10 O2        5.4579   -11.0481    -5.0291  O.3     1  <O>11      -0.5049
  11 C8        1.4620   -10.1610    -4.6040  C.ar    1  <O>11       0.0389
  12 C9        0.8636    -9.9823    -5.8527  C.ar    1  <O>11      -0.0495
  13 C10      -0.4870   -10.3056    -6.0254  C.ar    1  <O>11      -0.0592
  14 C11      -1.2329   -10.8080    -4.9561  C.ar    1  <O>11      -0.0350
  15 C12      -0.6172   -10.9869    -3.7116  C.ar    1  <O>11       0.1092
  16 S1       -1.5620   -11.6210    -2.3688  S.O2    1  <O>11       0.0725
  17 O3       -1.4382   -13.2764    -2.3385  O.2     1  <O>11      -0.1500
  18 O4       -3.1540   -11.1884    -2.5595  O.2     1  <O>11      -0.1500
  19 N2       -0.9884   -10.9999    -0.9505  N.pl3   1  <O>11      -0.2127
  20 C13      -0.9897    -9.5654    -0.7330  C.ar    1  <O>11       0.0893
  21 C14      -0.9411    -8.6811    -1.8246  C.ar    1  <O>11      -0.0358
  22 C15      -0.9294    -7.2990    -1.6136  C.ar    1  <O>11      -0.0597
  23 C16      -0.9710    -6.7859    -0.3149  C.ar    1  <O>11      -0.0582
  24 C17      -1.0262    -7.6657     0.7721  C.ar    1  <O>11      -0.0183
  25 C18      -1.0386    -9.0466     0.5711  C.ar    1  <O>11       0.1391
  26 O5       -1.0963    -9.8596     1.5758  O.3     1  <O>11      -0.5049
  27 C19       0.7288   -10.6699    -3.5299  C.ar    1  <O>11      -0.0230
  28 H1        3.0270   -10.7100    -2.5640  H       1  <O>11       0.1552
  29 H2        4.4991   -11.1903    -4.9901  H       1  <O>11       0.2922
  30 H3       -0.6323   -11.6255    -0.2256  H       1  <O>11       0.1738
  31 H4       -1.0975   -10.7728     1.2536  H       1  <O>11       0.2922
  32 H5        4.5601    -8.7223    -1.3542  H       1  <O>11       0.0637
  33 H6        6.8948    -8.1218    -1.0730  H       1  <O>11       0.0618
  34 H7        8.5555    -8.8974    -2.6717  H       1  <O>11       0.0619
  35 H8        7.8683   -10.2859    -4.5436  H       1  <O>11       0.0655
  36 H9        1.4142    -9.6139    -6.6441  H       1  <O>11       0.0625
  37 H10      -0.9338   -10.1724    -6.9461  H       1  <O>11       0.0618
  38 H11      -2.2293   -11.0451    -5.0826  H       1  <O>11       0.0637
  39 H12      -0.9139    -9.0538    -2.7865  H       1  <O>11       0.0638
  40 H13      -0.8899    -6.6559    -2.4198  H       1  <O>11       0.0618
  41 H14      -0.9611    -5.7659    -0.1583  H       1  <O>11       0.0619
  42 H15      -1.0580    -7.2893     1.7325  H       1  <O>11       0.0655
  43 H16       1.1781   -10.8100    -2.6114  H       1  <O>11       0.0645
@<TRIPOS>BOND
     1     1     2    2
     2     2     3   am
     3     3     4    1
     4     4     5   ar
     5     5     6   ar
     6     6     7   ar
     7     7     8   ar
     8     8     9   ar
     9     4     9   ar
    10     9    10    1
    11     2    11    1
    12    11    12   ar
    13    12    13   ar
    14    13    14   ar
    15    14    15   ar
    16    15    16    1
    17    16    17    2
    18    16    18    2
    19    16    19    1
    20    19    20    1
    21    20    21   ar
    22    21    22   ar
    23    22    23   ar
    24    23    24   ar
    25    24    25   ar
    26    20    25   ar
    27    25    26    1
    28    15    27   ar
    29    11    27   ar
    30     3    28    1
    31    10    29    1
    32    19    30    1
    33    26    31    1
    34     5    32    1
    35     6    33    1
    36     7    34    1
    37     8    35    1
    38    12    36    1
    39    13    37    1
    40    14    38    1
    41    21    39    1
    42    22    40    1
    43    23    41    1
    44    24    42    1
    45    27    43    1
@<TRIPOS>MOLECULE
mol29_2_15
 43 45 0 0 0
SMALL
USER_CHARGES
****
VDW energy = 84.78
@<TRIPOS>ATOM
   1 O1        3.4420    -9.1855    -5.2979  O.2     1  <O>11      -0.2699
   2 C1        2.8552    -9.8129    -4.4288  C.2     1  <O>11       0.2484
   3 N1        3.5160   -10.1860    -3.2900  N.am    1  <O>11      -0.2786
   4 C2        4.8600    -9.8500    -3.1210  C.ar    1  <O>11       0.0756
   5 C3        5.6431    -9.4775    -4.2269  C.ar    1  <O>11      -0.0369
   6 C4        6.9929    -9.1515    -4.0586  C.ar    1  <O>11      -0.0598
   7 C5        7.5721    -9.1921    -2.7873  C.ar    1  <O>11      -0.0582
   8 C6        6.7905    -9.5563    -1.6850  C.ar    1  <O>11      -0.0183
   9 C7        5.4429    -9.8804    -1.8432  C.ar    1  <O>11       0.1380
  10 O2        4.7199   -10.2121    -0.8225  O.3     1  <O>11      -0.5049
  11 C8        1.4620   -10.1610    -4.6040  C.ar    1  <O>11       0.0389
  12 C9        0.4750    -9.2817    -4.1546  C.ar    1  <O>11      -0.0495
  13 C10      -0.8745    -9.6183    -4.3101  C.ar    1  <O>11      -0.0592
  14 C11      -1.2337   -10.8255    -4.9148  C.ar    1  <O>11      -0.0350
  15 C12      -0.2326   -11.6941    -5.3653  C.ar    1  <O>11       0.1092
  16 S1       -0.6916   -13.2129    -6.1270  S.O2    1  <O>11       0.0725
  17 O3       -0.8270   -12.9906    -7.7667  O.2     1  <O>11      -0.1500
  18 O4       -2.1497   -13.7203    -5.5150  O.2     1  <O>11      -0.1500
  19 N2        0.4619   -14.3537    -5.8194  N.pl3   1  <O>11      -0.2127
  20 C13       0.7674   -14.7266    -4.4509  C.ar    1  <O>11       0.0893
  21 C14       2.0294   -14.4413    -3.9015  C.ar    1  <O>11      -0.0358
  22 C15       2.3274   -14.8125    -2.5869  C.ar    1  <O>11      -0.0597
  23 C16       1.3702   -15.4660    -1.8070  C.ar    1  <O>11      -0.0582
  24 C17       0.1112   -15.7444    -2.3512  C.ar    1  <O>11      -0.0183
  25 C18      -0.1952   -15.3774    -3.6623  C.ar    1  <O>11       0.1391
  26 O5       -1.3612   -15.6289    -4.1630  O.3     1  <O>11      -0.5049
  27 C19       1.1151   -11.3668    -5.2172  C.ar    1  <O>11      -0.0230
  28 H1        3.0270   -10.7100    -2.5640  H       1  <O>11       0.1552
  29 H2        3.8152   -10.4036    -1.1155  H       1  <O>11       0.2922
  30 H3        0.9608   -14.7973    -6.5926  H       1  <O>11       0.1738
  31 H4       -1.3984   -15.3060    -5.0752  H       1  <O>11       0.2922
  32 H5        5.2202    -9.4444    -5.1677  H       1  <O>11       0.0637
  33 H6        7.5625    -8.8802    -4.8752  H       1  <O>11       0.0618
  34 H7        8.5688    -8.9553    -2.6624  H       1  <O>11       0.0619
  35 H8        7.2155    -9.5854    -0.7450  H       1  <O>11       0.0655
  36 H9        0.7391    -8.3884    -3.7103  H       1  <O>11       0.0625
  37 H10      -1.6070    -8.9723    -3.9769  H       1  <O>11       0.0618
  38 H11      -2.2287   -11.0748    -5.0282  H       1  <O>11       0.0637
  39 H12       2.7396   -13.9554    -4.4714  H       1  <O>11       0.0638
  40 H13       3.2574   -14.6030    -2.1915  H       1  <O>11       0.0618
  41 H14       1.5898   -15.7415    -0.8370  H       1  <O>11       0.0619
  42 H15      -0.5980   -16.2262    -1.7769  H       1  <O>11       0.0655
  43 H16       1.8481   -12.0089    -5.5570  H       1  <O>11       0.0645
@<TRIPOS>BOND
     1     1     2    2
     2     2     3   am
     3     3     4    1
     4     4     5   ar
     5     5     6   ar
     6     6     7   ar
     7     7     8   ar
     8     8     9   ar
     9     4     9   ar
    10     9    10    1
    11     2    11    1
    12    11    12   ar
    13    12    13   ar
    14    13    14   ar
    15    14    15   ar
    16    15    16    1
    17    16    17    2
    18    16    18    2
    19    16    19    1
    20    19    20    1
    21    20    21   ar
    22    21    22   ar
    23    22    23   ar
    24    23    24   ar
    25    24    25   ar
    26    20    25   ar
    27    25    26    1
    28    15    27   ar
    29    11    27   ar
    30     3    28    1
    31    10    29    1
    32    19    30    1
    33    26    31    1
    34     5    32    1
    35     6    33    1
    36     7    34    1
    37     8    35    1
    38    12    36    1
    39    13    37    1
    40    14    38    1
    41    21    39    1
    42    22    40    1
    43    23    41    1
    44    24    42    1
    45    27    43    1
@<TRIPOS>MOLECULE
mol29_2_16
 43 45 0 0 0
SMALL
USER_CHARGES
****
VDW energy = 86.62
@<TRIPOS>ATOM
   1 O1        3.4420    -9.1855    -5.2979  O.2     1  <O>11      -0.2699
   2 C1        2.8552    -9.8129    -4.4288  C.2     1  <O>11       0.2484
   3 N1        3.5160   -10.1860    -3.2900  N.am    1  <O>11      -0.2786
   4 C2        4.8600    -9.8500    -3.1210  C.ar    1  <O>11       0.0756
   5 C3        5.6431    -9.4775    -4.2269  C.ar    1  <O>11      -0.0369
   6 C4        6.9929    -9.1515    -4.0586  C.ar    1  <O>11      -0.0598
   7 C5        7.5721    -9.1921    -2.7873  C.ar    1  <O>11      -0.0582
   8 C6        6.7905    -9.5563    -1.6850  C.ar    1  <O>11      -0.0183
   9 C7        5.4429    -9.8804    -1.8432  C.ar    1  <O>11       0.1380
  10 O2        4.7199   -10.2121    -0.8225  O.3     1  <O>11      -0.5049
  11 C8        1.4620   -10.1610    -4.6040  C.ar    1  <O>11       0.0389
  12 C9        1.0134   -11.4175    -4.1926  C.ar    1  <O>11      -0.0495
  13 C10      -0.3305   -11.7649    -4.3706  C.ar    1  <O>11      -0.0592
  14 C11      -1.2205   -10.8590    -4.9532  C.ar    1  <O>11      -0.0350
  15 C12      -0.7568    -9.6008    -5.3553  C.ar    1  <O>11       0.1092
  16 S1       -1.8831    -8.4638    -6.0878  S.O2    1  <O>11       0.0725
  17 O3       -2.5557    -7.5121    -4.9052  O.2     1  <O>11      -0.1500
  18 O4       -3.0830    -9.3017    -6.8729  O.2     1  <O>11      -0.1500
  19 N2       -1.0780    -7.5111    -7.1697  N.pl3   1  <O>11      -0.2127
  20 C13      -0.4008    -8.1124    -8.3032  C.ar    1  <O>11       0.0893
  21 C14       0.9997    -8.0516    -8.4084  C.ar    1  <O>11      -0.0358
  22 C15       1.6505    -8.6201    -9.5075  C.ar    1  <O>11      -0.0597
  23 C16       0.9133    -9.2579   -10.5081  C.ar    1  <O>11      -0.0582
  24 C17      -0.4805    -9.3247   -10.4007  C.ar    1  <O>11      -0.0183
  25 C18      -1.1386    -8.7604    -9.3071  C.ar    1  <O>11       0.1391
  26 O5       -2.4265    -8.8280    -9.2046  O.3     1  <O>11      -0.5049
  27 C19       0.5801    -9.2441    -5.1802  C.ar    1  <O>11      -0.0230
  28 H1        3.0270   -10.7100    -2.5640  H       1  <O>11       0.1552
  29 H2        3.8152   -10.4036    -1.1155  H       1  <O>11       0.2922
  30 H3       -1.0564    -6.4979    -7.0413  H       1  <O>11       0.1738
  31 H4       -2.7099    -8.3888    -8.3895  H       1  <O>11       0.2922
  32 H5        5.2202    -9.4444    -5.1677  H       1  <O>11       0.0637
  33 H6        7.5625    -8.8802    -4.8752  H       1  <O>11       0.0618
  34 H7        8.5688    -8.9553    -2.6624  H       1  <O>11       0.0619
  35 H8        7.2155    -9.5854    -0.7450  H       1  <O>11       0.0655
  36 H9        1.6693   -12.0865    -3.7596  H       1  <O>11       0.0625
  37 H10      -0.6655   -12.6936    -4.0704  H       1  <O>11       0.0618
  38 H11      -2.2113   -11.1153    -5.0861  H       1  <O>11       0.0637
  39 H12       1.5502    -7.5850    -7.6706  H       1  <O>11       0.0638
  40 H13       2.6787    -8.5683    -9.5797  H       1  <O>11       0.0618
  41 H14       1.3928    -9.6767   -11.3203  H       1  <O>11       0.0619
  42 H15      -1.0274    -9.7962   -11.1380  H       1  <O>11       0.0655
  43 H16       0.9141    -8.3127    -5.4733  H       1  <O>11       0.0645
@<TRIPOS>BOND
     1     1     2    2
     2     2     3   am
     3     3     4    1
     4     4     5   ar
     5     5     6   ar
     6     6     7   ar
     7     7     8   ar
     8     8     9   ar
     9     4     9   ar
    10     9    10    1
    11     2    11    1
    12    11    12   ar
    13    12    13   ar
    14    13    14   ar
    15    14    15   ar
    16    15    16    1
    17    16    17    2
    18    16    18    2
    19    16    19    1
    20    19    20    1
    21    20    21   ar
    22    21    22   ar
    23    22    23   ar
    24    23    24   ar
    25    24    25   ar
    26    20    25   ar
    27    25    26    1
    28    15    27   ar
    29    11    27   ar
    30     3    28    1
    31    10    29    1
    32    19    30    1
    33    26    31    1
    34     5    32    1
    35     6    33    1
    36     7    34    1
    37     8    35    1
    38    12    36    1
    39    13    37    1
    40    14    38    1
    41    21    39    1
    42    22    40    1
    43    23    41    1
    44    24    42    1
    45    27    43    1
@<TRIPOS>MOLECULE
mol29_2_17
 43 45 0 0 0
SMALL
USER_CHARGES
****
VDW energy = 88.76
@<TRIPOS>ATOM
   1 O1        3.4420    -9.1855    -5.2979  O.2     1  <O>11      -0.2699
   2 C1        2.8552    -9.8129    -4.4288  C.2     1  <O>11       0.2484
   3 N1        3.5160   -10.1860    -3.2900  N.am    1  <O>11      -0.2786
   4 C2        4.8600    -9.8500    -3.1210  C.ar    1  <O>11       0.0756
   5 C3        5.6431    -9.4775    -4.2269  C.ar    1  <O>11      -0.0369
   6 C4        6.9929    -9.1515    -4.0586  C.ar    1  <O>11      -0.0598
   7 C5        7.5721    -9.1921    -2.7873  C.ar    1  <O>11      -0.0582
   8 C6        6.7905    -9.5563    -1.6850  C.ar    1  <O>11      -0.0183
   9 C7        5.4429    -9.8804    -1.8432  C.ar    1  <O>11       0.1380
  10 O2        4.7199   -10.2121    -0.8225  O.3     1  <O>11      -0.5049
  11 C8        1.4620   -10.1610    -4.6040  C.ar    1  <O>11       0.0389
  12 C9        1.1306   -11.3698    -5.2192  C.ar    1  <O>11      -0.0495
  13 C10      -0.2153   -11.7066    -5.4026  C.ar    1  <O>11      -0.0592
  14 C11      -1.2229   -10.8409    -4.9699  C.ar    1  <O>11      -0.0350
  15 C12      -0.8747    -9.6351    -4.3496  C.ar    1  <O>11       0.1092
  16 S1       -2.1487    -8.5493    -3.8059  S.O2    1  <O>11       0.0725
  17 O3       -2.5439    -8.9042    -2.2329  O.2     1  <O>11      -0.1500
  18 O4       -3.4876    -8.7408    -4.7696  O.2     1  <O>11      -0.1500
  19 N2       -1.6196    -6.9881    -3.9019  N.pl3   1  <O>11      -0.2127
  20 C13      -2.3672    -5.9271    -3.2534  C.ar    1  <O>11       0.0893
  21 C14      -2.9946    -4.9293    -4.0194  C.ar    1  <O>11      -0.0358
  22 C15      -3.7039    -3.9000    -3.3932  C.ar    1  <O>11      -0.0597
  23 C16      -3.7987    -3.8582    -2.0001  C.ar    1  <O>11      -0.0582
  24 C17      -3.1799    -4.8550    -1.2372  C.ar    1  <O>11      -0.0183
  25 C18      -2.4701    -5.8864    -1.8535  C.ar    1  <O>11       0.1391
  26 O5       -1.9037    -6.8114    -1.1484  O.3     1  <O>11      -0.5049
  27 C19       0.4636    -9.2913    -4.1600  C.ar    1  <O>11      -0.0230
  28 H1        3.0270   -10.7100    -2.5640  H       1  <O>11       0.1552
  29 H2        3.8152   -10.4036    -1.1155  H       1  <O>11       0.2922
  30 H3       -0.7657    -6.7688    -4.4179  H       1  <O>11       0.1738
  31 H4       -1.4606    -7.4408    -1.7359  H       1  <O>11       0.2922
  32 H5        5.2202    -9.4444    -5.1677  H       1  <O>11       0.0637
  33 H6        7.5625    -8.8802    -4.8752  H       1  <O>11       0.0618
  34 H7        8.5688    -8.9553    -2.6624  H       1  <O>11       0.0619
  35 H8        7.2155    -9.5854    -0.7450  H       1  <O>11       0.0655
  36 H9        1.8739   -12.0113    -5.5368  H       1  <O>11       0.0625
  37 H10      -0.4644   -12.5978    -5.8593  H       1  <O>11       0.0618
  38 H11      -2.2155   -11.0882    -5.1063  H       1  <O>11       0.0637
  39 H12      -2.9314    -4.9567    -5.0491  H       1  <O>11       0.0638
  40 H13      -4.1589    -3.1688    -3.9620  H       1  <O>11       0.0618
  41 H14      -4.3210    -3.0980    -1.5371  H       1  <O>11       0.0619
  42 H15      -3.2492    -4.8270    -0.2078  H       1  <O>11       0.0655
  43 H16       0.7134    -8.4037    -3.6966  H       1  <O>11       0.0645
@<TRIPOS>BOND
     1     1     2    2
     2     2     3   am
     3     3     4    1
     4     4     5   ar
     5     5     6   ar
     6     6     7   ar
     7     7     8   ar
     8     8     9   ar
     9     4     9   ar
    10     9    10    1
    11     2    11    1
    12    11    12   ar
    13    12    13   ar
    14    13    14   ar
    15    14    15   ar
    16    15    16    1
    17    16    17    2
    18    16    18    2
    19    16    19    1
    20    19    20    1
    21    20    21   ar
    22    21    22   ar
    23    22    23   ar
    24    23    24   ar
    25    24    25   ar
    26    20    25   ar
    27    25    26    1
    28    15    27   ar
    29    11    27   ar
    30     3    28    1
    31    10    29    1
    32    19    30    1
    33    26    31    1
    34     5    32    1
    35     6    33    1
    36     7    34    1
    37     8    35    1
    38    12    36    1
    39    13    37    1
    40    14    38    1
    41    21    39    1
    42    22    40    1
    43    23    41    1
    44    24    42    1
    45    27    43    1
@<TRIPOS>MOLECULE
mol29_2_18
 43 45 0 0 0
SMALL
USER_CHARGES
****
VDW energy = 89.91
@<TRIPOS>ATOM
   1 O1        3.4420    -9.1855    -5.2979  O.2     1  <O>11      -0.2699
   2 C1        2.8552    -9.8129    -4.4288  C.2     1  <O>11       0.2484
   3 N1        3.5160   -10.1860    -3.2900  N.am    1  <O>11      -0.2786
   4 C2        4.8600    -9.8500    -3.1210  C.ar    1  <O>11       0.0756
   5 C3        5.6431    -9.4775    -4.2269  C.ar    1  <O>11      -0.0369
   6 C4        6.9929    -9.1515    -4.0586  C.ar    1  <O>11      -0.0598
   7 C5        7.5721    -9.1921    -2.7873  C.ar    1  <O>11      -0.0582
   8 C6        6.7905    -9.5563    -1.6850  C.ar    1  <O>11      -0.0183
   9 C7        5.4429    -9.8804    -1.8432  C.ar    1  <O>11       0.1380
  10 O2        4.7199   -10.2121    -0.8225  O.3     1  <O>11      -0.5049
  11 C8        1.4620   -10.1610    -4.6040  C.ar    1  <O>11       0.0389
  12 C9        1.1306   -11.3698    -5.2192  C.ar    1  <O>11      -0.0495
  13 C10      -0.2153   -11.7066    -5.4026  C.ar    1  <O>11      -0.0592
  14 C11      -1.2229   -10.8409    -4.9699  C.ar    1  <O>11      -0.0350
  15 C12      -0.8747    -9.6351    -4.3496  C.ar    1  <O>11       0.1092
  16 S1       -2.1487    -8.5493    -3.8059  S.O2    1  <O>11       0.0725
  17 O3       -1.4691    -7.2035    -3.1107  O.2     1  <O>11      -0.1500
  18 O4       -3.1003    -9.3281    -2.6896  O.2     1  <O>11      -0.1500
  19 N2       -3.0730    -8.0951    -5.0966  N.pl3   1  <O>11      -0.2127
  20 C13      -2.4670    -7.3929    -6.2122  C.ar    1  <O>11       0.0893
  21 C14      -1.0934    -7.0941    -6.2022  C.ar    1  <O>11      -0.0358
  22 C15      -0.5128    -6.4061    -7.2718  C.ar    1  <O>11      -0.0597
  23 C16      -1.2933    -6.0143    -8.3622  C.ar    1  <O>11      -0.0582
  24 C17      -2.6595    -6.3173    -8.3758  C.ar    1  <O>11      -0.0183
  25 C18      -3.2477    -7.0040    -7.3128  C.ar    1  <O>11       0.1391
  26 O5       -4.5093    -7.2898    -7.3287  O.3     1  <O>11      -0.5049
  27 C19       0.4636    -9.2913    -4.1600  C.ar    1  <O>11      -0.0230
  28 H1        3.0270   -10.7100    -2.5640  H       1  <O>11       0.1552
  29 H2        3.8152   -10.4036    -1.1155  H       1  <O>11       0.2922
  30 H3       -4.0720    -8.3084    -5.1099  H       1  <O>11       0.1738
  31 H4       -4.7438    -7.7652    -6.5183  H       1  <O>11       0.2922
  32 H5        5.2202    -9.4444    -5.1677  H       1  <O>11       0.0637
  33 H6        7.5625    -8.8802    -4.8752  H       1  <O>11       0.0618
  34 H7        8.5688    -8.9553    -2.6624  H       1  <O>11       0.0619
  35 H8        7.2155    -9.5854    -0.7450  H       1  <O>11       0.0655
  36 H9        1.8739   -12.0113    -5.5368  H       1  <O>11       0.0625
  37 H10      -0.4644   -12.5978    -5.8593  H       1  <O>11       0.0618
  38 H11      -2.2155   -11.0882    -5.1063  H       1  <O>11       0.0637
  39 H12      -0.5108    -7.3841    -5.4013  H       1  <O>11       0.0638
  40 H13       0.4956    -6.1870    -7.2558  H       1  <O>11       0.0618
  41 H14      -0.8656    -5.5052    -9.1515  H       1  <O>11       0.0619
  42 H15      -3.2382    -6.0299    -9.1806  H       1  <O>11       0.0655
  43 H16       0.7134    -8.4037    -3.6966  H       1  <O>11       0.0645
@<TRIPOS>BOND
     1     1     2    2
     2     2     3   am
     3     3     4    1
     4     4     5   ar
     5     5     6   ar
     6     6     7   ar
     7     7     8   ar
     8     8     9   ar
     9     4     9   ar
    10     9    10    1
    11     2    11    1
    12    11    12   ar
    13    12    13   ar
    14    13    14   ar
    15    14    15   ar
    16    15    16    1
    17    16    17    2
    18    16    18    2
    19    16    19    1
    20    19    20    1
    21    20    21   ar
    22    21    22   ar
    23    22    23   ar
    24    23    24   ar
    25    24    25   ar
    26    20    25   ar
    27    25    26    1
    28    15    27   ar
    29    11    27   ar
    30     3    28    1
    31    10    29    1
    32    19    30    1
    33    26    31    1
    34     5    32    1
    35     6    33    1
    36     7    34    1
    37     8    35    1
    38    12    36    1
    39    13    37    1
    40    14    38    1
    41    21    39    1
    42    22    40    1
    43    23    41    1
    44    24    42    1
    45    27    43    1
@<TRIPOS>MOLECULE
mol29_2_19
 43 45 0 0 0
SMALL
USER_CHARGES
****
VDW energy = 90.51
@<TRIPOS>ATOM
   1 O1        3.4420    -9.1855    -5.2979  O.2     1  <O>11      -0.2699
   2 C1        2.8552    -9.8129    -4.4288  C.2     1  <O>11       0.2484
   3 N1        3.5160   -10.1860    -3.2900  N.am    1  <O>11      -0.2786
   4 C2        4.8600    -9.8500    -3.1210  C.ar    1  <O>11       0.0756
   5 C3        5.6431    -9.4775    -4.2269  C.ar    1  <O>11      -0.0369
   6 C4        6.9929    -9.1515    -4.0586  C.ar    1  <O>11      -0.0598
   7 C5        7.5721    -9.1921    -2.7873  C.ar    1  <O>11      -0.0582
   8 C6        6.7905    -9.5563    -1.6850  C.ar    1  <O>11      -0.0183
   9 C7        5.4429    -9.8804    -1.8432  C.ar    1  <O>11       0.1380
  10 O2        4.7199   -10.2121    -0.8225  O.3     1  <O>11      -0.5049
  11 C8        1.4620   -10.1610    -4.6040  C.ar    1  <O>11       0.0389
  12 C9        1.0134   -11.4175    -4.1926  C.ar    1  <O>11      -0.0495
  13 C10      -0.3305   -11.7649    -4.3706  C.ar    1  <O>11      -0.0592
  14 C11      -1.2205   -10.8590    -4.9532  C.ar    1  <O>11      -0.0350
  15 C12      -0.7568    -9.6008    -5.3553  C.ar    1  <O>11       0.1092
  16 S1       -1.8831    -8.4638    -6.0878  S.O2    1  <O>11       0.0725
  17 O3       -2.5557    -7.5121    -4.9052  O.2     1  <O>11      -0.1500
  18 O4       -3.0830    -9.3017    -6.8729  O.2     1  <O>11      -0.1500
  19 N2       -1.0780    -7.5111    -7.1697  N.pl3   1  <O>11      -0.2127
  20 C13      -1.7110    -6.3168    -7.6970  C.ar    1  <O>11       0.0893
  21 C14      -2.0359    -6.2282    -9.0617  C.ar    1  <O>11      -0.0358
  22 C15      -2.6342    -5.0719    -9.5715  C.ar    1  <O>11      -0.0597
  23 C16      -2.9183    -3.9965    -8.7263  C.ar    1  <O>11      -0.0582
  24 C17      -2.6011    -4.0866    -7.3661  C.ar    1  <O>11      -0.0183
  25 C18      -2.0042    -5.2369    -6.8485  C.ar    1  <O>11       0.1391
  26 O5       -1.7171    -5.3226    -5.5899  O.3     1  <O>11      -0.5049
  27 C19       0.5801    -9.2441    -5.1802  C.ar    1  <O>11      -0.0230
  28 H1        3.0270   -10.7100    -2.5640  H       1  <O>11       0.1552
  29 H2        3.8152   -10.4036    -1.1155  H       1  <O>11       0.2922
  30 H3       -0.1339    -7.7623    -7.4682  H       1  <O>11       0.1738
  31 H4       -1.3129    -6.1835    -5.4079  H       1  <O>11       0.2922
  32 H5        5.2202    -9.4444    -5.1677  H       1  <O>11       0.0637
  33 H6        7.5625    -8.8802    -4.8752  H       1  <O>11       0.0618
  34 H7        8.5688    -8.9553    -2.6624  H       1  <O>11       0.0619
  35 H8        7.2155    -9.5854    -0.7450  H       1  <O>11       0.0655
  36 H9        1.6693   -12.0865    -3.7596  H       1  <O>11       0.0625
  37 H10      -0.6655   -12.6936    -4.0704  H       1  <O>11       0.0618
  38 H11      -2.2113   -11.1153    -5.0861  H       1  <O>11       0.0637
  39 H12      -1.8320    -7.0207    -9.6906  H       1  <O>11       0.0638
  40 H13      -2.8666    -5.0127   -10.5752  H       1  <O>11       0.0618
  41 H14      -3.3587    -3.1422    -9.1020  H       1  <O>11       0.0619
  42 H15      -2.8108    -3.2940    -6.7393  H       1  <O>11       0.0655
  43 H16       0.9141    -8.3127    -5.4733  H       1  <O>11       0.0645
@<TRIPOS>BOND
     1     1     2    2
     2     2     3   am
     3     3     4    1
     4     4     5   ar
     5     5     6   ar
     6     6     7   ar
     7     7     8   ar
     8     8     9   ar
     9     4     9   ar
    10     9    10    1
    11     2    11    1
    12    11    12   ar
    13    12    13   ar
    14    13    14   ar
    15    14    15   ar
    16    15    16    1
    17    16    17    2
    18    16    18    2
    19    16    19    1
    20    19    20    1
    21    20    21   ar
    22    21    22   ar
    23    22    23   ar
    24    23    24   ar
    25    24    25   ar
    26    20    25   ar
    27    25    26    1
    28    15    27   ar
    29    11    27   ar
    30     3    28    1
    31    10    29    1
    32    19    30    1
    33    26    31    1
    34     5    32    1
    35     6    33    1
    36     7    34    1
    37     8    35    1
    38    12    36    1
    39    13    37    1
    40    14    38    1
    41    21    39    1
    42    22    40    1
    43    23    41    1
    44    24    42    1
    45    27    43    1
@<TRIPOS>MOLECULE
mol29_2_20
 43 45 0 0 0
SMALL
USER_CHARGES
****
VDW energy = 90.53
@<TRIPOS>ATOM
   1 O1        3.4420    -9.1855    -5.2979  O.2     1  <O>11      -0.2699
   2 C1        2.8552    -9.8129    -4.4288  C.2     1  <O>11       0.2484
   3 N1        3.5160   -10.1860    -3.2900  N.am    1  <O>11      -0.2786
   4 C2        4.8600    -9.8500    -3.1210  C.ar    1  <O>11       0.0756
   5 C3        5.6431    -9.4775    -4.2269  C.ar    1  <O>11      -0.0369
   6 C4        6.9929    -9.1515    -4.0586  C.ar    1  <O>11      -0.0598
   7 C5        7.5721    -9.1921    -2.7873  C.ar    1  <O>11      -0.0582
   8 C6        6.7905    -9.5563    -1.6850  C.ar    1  <O>11      -0.0183
   9 C7        5.4429    -9.8804    -1.8432  C.ar    1  <O>11       0.1380
  10 O2        4.7199   -10.2121    -0.8225  O.3     1  <O>11      -0.5049
  11 C8        1.4620   -10.1610    -4.6040  C.ar    1  <O>11       0.0389
  12 C9        0.4750    -9.2817    -4.1546  C.ar    1  <O>11      -0.0495
  13 C10      -0.8745    -9.6183    -4.3101  C.ar    1  <O>11      -0.0592
  14 C11      -1.2337   -10.8255    -4.9148  C.ar    1  <O>11      -0.0350
  15 C12      -0.2326   -11.6941    -5.3653  C.ar    1  <O>11       0.1092
  16 S1       -0.6916   -13.2129    -6.1270  S.O2    1  <O>11       0.0725
  17 O3       -0.8270   -12.9906    -7.7667  O.2     1  <O>11      -0.1500
  18 O4       -2.1497   -13.7203    -5.5150  O.2     1  <O>11      -0.1500
  19 N2        0.4619   -14.3537    -5.8194  N.pl3   1  <O>11      -0.2127
  20 C13       0.4658   -15.6006    -6.5614  C.ar    1  <O>11       0.0893
  21 C14       0.2132   -16.8183    -5.9060  C.ar    1  <O>11      -0.0358
  22 C15       0.2299   -18.0206    -6.6193  C.ar    1  <O>11      -0.0597
  23 C16       0.4932   -18.0203    -7.9913  C.ar    1  <O>11      -0.0582
  24 C17       0.7382   -16.8076    -8.6456  C.ar    1  <O>11      -0.0183
  25 C18       0.7233   -15.6027    -7.9419  C.ar    1  <O>11       0.1391
  26 O5        0.9432   -14.4812    -8.5481  O.3     1  <O>11      -0.5049
  27 C19       1.1151   -11.3668    -5.2172  C.ar    1  <O>11      -0.0230
  28 H1        3.0270   -10.7100    -2.5640  H       1  <O>11       0.1552
  29 H2        3.8152   -10.4036    -1.1155  H       1  <O>11       0.2922
  30 H3        1.1731   -14.1820    -5.1065  H       1  <O>11       0.1738
  31 H4        0.8933   -13.7535    -7.9111  H       1  <O>11       0.2922
  32 H5        5.2202    -9.4444    -5.1677  H       1  <O>11       0.0637
  33 H6        7.5625    -8.8802    -4.8752  H       1  <O>11       0.0618
  34 H7        8.5688    -8.9553    -2.6624  H       1  <O>11       0.0619
  35 H8        7.2155    -9.5854    -0.7450  H       1  <O>11       0.0655
  36 H9        0.7391    -8.3884    -3.7103  H       1  <O>11       0.0625
  37 H10      -1.6070    -8.9723    -3.9769  H       1  <O>11       0.0618
  38 H11      -2.2287   -11.0748    -5.0282  H       1  <O>11       0.0637
  39 H12       0.0144   -16.8248    -4.8934  H       1  <O>11       0.0638
  40 H13       0.0471   -18.9111    -6.1308  H       1  <O>11       0.0618
  41 H14       0.5070   -18.9075    -8.5183  H       1  <O>11       0.0619
  42 H15       0.9320   -16.8045    -9.6593  H       1  <O>11       0.0655
  43 H16       1.8481   -12.0089    -5.5570  H       1  <O>11       0.0645
@<TRIPOS>BOND
     1     1     2    2
     2     2     3   am
     3     3     4    1
     4     4     5   ar
     5     5     6   ar
     6     6     7   ar
     7     7     8   ar
     8     8     9   ar
     9     4     9   ar
    10     9    10    1
    11     2    11    1
    12    11    12   ar
    13    12    13   ar
    14    13    14   ar
    15    14    15   ar
    16    15    16    1
    17    16    17    2
    18    16    18    2
    19    16    19    1
    20    19    20    1
    21    20    21   ar
    22    21    22   ar
    23    22    23   ar
    24    23    24   ar
    25    24    25   ar
    26    20    25   ar
    27    25    26    1
    28    15    27   ar
    29    11    27   ar
    30     3    28    1
    31    10    29    1
    32    19    30    1
    33    26    31    1
    34     5    32    1
    35     6    33    1
    36     7    34    1
    37     8    35    1
    38    12    36    1
    39    13    37    1
    40    14    38    1
    41    21    39    1
    42    22    40    1
    43    23    41    1
    44    24    42    1
    45    27    43    1
@<TRIPOS>MOLECULE
mol29_2_21
 43 45 0 0 0
SMALL
USER_CHARGES
****
VDW energy = 91.30
@<TRIPOS>ATOM
   1 O1        3.4420    -9.1855    -5.2979  O.2     1  <O>11      -0.2699
   2 C1        2.8552    -9.8129    -4.4288  C.2     1  <O>11       0.2484
   3 N1        3.5160   -10.1860    -3.2900  N.am    1  <O>11      -0.2786
   4 C2        4.8600    -9.8500    -3.1210  C.ar    1  <O>11       0.0756
   5 C3        5.6431    -9.4775    -4.2269  C.ar    1  <O>11      -0.0369
   6 C4        6.9929    -9.1515    -4.0586  C.ar    1  <O>11      -0.0598
   7 C5        7.5721    -9.1921    -2.7873  C.ar    1  <O>11      -0.0582
   8 C6        6.7905    -9.5563    -1.6850  C.ar    1  <O>11      -0.0183
   9 C7        5.4429    -9.8804    -1.8432  C.ar    1  <O>11       0.1380
  10 O2        4.7199   -10.2121    -0.8225  O.3     1  <O>11      -0.5049
  11 C8        1.4620   -10.1610    -4.6040  C.ar    1  <O>11       0.0389
  12 C9        0.8636    -9.9823    -5.8527  C.ar    1  <O>11      -0.0495
  13 C10      -0.4870   -10.3056    -6.0254  C.ar    1  <O>11      -0.0592
  14 C11      -1.2329   -10.8080    -4.9561  C.ar    1  <O>11      -0.0350
  15 C12      -0.6172   -10.9869    -3.7116  C.ar    1  <O>11       0.1092
  16 S1       -1.5620   -11.6210    -2.3688  S.O2    1  <O>11       0.0725
  17 O3       -0.5999   -11.7341    -1.0205  O.2     1  <O>11      -0.1500
  18 O4       -2.1421   -13.1264    -2.7627  O.2     1  <O>11      -0.1500
  19 N2       -2.8275   -10.6067    -2.0587  N.pl3   1  <O>11      -0.2127
  20 C13      -2.5777    -9.2259    -1.6899  C.ar    1  <O>11       0.0893
  21 C14      -1.3682    -8.8630    -1.0724  C.ar    1  <O>11      -0.0358
  22 C15      -1.1336    -7.5344    -0.7056  C.ar    1  <O>11      -0.0597
  23 C16      -2.0986    -6.5556    -0.9549  C.ar    1  <O>11      -0.0582
  24 C17      -3.3003    -6.9150    -1.5757  C.ar    1  <O>11      -0.0183
  25 C18      -3.5430    -8.2386    -1.9456  C.ar    1  <O>11       0.1391
  26 O5       -4.6511    -8.5695    -2.5254  O.3     1  <O>11      -0.5049
  27 C19       0.7288   -10.6699    -3.5299  C.ar    1  <O>11      -0.0230
  28 H1        3.0270   -10.7100    -2.5640  H       1  <O>11       0.1552
  29 H2        3.8152   -10.4036    -1.1155  H       1  <O>11       0.2922
  30 H3       -3.7868   -10.9512    -2.1264  H       1  <O>11       0.1738
  31 H4       -4.6485    -9.5200    -2.7104  H       1  <O>11       0.2922
  32 H5        5.2202    -9.4444    -5.1677  H       1  <O>11       0.0637
  33 H6        7.5625    -8.8802    -4.8752  H       1  <O>11       0.0618
  34 H7        8.5688    -8.9553    -2.6624  H       1  <O>11       0.0619
  35 H8        7.2155    -9.5854    -0.7450  H       1  <O>11       0.0655
  36 H9        1.4142    -9.6139    -6.6441  H       1  <O>11       0.0625
  37 H10      -0.9338   -10.1724    -6.9461  H       1  <O>11       0.0618
  38 H11      -2.2293   -11.0451    -5.0826  H       1  <O>11       0.0637
  39 H12      -0.6498    -9.5808    -0.8889  H       1  <O>11       0.0638
  40 H13      -0.2447    -7.2760    -0.2493  H       1  <O>11       0.0618
  41 H14      -1.9267    -5.5749    -0.6833  H       1  <O>11       0.0619
  42 H15      -4.0145    -6.1937    -1.7619  H       1  <O>11       0.0655
  43 H16       1.1781   -10.8100    -2.6114  H       1  <O>11       0.0645
@<TRIPOS>BOND
     1     1     2    2
     2     2     3   am
     3     3     4    1
     4     4     5   ar
     5     5     6   ar
     6     6     7   ar
     7     7     8   ar
     8     8     9   ar
     9     4     9   ar
    10     9    10    1
    11     2    11    1
    12    11    12   ar
    13    12    13   ar
    14    13    14   ar
    15    14    15   ar
    16    15    16    1
    17    16    17    2
    18    16    18    2
    19    16    19    1
    20    19    20    1
    21    20    21   ar
    22    21    22   ar
    23    22    23   ar
    24    23    24   ar
    25    24    25   ar
    26    20    25   ar
    27    25    26    1
    28    15    27   ar
    29    11    27   ar
    30     3    28    1
    31    10    29    1
    32    19    30    1
    33    26    31    1
    34     5    32    1
    35     6    33    1
    36     7    34    1
    37     8    35    1
    38    12    36    1
    39    13    37    1
    40    14    38    1
    41    21    39    1
    42    22    40    1
    43    23    41    1
    44    24    42    1
    45    27    43    1
@<TRIPOS>MOLECULE
mol29_2_22
 43 45 0 0 0
SMALL
USER_CHARGES
****
VDW energy = 92.75
@<TRIPOS>ATOM
   1 O1        3.4420    -9.1855    -5.2979  O.2     1  <O>11      -0.2699
   2 C1        2.8552    -9.8129    -4.4288  C.2     1  <O>11       0.2484
   3 N1        3.5160   -10.1860    -3.2900  N.am    1  <O>11      -0.2786
   4 C2        4.8600    -9.8500    -3.1210  C.ar    1  <O>11       0.0756
   5 C3        5.6431    -9.4775    -4.2269  C.ar    1  <O>11      -0.0369
   6 C4        6.9929    -9.1515    -4.0586  C.ar    1  <O>11      -0.0598
   7 C5        7.5721    -9.1921    -2.7873  C.ar    1  <O>11      -0.0582
   8 C6        6.7905    -9.5563    -1.6850  C.ar    1  <O>11      -0.0183
   9 C7        5.4429    -9.8804    -1.8432  C.ar    1  <O>11       0.1380
  10 O2        4.7199   -10.2121    -0.8225  O.3     1  <O>11      -0.5049
  11 C8        1.4620   -10.1610    -4.6040  C.ar    1  <O>11       0.0389
  12 C9        1.1306   -11.3698    -5.2192  C.ar    1  <O>11      -0.0495
  13 C10      -0.2153   -11.7066    -5.4026  C.ar    1  <O>11      -0.0592
  14 C11      -1.2229   -10.8409    -4.9699  C.ar    1  <O>11      -0.0350
  15 C12      -0.8747    -9.6351    -4.3496  C.ar    1  <O>11       0.1092
  16 S1       -2.1487    -8.5493    -3.8059  S.O2    1  <O>11       0.0725
  17 O3       -1.4691    -7.2035    -3.1107  O.2     1  <O>11      -0.1500
  18 O4       -3.1003    -9.3281    -2.6896  O.2     1  <O>11      -0.1500
  19 N2       -3.0730    -8.0951    -5.0966  N.pl3   1  <O>11      -0.2127
  20 C13      -4.0069    -6.9921    -4.9684  C.ar    1  <O>11       0.0893
  21 C14      -4.1321    -6.3051    -3.7485  C.ar    1  <O>11      -0.0358
  22 C15      -5.0415    -5.2507    -3.6221  C.ar    1  <O>11      -0.0597
  23 C16      -5.8299    -4.8684    -4.7101  C.ar    1  <O>11      -0.0582
  24 C17      -5.7011    -5.5477    -5.9269  C.ar    1  <O>11      -0.0183
  25 C18      -4.7958    -6.6011    -6.0624  C.ar    1  <O>11       0.1391
  26 O5       -4.6721    -7.2246    -7.1891  O.3     1  <O>11      -0.5049
  27 C19       0.4636    -9.2913    -4.1600  C.ar    1  <O>11      -0.0230
  28 H1        3.0270   -10.7100    -2.5640  H       1  <O>11       0.1552
  29 H2        3.8152   -10.4036    -1.1155  H       1  <O>11       0.2922
  30 H3       -2.9877    -8.5907    -5.9858  H       1  <O>11       0.1738
  31 H4       -4.0034    -7.9196    -7.1029  H       1  <O>11       0.2922
  32 H5        5.2202    -9.4444    -5.1677  H       1  <O>11       0.0637
  33 H6        7.5625    -8.8802    -4.8752  H       1  <O>11       0.0618
  34 H7        8.5688    -8.9553    -2.6624  H       1  <O>11       0.0619
  35 H8        7.2155    -9.5854    -0.7450  H       1  <O>11       0.0655
  36 H9        1.8739   -12.0113    -5.5368  H       1  <O>11       0.0625
  37 H10      -0.4644   -12.5978    -5.8593  H       1  <O>11       0.0618
  38 H11      -2.2155   -11.0882    -5.1063  H       1  <O>11       0.0637
  39 H12      -3.5497    -6.5803    -2.9421  H       1  <O>11       0.0638
  40 H13      -5.1305    -4.7532    -2.7223  H       1  <O>11       0.0618
  41 H14      -6.5024    -4.0910    -4.6172  H       1  <O>11       0.0619
  42 H15      -6.2816    -5.2667    -6.7325  H       1  <O>11       0.0655
  43 H16       0.7134    -8.4037    -3.6966  H       1  <O>11       0.0645
@<TRIPOS>BOND
     1     1     2    2
     2     2     3   am
     3     3     4    1
     4     4     5   ar
     5     5     6   ar
     6     6     7   ar
     7     7     8   ar
     8     8     9   ar
     9     4     9   ar
    10     9    10    1
    11     2    11    1
    12    11    12   ar
    13    12    13   ar
    14    13    14   ar
    15    14    15   ar
    16    15    16    1
    17    16    17    2
    18    16    18    2
    19    16    19    1
    20    19    20    1
    21    20    21   ar
    22    21    22   ar
    23    22    23   ar
    24    23    24   ar
    25    24    25   ar
    26    20    25   ar
    27    25    26    1
    28    15    27   ar
    29    11    27   ar
    30     3    28    1
    31    10    29    1
    32    19    30    1
    33    26    31    1
    34     5    32    1
    35     6    33    1
    36     7    34    1
    37     8    35    1
    38    12    36    1
    39    13    37    1
    40    14    38    1
    41    21    39    1
    42    22    40    1
    43    23    41    1
    44    24    42    1
    45    27    43    1
@<TRIPOS>MOLECULE
mol29_2_23
 43 45 0 0 0
SMALL
USER_CHARGES
****
VDW energy = 92.79
@<TRIPOS>ATOM
   1 O1        3.4420    -9.1855    -5.2979  O.2     1  <O>11      -0.2699
   2 C1        2.8552    -9.8129    -4.4288  C.2     1  <O>11       0.2484
   3 N1        3.5160   -10.1860    -3.2900  N.am    1  <O>11      -0.2786
   4 C2        4.8600    -9.8500    -3.1210  C.ar    1  <O>11       0.0756
   5 C3        5.6431    -9.4775    -4.2269  C.ar    1  <O>11      -0.0369
   6 C4        6.9929    -9.1515    -4.0586  C.ar    1  <O>11      -0.0598
   7 C5        7.5721    -9.1921    -2.7873  C.ar    1  <O>11      -0.0582
   8 C6        6.7905    -9.5563    -1.6850  C.ar    1  <O>11      -0.0183
   9 C7        5.4429    -9.8804    -1.8432  C.ar    1  <O>11       0.1380
  10 O2        4.7199   -10.2121    -0.8225  O.3     1  <O>11      -0.5049
  11 C8        1.4620   -10.1610    -4.6040  C.ar    1  <O>11       0.0389
  12 C9        1.1306   -11.3698    -5.2192  C.ar    1  <O>11      -0.0495
  13 C10      -0.2153   -11.7066    -5.4026  C.ar    1  <O>11      -0.0592
  14 C11      -1.2229   -10.8409    -4.9699  C.ar    1  <O>11      -0.0350
  15 C12      -0.8747    -9.6351    -4.3496  C.ar    1  <O>11       0.1092
  16 S1       -2.1487    -8.5493    -3.8059  S.O2    1  <O>11       0.0725
  17 O3       -2.5439    -8.9042    -2.2329  O.2     1  <O>11      -0.1500
  18 O4       -3.4876    -8.7408    -4.7696  O.2     1  <O>11      -0.1500
  19 N2       -1.6196    -6.9881    -3.9019  N.pl3   1  <O>11      -0.2127
  20 C13      -2.3672    -5.9271    -3.2534  C.ar    1  <O>11       0.0893
  21 C14      -3.5439    -6.2191    -2.5421  C.ar    1  <O>11      -0.0358
  22 C15      -4.2706    -5.1944    -1.9284  C.ar    1  <O>11      -0.0597
  23 C16      -3.8294    -3.8716    -2.0136  C.ar    1  <O>11      -0.0582
  24 C17      -2.6544    -3.5810    -2.7160  C.ar    1  <O>11      -0.0183
  25 C18      -1.9224    -4.5973    -3.3314  C.ar    1  <O>11       0.1391
  26 O5       -0.8327    -4.3294    -3.9751  O.3     1  <O>11      -0.5049
  27 C19       0.4636    -9.2913    -4.1600  C.ar    1  <O>11      -0.0230
  28 H1        3.0270   -10.7100    -2.5640  H       1  <O>11       0.1552
  29 H2        3.8152   -10.4036    -1.1155  H       1  <O>11       0.2922
  30 H3       -0.7657    -6.7688    -4.4179  H       1  <O>11       0.1738
  31 H4       -0.4587    -5.1476    -4.3334  H       1  <O>11       0.2922
  32 H5        5.2202    -9.4444    -5.1677  H       1  <O>11       0.0637
  33 H6        7.5625    -8.8802    -4.8752  H       1  <O>11       0.0618
  34 H7        8.5688    -8.9553    -2.6624  H       1  <O>11       0.0619
  35 H8        7.2155    -9.5854    -0.7450  H       1  <O>11       0.0655
  36 H9        1.8739   -12.0113    -5.5368  H       1  <O>11       0.0625
  37 H10      -0.4644   -12.5978    -5.8593  H       1  <O>11       0.0618
  38 H11      -2.2155   -11.0882    -5.1063  H       1  <O>11       0.0637
  39 H12      -3.8730    -7.1947    -2.4724  H       1  <O>11       0.0638
  40 H13      -5.1355    -5.4159    -1.4109  H       1  <O>11       0.0618
  41 H14      -4.3660    -3.1145    -1.5619  H       1  <O>11       0.0619
  42 H15      -2.3257    -2.6048    -2.7797  H       1  <O>11       0.0655
  43 H16       0.7134    -8.4037    -3.6966  H       1  <O>11       0.0645
@<TRIPOS>BOND
     1     1     2    2
     2     2     3   am
     3     3     4    1
     4     4     5   ar
     5     5     6   ar
     6     6     7   ar
     7     7     8   ar
     8     8     9   ar
     9     4     9   ar
    10     9    10    1
    11     2    11    1
    12    11    12   ar
    13    12    13   ar
    14    13    14   ar
    15    14    15   ar
    16    15    16    1
    17    16    17    2
    18    16    18    2
    19    16    19    1
    20    19    20    1
    21    20    21   ar
    22    21    22   ar
    23    22    23   ar
    24    23    24   ar
    25    24    25   ar
    26    20    25   ar
    27    25    26    1
    28    15    27   ar
    29    11    27   ar
    30     3    28    1
    31    10    29    1
    32    19    30    1
    33    26    31    1
    34     5    32    1
    35     6    33    1
    36     7    34    1
    37     8    35    1
    38    12    36    1
    39    13    37    1
    40    14    38    1
    41    21    39    1
    42    22    40    1
    43    23    41    1
    44    24    42    1
    45    27    43    1
@<TRIPOS>MOLECULE
mol29_2_24
 43 45 0 0 0
SMALL
USER_CHARGES
****
VDW energy = 93.57
@<TRIPOS>ATOM
   1 O1        3.4420    -9.1855    -5.2979  O.2     1  <O>11      -0.2699
   2 C1        2.8552    -9.8129    -4.4288  C.2     1  <O>11       0.2484
   3 N1        3.5160   -10.1860    -3.2900  N.am    1  <O>11      -0.2786
   4 C2        4.8600    -9.8500    -3.1210  C.ar    1  <O>11       0.0756
   5 C3        5.6431    -9.4775    -4.2269  C.ar    1  <O>11      -0.0369
   6 C4        6.9929    -9.1515    -4.0586  C.ar    1  <O>11      -0.0598
   7 C5        7.5721    -9.1921    -2.7873  C.ar    1  <O>11      -0.0582
   8 C6        6.7905    -9.5563    -1.6850  C.ar    1  <O>11      -0.0183
   9 C7        5.4429    -9.8804    -1.8432  C.ar    1  <O>11       0.1380
  10 O2        4.7199   -10.2121    -0.8225  O.3     1  <O>11      -0.5049
  11 C8        1.4620   -10.1610    -4.6040  C.ar    1  <O>11       0.0389
  12 C9        0.8636    -9.9823    -5.8527  C.ar    1  <O>11      -0.0495
  13 C10      -0.4870   -10.3056    -6.0254  C.ar    1  <O>11      -0.0592
  14 C11      -1.2329   -10.8080    -4.9561  C.ar    1  <O>11      -0.0350
  15 C12      -0.6172   -10.9869    -3.7116  C.ar    1  <O>11       0.1092
  16 S1       -1.5620   -11.6210    -2.3688  S.O2    1  <O>11       0.0725
  17 O3       -0.5689   -12.4746    -1.3482  O.2     1  <O>11      -0.1500
  18 O4       -2.7494   -12.6244    -2.9529  O.2     1  <O>11      -0.1500
  19 N2       -2.2548   -10.3696    -1.5438  N.pl3   1  <O>11      -0.2127
  20 C13      -1.4201    -9.3512    -0.9346  C.ar    1  <O>11       0.0893
  21 C14      -0.1007    -9.6491    -0.5518  C.ar    1  <O>11      -0.0358
  22 C15       0.6987    -8.6708     0.0469  C.ar    1  <O>11      -0.0597
  23 C16       0.1933    -7.3869     0.2650  C.ar    1  <O>11      -0.0582
  24 C17      -1.1180    -7.0877    -0.1219  C.ar    1  <O>11      -0.0183
  25 C18      -1.9231    -8.0577    -0.7205  C.ar    1  <O>11       0.1391
  26 O5       -3.1330    -7.7791    -1.0841  O.3     1  <O>11      -0.5049
  27 C19       0.7288   -10.6699    -3.5299  C.ar    1  <O>11      -0.0230
  28 H1        3.0270   -10.7100    -2.5640  H       1  <O>11       0.1552
  29 H2        3.8152   -10.4036    -1.1155  H       1  <O>11       0.2922
  30 H3       -3.2714   -10.3122    -1.4620  H       1  <O>11       0.1738
  31 H4       -3.5410    -8.5632    -1.4795  H       1  <O>11       0.2922
  32 H5        5.2202    -9.4444    -5.1677  H       1  <O>11       0.0637
  33 H6        7.5625    -8.8802    -4.8752  H       1  <O>11       0.0618
  34 H7        8.5688    -8.9553    -2.6624  H       1  <O>11       0.0619
  35 H8        7.2155    -9.5854    -0.7450  H       1  <O>11       0.0655
  36 H9        1.4142    -9.6139    -6.6441  H       1  <O>11       0.0625
  37 H10      -0.9338   -10.1724    -6.9461  H       1  <O>11       0.0618
  38 H11      -2.2293   -11.0451    -5.0826  H       1  <O>11       0.0637
  39 H12       0.2798   -10.5947    -0.7137  H       1  <O>11       0.0638
  40 H13       1.6652    -8.8979     0.3286  H       1  <O>11       0.0618
  41 H14       0.7823    -6.6645     0.7081  H       1  <O>11       0.0619
  42 H15      -1.4936    -6.1397     0.0372  H       1  <O>11       0.0655
  43 H16       1.1781   -10.8100    -2.6114  H       1  <O>11       0.0645
@<TRIPOS>BOND
     1     1     2    2
     2     2     3   am
     3     3     4    1
     4     4     5   ar
     5     5     6   ar
     6     6     7   ar
     7     7     8   ar
     8     8     9   ar
     9     4     9   ar
    10     9    10    1
    11     2    11    1
    12    11    12   ar
    13    12    13   ar
    14    13    14   ar
    15    14    15   ar
    16    15    16    1
    17    16    17    2
    18    16    18    2
    19    16    19    1
    20    19    20    1
    21    20    21   ar
    22    21    22   ar
    23    22    23   ar
    24    23    24   ar
    25    24    25   ar
    26    20    25   ar
    27    25    26    1
    28    15    27   ar
    29    11    27   ar
    30     3    28    1
    31    10    29    1
    32    19    30    1
    33    26    31    1
    34     5    32    1
    35     6    33    1
    36     7    34    1
    37     8    35    1
    38    12    36    1
    39    13    37    1
    40    14    38    1
    41    21    39    1
    42    22    40    1
    43    23    41    1
    44    24    42    1
    45    27    43    1
@<TRIPOS>MOLECULE
mol29_2_25
 43 45 0 0 0
SMALL
USER_CHARGES
****
VDW energy = 94.57
@<TRIPOS>ATOM
   1 O1        3.4420    -9.1855    -5.2979  O.2     1  <O>11      -0.2699
   2 C1        2.8552    -9.8129    -4.4288  C.2     1  <O>11       0.2484
   3 N1        3.5160   -10.1860    -3.2900  N.am    1  <O>11      -0.2786
   4 C2        4.8600    -9.8500    -3.1210  C.ar    1  <O>11       0.0756
   5 C3        5.6431    -9.4775    -4.2269  C.ar    1  <O>11      -0.0369
   6 C4        6.9929    -9.1515    -4.0586  C.ar    1  <O>11      -0.0598
   7 C5        7.5721    -9.1921    -2.7873  C.ar    1  <O>11      -0.0582
   8 C6        6.7905    -9.5563    -1.6850  C.ar    1  <O>11      -0.0183
   9 C7        5.4429    -9.8804    -1.8432  C.ar    1  <O>11       0.1380
  10 O2        4.7199   -10.2121    -0.8225  O.3     1  <O>11      -0.5049
  11 C8        1.4620   -10.1610    -4.6040  C.ar    1  <O>11       0.0389
  12 C9        1.0134   -11.4175    -4.1926  C.ar    1  <O>11      -0.0495
  13 C10      -0.3305   -11.7649    -4.3706  C.ar    1  <O>11      -0.0592
  14 C11      -1.2205   -10.8590    -4.9532  C.ar    1  <O>11      -0.0350
  15 C12      -0.7568    -9.6008    -5.3553  C.ar    1  <O>11       0.1092
  16 S1       -1.8831    -8.4638    -6.0878  S.O2    1  <O>11       0.0725
  17 O3       -2.5557    -7.5121    -4.9052  O.2     1  <O>11      -0.1500
  18 O4       -3.0830    -9.3017    -6.8729  O.2     1  <O>11      -0.1500
  19 N2       -1.0780    -7.5111    -7.1697  N.pl3   1  <O>11      -0.2127
  20 C13      -1.7110    -6.3168    -7.6970  C.ar    1  <O>11       0.0893
  21 C14      -3.0102    -5.9637    -7.2929  C.ar    1  <O>11      -0.0358
  22 C15      -3.6244    -4.8197    -7.8113  C.ar    1  <O>11      -0.0597
  23 C16      -2.9487    -4.0152    -8.7321  C.ar    1  <O>11      -0.0582
  24 C17      -1.6526    -4.3625    -9.1298  C.ar    1  <O>11      -0.0183
  25 C18      -1.0315    -5.5024    -8.6174  C.ar    1  <O>11       0.1391
  26 O5        0.1691    -5.8196    -8.9801  O.3     1  <O>11      -0.5049
  27 C19       0.5801    -9.2441    -5.1802  C.ar    1  <O>11      -0.0230
  28 H1        3.0270   -10.7100    -2.5640  H       1  <O>11       0.1552
  29 H2        3.8152   -10.4036    -1.1155  H       1  <O>11       0.2922
  30 H3       -0.1339    -7.7623    -7.4682  H       1  <O>11       0.1738
  31 H4        0.4398    -6.6322    -8.5282  H       1  <O>11       0.2922
  32 H5        5.2202    -9.4444    -5.1677  H       1  <O>11       0.0637
  33 H6        7.5625    -8.8802    -4.8752  H       1  <O>11       0.0618
  34 H7        8.5688    -8.9553    -2.6624  H       1  <O>11       0.0619
  35 H8        7.2155    -9.5854    -0.7450  H       1  <O>11       0.0655
  36 H9        1.6693   -12.0865    -3.7596  H       1  <O>11       0.0625
  37 H10      -0.6655   -12.6936    -4.0704  H       1  <O>11       0.0618
  38 H11      -2.2113   -11.1153    -5.0861  H       1  <O>11       0.0637
  39 H12      -3.5133    -6.5518    -6.6102  H       1  <O>11       0.0638
  40 H13      -4.5799    -4.5687    -7.5128  H       1  <O>11       0.0618
  41 H14      -3.4018    -3.1713    -9.1162  H       1  <O>11       0.0619
  42 H15      -1.1507    -3.7695    -9.8091  H       1  <O>11       0.0655
  43 H16       0.9141    -8.3127    -5.4733  H       1  <O>11       0.0645
@<TRIPOS>BOND
     1     1     2    2
     2     2     3   am
     3     3     4    1
     4     4     5   ar
     5     5     6   ar
     6     6     7   ar
     7     7     8   ar
     8     8     9   ar
     9     4     9   ar
    10     9    10    1
    11     2    11    1
    12    11    12   ar
    13    12    13   ar
    14    13    14   ar
    15    14    15   ar
    16    15    16    1
    17    16    17    2
    18    16    18    2
    19    16    19    1
    20    19    20    1
    21    20    21   ar
    22    21    22   ar
    23    22    23   ar
    24    23    24   ar
    25    24    25   ar
    26    20    25   ar
    27    25    26    1
    28    15    27   ar
    29    11    27   ar
    30     3    28    1
    31    10    29    1
    32    19    30    1
    33    26    31    1
    34     5    32    1
    35     6    33    1
    36     7    34    1
    37     8    35    1
    38    12    36    1
    39    13    37    1
    40    14    38    1
    41    21    39    1
    42    22    40    1
    43    23    41    1
    44    24    42    1
    45    27    43    1
@<TRIPOS>MOLECULE
mol29_2_26
 43 45 0 0 0
SMALL
USER_CHARGES
****
VDW energy = 95.50
@<TRIPOS>ATOM
   1 O1        3.4420    -9.1855    -5.2979  O.2     1  <O>11      -0.2699
   2 C1        2.8552    -9.8129    -4.4288  C.2     1  <O>11       0.2484
   3 N1        3.5160   -10.1860    -3.2900  N.am    1  <O>11      -0.2786
   4 C2        4.8600    -9.8500    -3.1210  C.ar    1  <O>11       0.0756
   5 C3        5.6431    -9.4775    -4.2269  C.ar    1  <O>11      -0.0369
   6 C4        6.9929    -9.1515    -4.0586  C.ar    1  <O>11      -0.0598
   7 C5        7.5721    -9.1921    -2.7873  C.ar    1  <O>11      -0.0582
   8 C6        6.7905    -9.5563    -1.6850  C.ar    1  <O>11      -0.0183
   9 C7        5.4429    -9.8804    -1.8432  C.ar    1  <O>11       0.1380
  10 O2        4.7199   -10.2121    -0.8225  O.3     1  <O>11      -0.5049
  11 C8        1.4620   -10.1610    -4.6040  C.ar    1  <O>11       0.0389
  12 C9        1.1306   -11.3698    -5.2192  C.ar    1  <O>11      -0.0495
  13 C10      -0.2153   -11.7066    -5.4026  C.ar    1  <O>11      -0.0592
  14 C11      -1.2229   -10.8409    -4.9699  C.ar    1  <O>11      -0.0350
  15 C12      -0.8747    -9.6351    -4.3496  C.ar    1  <O>11       0.1092
  16 S1       -2.1487    -8.5493    -3.8059  S.O2    1  <O>11       0.0725
  17 O3       -3.4779    -8.7215    -4.7858  O.2     1  <O>11      -0.1500
  18 O4       -1.6073    -6.9810    -3.8782  O.2     1  <O>11      -0.1500
  19 N2       -2.5601    -8.9188    -2.2500  N.pl3   1  <O>11      -0.2127
  20 C13      -3.7678    -8.3648    -1.6673  C.ar    1  <O>11       0.0893
  21 C14      -4.5932    -7.5115    -2.4199  C.ar    1  <O>11      -0.0358
  22 C15      -5.7500    -6.9678    -1.8534  C.ar    1  <O>11      -0.0597
  23 C16      -6.0973    -7.2728    -0.5351  C.ar    1  <O>11      -0.0582
  24 C17      -5.2795    -8.1276     0.2126  C.ar    1  <O>11      -0.0183
  25 C18      -4.1231    -8.6752    -0.3446  C.ar    1  <O>11       0.1391
  26 O5       -3.3708    -9.4706     0.3446  O.3     1  <O>11      -0.5049
  27 C19       0.4636    -9.2913    -4.1600  C.ar    1  <O>11      -0.0230
  28 H1        3.0270   -10.7100    -2.5640  H       1  <O>11       0.1552
  29 H2        3.8152   -10.4036    -1.1155  H       1  <O>11       0.2922
  30 H3       -1.9643    -9.5376    -1.6971  H       1  <O>11       0.1738
  31 H4       -2.6190    -9.7544    -0.1957  H       1  <O>11       0.2922
  32 H5        5.2202    -9.4444    -5.1677  H       1  <O>11       0.0637
  33 H6        7.5625    -8.8802    -4.8752  H       1  <O>11       0.0618
  34 H7        8.5688    -8.9553    -2.6624  H       1  <O>11       0.0619
  35 H8        7.2155    -9.5854    -0.7450  H       1  <O>11       0.0655
  36 H9        1.8739   -12.0113    -5.5368  H       1  <O>11       0.0625
  37 H10      -0.4644   -12.5978    -5.8593  H       1  <O>11       0.0618
  38 H11      -2.2155   -11.0882    -5.1063  H       1  <O>11       0.0637
  39 H12      -4.3441    -7.2853    -3.3956  H       1  <O>11       0.0638
  40 H13      -6.3493    -6.3391    -2.4109  H       1  <O>11       0.0618
  41 H14      -6.9503    -6.8709    -0.1159  H       1  <O>11       0.0619
  42 H15      -5.5342    -8.3554     1.1864  H       1  <O>11       0.0655
  43 H16       0.7134    -8.4037    -3.6966  H       1  <O>11       0.0645
@<TRIPOS>BOND
     1     1     2    2
     2     2     3   am
     3     3     4    1
     4     4     5   ar
     5     5     6   ar
     6     6     7   ar
     7     7     8   ar
     8     8     9   ar
     9     4     9   ar
    10     9    10    1
    11     2    11    1
    12    11    12   ar
    13    12    13   ar
    14    13    14   ar
    15    14    15   ar
    16    15    16    1
    17    16    17    2
    18    16    18    2
    19    16    19    1
    20    19    20    1
    21    20    21   ar
    22    21    22   ar
    23    22    23   ar
    24    23    24   ar
    25    24    25   ar
    26    20    25   ar
    27    25    26    1
    28    15    27   ar
    29    11    27   ar
    30     3    28    1
    31    10    29    1
    32    19    30    1
    33    26    31    1
    34     5    32    1
    35     6    33    1
    36     7    34    1
    37     8    35    1
    38    12    36    1
    39    13    37    1
    40    14    38    1
    41    21    39    1
    42    22    40    1
    43    23    41    1
    44    24    42    1
    45    27    43    1
@<TRIPOS>MOLECULE
mol29_2_27
 43 45 0 0 0
SMALL
USER_CHARGES
****
VDW energy = 97.98
@<TRIPOS>ATOM
   1 O1        3.4420    -9.1855    -5.2979  O.2     1  <O>11      -0.2699
   2 C1        2.8552    -9.8129    -4.4288  C.2     1  <O>11       0.2484
   3 N1        3.5160   -10.1860    -3.2900  N.am    1  <O>11      -0.2786
   4 C2        4.8600    -9.8500    -3.1210  C.ar    1  <O>11       0.0756
   5 C3        5.6431    -9.4775    -4.2269  C.ar    1  <O>11      -0.0369
   6 C4        6.9929    -9.1515    -4.0586  C.ar    1  <O>11      -0.0598
   7 C5        7.5721    -9.1921    -2.7873  C.ar    1  <O>11      -0.0582
   8 C6        6.7905    -9.5563    -1.6850  C.ar    1  <O>11      -0.0183
   9 C7        5.4429    -9.8804    -1.8432  C.ar    1  <O>11       0.1380
  10 O2        4.7199   -10.2121    -0.8225  O.3     1  <O>11      -0.5049
  11 C8        1.4620   -10.1610    -4.6040  C.ar    1  <O>11       0.0389
  12 C9        1.0134   -11.4175    -4.1926  C.ar    1  <O>11      -0.0495
  13 C10      -0.3305   -11.7649    -4.3706  C.ar    1  <O>11      -0.0592
  14 C11      -1.2205   -10.8590    -4.9532  C.ar    1  <O>11      -0.0350
  15 C12      -0.7568    -9.6008    -5.3553  C.ar    1  <O>11       0.1092
  16 S1       -1.8831    -8.4638    -6.0878  S.O2    1  <O>11       0.0725
  17 O3       -2.5557    -7.5121    -4.9052  O.2     1  <O>11      -0.1500
  18 O4       -3.0830    -9.3017    -6.8729  O.2     1  <O>11      -0.1500
  19 N2       -1.0780    -7.5111    -7.1697  N.pl3   1  <O>11      -0.2127
  20 C13       0.0220    -6.6764    -6.7241  C.ar    1  <O>11       0.0893
  21 C14       0.0840    -6.2344    -5.3911  C.ar    1  <O>11      -0.0358
  22 C15       1.1375    -5.4196    -4.9658  C.ar    1  <O>11      -0.0597
  23 C16       2.1402    -5.0422    -5.8623  C.ar    1  <O>11      -0.0582
  24 C17       2.0827    -5.4874    -7.1879  C.ar    1  <O>11      -0.0183
  25 C18       1.0351    -6.3012    -7.6212  C.ar    1  <O>11       0.1391
  26 O5        0.9856    -6.7181    -8.8449  O.3     1  <O>11      -0.5049
  27 C19       0.5801    -9.2441    -5.1802  C.ar    1  <O>11      -0.0230
  28 H1        3.0270   -10.7100    -2.5640  H       1  <O>11       0.1552
  29 H2        3.8152   -10.4036    -1.1155  H       1  <O>11       0.2922
  30 H3       -1.3542    -7.5089    -8.1532  H       1  <O>11       0.1738
  31 H4        0.1981    -7.2681    -8.9680  H       1  <O>11       0.2922
  32 H5        5.2202    -9.4444    -5.1677  H       1  <O>11       0.0637
  33 H6        7.5625    -8.8802    -4.8752  H       1  <O>11       0.0618
  34 H7        8.5688    -8.9553    -2.6624  H       1  <O>11       0.0619
  35 H8        7.2155    -9.5854    -0.7450  H       1  <O>11       0.0655
  36 H9        1.6693   -12.0865    -3.7596  H       1  <O>11       0.0625
  37 H10      -0.6655   -12.6936    -4.0704  H       1  <O>11       0.0618
  38 H11      -2.2113   -11.1153    -5.0861  H       1  <O>11       0.0637
  39 H12      -0.6517    -6.5129    -4.7231  H       1  <O>11       0.0638
  40 H13       1.1745    -5.0960    -3.9866  H       1  <O>11       0.0618
  41 H14       2.9175    -4.4397    -5.5494  H       1  <O>11       0.0619
  42 H15       2.8227    -5.2109    -7.8519  H       1  <O>11       0.0655
  43 H16       0.9141    -8.3127    -5.4733  H       1  <O>11       0.0645
@<TRIPOS>BOND
     1     1     2    2
     2     2     3   am
     3     3     4    1
     4     4     5   ar
     5     5     6   ar
     6     6     7   ar
     7     7     8   ar
     8     8     9   ar
     9     4     9   ar
    10     9    10    1
    11     2    11    1
    12    11    12   ar
    13    12    13   ar
    14    13    14   ar
    15    14    15   ar
    16    15    16    1
    17    16    17    2
    18    16    18    2
    19    16    19    1
    20    19    20    1
    21    20    21   ar
    22    21    22   ar
    23    22    23   ar
    24    23    24   ar
    25    24    25   ar
    26    20    25   ar
    27    25    26    1
    28    15    27   ar
    29    11    27   ar
    30     3    28    1
    31    10    29    1
    32    19    30    1
    33    26    31    1
    34     5    32    1
    35     6    33    1
    36     7    34    1
    37     8    35    1
    38    12    36    1
    39    13    37    1
    40    14    38    1
    41    21    39    1
    42    22    40    1
    43    23    41    1
    44    24    42    1
    45    27    43    1
@<TRIPOS>MOLECULE
mol29_2_28
 43 45 0 0 0
SMALL
USER_CHARGES
****
VDW energy = 98.15
@<TRIPOS>ATOM
   1 O1        3.4420    -9.1855    -5.2979  O.2     1  <O>11      -0.2699
   2 C1        2.8552    -9.8129    -4.4288  C.2     1  <O>11       0.2484
   3 N1        3.5160   -10.1860    -3.2900  N.am    1  <O>11      -0.2786
   4 C2        4.8600    -9.8500    -3.1210  C.ar    1  <O>11       0.0756
   5 C3        5.6431    -9.4775    -4.2269  C.ar    1  <O>11      -0.0369
   6 C4        6.9929    -9.1515    -4.0586  C.ar    1  <O>11      -0.0598
   7 C5        7.5721    -9.1921    -2.7873  C.ar    1  <O>11      -0.0582
   8 C6        6.7905    -9.5563    -1.6850  C.ar    1  <O>11      -0.0183
   9 C7        5.4429    -9.8804    -1.8432  C.ar    1  <O>11       0.1380
  10 O2        4.7199   -10.2121    -0.8225  O.3     1  <O>11      -0.5049
  11 C8        1.4620   -10.1610    -4.6040  C.ar    1  <O>11       0.0389
  12 C9        0.8636    -9.9823    -5.8527  C.ar    1  <O>11      -0.0495
  13 C10      -0.4870   -10.3056    -6.0254  C.ar    1  <O>11      -0.0592
  14 C11      -1.2329   -10.8080    -4.9561  C.ar    1  <O>11      -0.0350
  15 C12      -0.6172   -10.9869    -3.7116  C.ar    1  <O>11       0.1092
  16 S1       -1.5620   -11.6210    -2.3688  S.O2    1  <O>11       0.0725
  17 O3       -1.4382   -13.2764    -2.3385  O.2     1  <O>11      -0.1500
  18 O4       -3.1540   -11.1884    -2.5595  O.2     1  <O>11      -0.1500
  19 N2       -0.9884   -10.9999    -0.9505  N.pl3   1  <O>11      -0.2127
  20 C13      -1.4047   -11.5750     0.3149  C.ar    1  <O>11       0.0893
  21 C14      -2.6374   -12.2422     0.4209  C.ar    1  <O>11      -0.0358
  22 C15      -3.0436   -12.7849     1.6437  C.ar    1  <O>11      -0.0597
  23 C16      -2.2242   -12.6722     2.7695  C.ar    1  <O>11      -0.0582
  24 C17      -0.9938   -12.0138     2.6630  C.ar    1  <O>11      -0.0183
  25 C18      -0.5800   -11.4693     1.4466  C.ar    1  <O>11       0.1391
  26 O5        0.5603   -10.8665     1.3468  O.3     1  <O>11      -0.5049
  27 C19       0.7288   -10.6699    -3.5299  C.ar    1  <O>11      -0.0230
  28 H1        3.0270   -10.7100    -2.5640  H       1  <O>11       0.1552
  29 H2        3.8152   -10.4036    -1.1155  H       1  <O>11       0.2922
  30 H3       -0.3402   -10.2104    -0.9634  H       1  <O>11       0.1738
  31 H4        0.6837   -10.5554     0.4381  H       1  <O>11       0.2922
  32 H5        5.2202    -9.4444    -5.1677  H       1  <O>11       0.0637
  33 H6        7.5625    -8.8802    -4.8752  H       1  <O>11       0.0618
  34 H7        8.5688    -8.9553    -2.6624  H       1  <O>11       0.0619
  35 H8        7.2155    -9.5854    -0.7450  H       1  <O>11       0.0655
  36 H9        1.4142    -9.6139    -6.6441  H       1  <O>11       0.0625
  37 H10      -0.9338   -10.1724    -6.9461  H       1  <O>11       0.0618
  38 H11      -2.2293   -11.0451    -5.0826  H       1  <O>11       0.0637
  39 H12      -3.2455   -12.3321    -0.4081  H       1  <O>11       0.0638
  40 H13      -3.9516   -13.2702     1.7148  H       1  <O>11       0.0618
  41 H14      -2.5239   -13.0714     3.6728  H       1  <O>11       0.0619
  42 H15      -0.3861   -11.9299     3.4929  H       1  <O>11       0.0655
  43 H16       1.1781   -10.8100    -2.6114  H       1  <O>11       0.0645
@<TRIPOS>BOND
     1     1     2    2
     2     2     3   am
     3     3     4    1
     4     4     5   ar
     5     5     6   ar
     6     6     7   ar
     7     7     8   ar
     8     8     9   ar
     9     4     9   ar
    10     9    10    1
    11     2    11    1
    12    11    12   ar
    13    12    13   ar
    14    13    14   ar
    15    14    15   ar
    16    15    16    1
    17    16    17    2
    18    16    18    2
    19    16    19    1
    20    19    20    1
    21    20    21   ar
    22    21    22   ar
    23    22    23   ar
    24    23    24   ar
    25    24    25   ar
    26    20    25   ar
    27    25    26    1
    28    15    27   ar
    29    11    27   ar
    30     3    28    1
    31    10    29    1
    32    19    30    1
    33    26    31    1
    34     5    32    1
    35     6    33    1
    36     7    34    1
    37     8    35    1
    38    12    36    1
    39    13    37    1
    40    14    38    1
    41    21    39    1
    42    22    40    1
    43    23    41    1
    44    24    42    1
    45    27    43    1
@<TRIPOS>MOLECULE
mol29_2_29
 43 45 0 0 0
SMALL
USER_CHARGES
****
VDW energy = 99.12
@<TRIPOS>ATOM
   1 O1        3.4420    -9.1855    -5.2979  O.2     1  <O>11      -0.2699
   2 C1        2.8552    -9.8129    -4.4288  C.2     1  <O>11       0.2484
   3 N1        3.5160   -10.1860    -3.2900  N.am    1  <O>11      -0.2786
   4 C2        4.8600    -9.8500    -3.1210  C.ar    1  <O>11       0.0756
   5 C3        5.6431    -9.4775    -4.2269  C.ar    1  <O>11      -0.0369
   6 C4        6.9929    -9.1515    -4.0586  C.ar    1  <O>11      -0.0598
   7 C5        7.5721    -9.1921    -2.7873  C.ar    1  <O>11      -0.0582
   8 C6        6.7905    -9.5563    -1.6850  C.ar    1  <O>11      -0.0183
   9 C7        5.4429    -9.8804    -1.8432  C.ar    1  <O>11       0.1380
  10 O2        4.7199   -10.2121    -0.8225  O.3     1  <O>11      -0.5049
  11 C8        1.4620   -10.1610    -4.6040  C.ar    1  <O>11       0.0389
  12 C9        0.8636    -9.9823    -5.8527  C.ar    1  <O>11      -0.0495
  13 C10      -0.4870   -10.3056    -6.0254  C.ar    1  <O>11      -0.0592
  14 C11      -1.2329   -10.8080    -4.9561  C.ar    1  <O>11      -0.0350
  15 C12      -0.6172   -10.9869    -3.7116  C.ar    1  <O>11       0.1092
  16 S1       -1.5620   -11.6210    -2.3688  S.O2    1  <O>11       0.0725
  17 O3       -1.4382   -13.2764    -2.3385  O.2     1  <O>11      -0.1500
  18 O4       -3.1540   -11.1884    -2.5595  O.2     1  <O>11      -0.1500
  19 N2       -0.9884   -10.9999    -0.9505  N.pl3   1  <O>11      -0.2127
  20 C13      -1.4047   -11.5750     0.3149  C.ar    1  <O>11       0.0893
  21 C14      -2.1800   -10.8244     1.2158  C.ar    1  <O>11      -0.0358
  22 C15      -2.5699   -11.3748     2.4404  C.ar    1  <O>11      -0.0597
  23 C16      -2.1956   -12.6782     2.7761  C.ar    1  <O>11      -0.0582
  24 C17      -1.4293   -13.4284     1.8768  C.ar    1  <O>11      -0.0183
  25 C18      -1.0359   -12.8873     0.6521  C.ar    1  <O>11       0.1391
  26 O5       -0.3332   -13.5832    -0.1819  O.3     1  <O>11      -0.5049
  27 C19       0.7288   -10.6699    -3.5299  C.ar    1  <O>11      -0.0230
  28 H1        3.0270   -10.7100    -2.5640  H       1  <O>11       0.1552
  29 H2        3.8152   -10.4036    -1.1155  H       1  <O>11       0.2922
  30 H3       -0.3402   -10.2104    -0.9634  H       1  <O>11       0.1738
  31 H4       -0.1536   -13.0552    -0.9735  H       1  <O>11       0.2922
  32 H5        5.2202    -9.4444    -5.1677  H       1  <O>11       0.0637
  33 H6        7.5625    -8.8802    -4.8752  H       1  <O>11       0.0618
  34 H7        8.5688    -8.9553    -2.6624  H       1  <O>11       0.0619
  35 H8        7.2155    -9.5854    -0.7450  H       1  <O>11       0.0655
  36 H9        1.4142    -9.6139    -6.6441  H       1  <O>11       0.0625
  37 H10      -0.9338   -10.1724    -6.9461  H       1  <O>11       0.0618
  38 H11      -2.2293   -11.0451    -5.0826  H       1  <O>11       0.0637
  39 H12      -2.4628    -9.8623     0.9720  H       1  <O>11       0.0638
  40 H13      -3.1359   -10.8165     3.0984  H       1  <O>11       0.0618
  41 H14      -2.4819   -13.0848     3.6805  H       1  <O>11       0.0619
  42 H15      -1.1523   -14.3918     2.1219  H       1  <O>11       0.0655
  43 H16       1.1781   -10.8100    -2.6114  H       1  <O>11       0.0645
@<TRIPOS>BOND
     1     1     2    2
     2     2     3   am
     3     3     4    1
     4     4     5   ar
     5     5     6   ar
     6     6     7   ar
     7     7     8   ar
     8     8     9   ar
     9     4     9   ar
    10     9    10    1
    11     2    11    1
    12    11    12   ar
    13    12    13   ar
    14    13    14   ar
    15    14    15   ar
    16    15    16    1
    17    16    17    2
    18    16    18    2
    19    16    19    1
    20    19    20    1
    21    20    21   ar
    22    21    22   ar
    23    22    23   ar
    24    23    24   ar
    25    24    25   ar
    26    20    25   ar
    27    25    26    1
    28    15    27   ar
    29    11    27   ar
    30     3    28    1
    31    10    29    1
    32    19    30    1
    33    26    31    1
    34     5    32    1
    35     6    33    1
    36     7    34    1
    37     8    35    1
    38    12    36    1
    39    13    37    1
    40    14    38    1
    41    21    39    1
    42    22    40    1
    43    23    41    1
    44    24    42    1
    45    27    43    1
@<TRIPOS>MOLECULE
mol29_2_30
 43 45 0 0 0
SMALL
USER_CHARGES
****
VDW energy = 99.61
@<TRIPOS>ATOM
   1 O1        3.4420    -9.1855    -5.2979  O.2     1  <O>11      -0.2699
   2 C1        2.8552    -9.8129    -4.4288  C.2     1  <O>11       0.2484
   3 N1        3.5160   -10.1860    -3.2900  N.am    1  <O>11      -0.2786
   4 C2        4.8600    -9.8500    -3.1210  C.ar    1  <O>11       0.0756
   5 C3        5.6431    -9.4775    -4.2269  C.ar    1  <O>11      -0.0369
   6 C4        6.9929    -9.1515    -4.0586  C.ar    1  <O>11      -0.0598
   7 C5        7.5721    -9.1921    -2.7873  C.ar    1  <O>11      -0.0582
   8 C6        6.7905    -9.5563    -1.6850  C.ar    1  <O>11      -0.0183
   9 C7        5.4429    -9.8804    -1.8432  C.ar    1  <O>11       0.1380
  10 O2        4.7199   -10.2121    -0.8225  O.3     1  <O>11      -0.5049
  11 C8        1.4620   -10.1610    -4.6040  C.ar    1  <O>11       0.0389
  12 C9        0.8636    -9.9823    -5.8527  C.ar    1  <O>11      -0.0495
  13 C10      -0.4870   -10.3056    -6.0254  C.ar    1  <O>11      -0.0592
  14 C11      -1.2329   -10.8080    -4.9561  C.ar    1  <O>11      -0.0350
  15 C12      -0.6172   -10.9869    -3.7116  C.ar    1  <O>11       0.1092
  16 S1       -1.5620   -11.6210    -2.3688  S.O2    1  <O>11       0.0725
  17 O3       -1.4382   -13.2764    -2.3385  O.2     1  <O>11      -0.1500
  18 O4       -3.1540   -11.1884    -2.5595  O.2     1  <O>11      -0.1500
  19 N2       -0.9884   -10.9999    -0.9505  N.pl3   1  <O>11      -0.2127
  20 C13      -0.9897    -9.5654    -0.7330  C.ar    1  <O>11       0.0893
  21 C14      -0.9411    -8.6811    -1.8246  C.ar    1  <O>11      -0.0358
  22 C15      -0.9294    -7.2990    -1.6136  C.ar    1  <O>11      -0.0597
  23 C16      -0.9710    -6.7859    -0.3149  C.ar    1  <O>11      -0.0582
  24 C17      -1.0262    -7.6657     0.7721  C.ar    1  <O>11      -0.0183
  25 C18      -1.0386    -9.0466     0.5711  C.ar    1  <O>11       0.1391
  26 O5       -1.0963    -9.8596     1.5758  O.3     1  <O>11      -0.5049
  27 C19       0.7288   -10.6699    -3.5299  C.ar    1  <O>11      -0.0230
  28 H1        3.0270   -10.7100    -2.5640  H       1  <O>11       0.1552
  29 H2        3.8152   -10.4036    -1.1155  H       1  <O>11       0.2922
  30 H3       -0.6323   -11.6255    -0.2256  H       1  <O>11       0.1738
  31 H4       -1.0975   -10.7728     1.2536  H       1  <O>11       0.2922
  32 H5        5.2202    -9.4444    -5.1677  H       1  <O>11       0.0637
  33 H6        7.5625    -8.8802    -4.8752  H       1  <O>11       0.0618
  34 H7        8.5688    -8.9553    -2.6624  H       1  <O>11       0.0619
  35 H8        7.2155    -9.5854    -0.7450  H       1  <O>11       0.0655
  36 H9        1.4142    -9.6139    -6.6441  H       1  <O>11       0.0625
  37 H10      -0.9338   -10.1724    -6.9461  H       1  <O>11       0.0618
  38 H11      -2.2293   -11.0451    -5.0826  H       1  <O>11       0.0637
  39 H12      -0.9139    -9.0538    -2.7865  H       1  <O>11       0.0638
  40 H13      -0.8899    -6.6559    -2.4198  H       1  <O>11       0.0618
  41 H14      -0.9611    -5.7659    -0.1583  H       1  <O>11       0.0619
  42 H15      -1.0580    -7.2893     1.7325  H       1  <O>11       0.0655
  43 H16       1.1781   -10.8100    -2.6114  H       1  <O>11       0.0645
@<TRIPOS>BOND
     1     1     2    2
     2     2     3   am
     3     3     4    1
     4     4     5   ar
     5     5     6   ar
     6     6     7   ar
     7     7     8   ar
     8     8     9   ar
     9     4     9   ar
    10     9    10    1
    11     2    11    1
    12    11    12   ar
    13    12    13   ar
    14    13    14   ar
    15    14    15   ar
    16    15    16    1
    17    16    17    2
    18    16    18    2
    19    16    19    1
    20    19    20    1
    21    20    21   ar
    22    21    22   ar
    23    22    23   ar
    24    23    24   ar
    25    24    25   ar
    26    20    25   ar
    27    25    26    1
    28    15    27   ar
    29    11    27   ar
    30     3    28    1
    31    10    29    1
    32    19    30    1
    33    26    31    1
    34     5    32    1
    35     6    33    1
    36     7    34    1
    37     8    35    1
    38    12    36    1
    39    13    37    1
    40    14    38    1
    41    21    39    1
    42    22    40    1
    43    23    41    1
    44    24    42    1
    45    27    43    1
