@<TRIPOS>MOLECULE
mol25_1_1
 49 52 0 0 0
SMALL
USER_CHARGES
****
VDW energy = -60.16
@<TRIPOS>ATOM
   1 O1        8.7381    -1.4068    -2.6744  O.2     1  <O>11      -0.2752
   2 C1        7.6234    -1.0459    -3.0216  C.2     1  <O>11       0.2216
   3 C2        6.7510    -0.2990    -2.0700  C.3     1  <O>11       0.0687
   4 C3        7.4590    -0.1250    -0.7860  C.ar    1  <O>11       0.0780
   5 N1        7.2738    -1.1113     0.1273  N.ar    1  <O>11      -0.1748
   6 N2        7.8032    -0.9746     1.3639  N.ar    1  <O>11      -0.2425
   7 C4        8.5122     0.1405     1.6571  C.ar    1  <O>11       0.2725
   8 O2        8.9520     0.2652     2.9887  O.2     1  <O>11      -0.2658
   9 C5        8.8181     1.1406     0.7225  C.ar    1  <O>11       0.0496
  10 C6        9.6078     2.2762     1.0104  C.ar    1  <O>11      -0.0487
  11 C7        9.8460     3.2515     0.0410  C.ar    1  <O>11      -0.0610
  12 C8        9.2966     3.1146    -1.2286  C.ar    1  <O>11      -0.0611
  13 C9        8.5069     2.0039    -1.5290  C.ar    1  <O>11      -0.0521
  14 C10       8.2616     1.0015    -0.5623  C.ar    1  <O>11       0.0108
  15 N3        7.1750    -1.3270    -4.2840  N.am    1  <O>11      -0.2982
  16 C11       7.9900    -2.0440    -5.2240  C.3     1  <O>11       0.0304
  17 C12       8.1720    -1.1960    -6.5020  C.3     1  <O>11       0.0280
  18 N4        6.8140    -0.7340    -7.0380  N.pl3   1  <O>11      -0.3269
  19 C13       6.4170    -0.9750    -8.4020  C.ar    1  <O>11       0.0303
  20 C14       5.7310    -2.1527    -8.7437  C.ar    1  <O>11      -0.0406
  21 C15       5.3561    -2.3918   -10.0712  C.ar    1  <O>11      -0.0595
  22 C16       5.6567    -1.4577   -11.0647  C.ar    1  <O>11      -0.0500
  23 C17       6.3332    -0.2811   -10.7242  C.ar    1  <O>11       0.0566
  24 C18       6.6481     0.7020   -11.7785  C.3     1  <O>11       0.4175
  25 F1        7.3123     1.7775   -11.2220  F       1  <O>11      -0.1659
  26 F2        5.4768     1.1387   -12.3658  F       1  <O>11      -0.1659
  27 F3        7.4494     0.1108   -12.7352  F       1  <O>11      -0.1659
  28 C19       6.7101    -0.0336    -9.4022  C.ar    1  <O>11      -0.0290
  29 C20       5.9900    -0.0200    -5.9630  C.3     1  <O>11       0.0280
  30 C21       5.8730    -0.9180    -4.7220  C.3     1  <O>11       0.0304
  31 H1        6.5110     0.6790    -2.4880  H       1  <O>11       0.0423
  32 H2        5.8310    -0.8590    -1.9040  H       1  <O>11       0.0423
  33 H3        7.6690    -1.6952     2.0590  H       1  <O>11       0.1921
  34 H4        8.9650    -2.2450    -4.7790  H       1  <O>11       0.0480
  35 H5        7.5050    -2.9860    -5.4790  H       1  <O>11       0.0480
  36 H6        8.7810    -0.3220    -6.2690  H       1  <O>11       0.0479
  37 H7        8.6720    -1.7960    -7.2620  H       1  <O>11       0.0479
  38 H8        6.4830     0.9140    -5.6900  H       1  <O>11       0.0479
  39 H9        4.9950     0.1940    -6.3510  H       1  <O>11       0.0479
  40 H10       5.3820    -0.3650    -3.9220  H       1  <O>11       0.0480
  41 H11       5.2830    -1.8000    -4.9700  H       1  <O>11       0.0480
  42 H12      10.0150     2.3861     1.9523  H       1  <O>11       0.0625
  43 H13      10.4288     4.0728     0.2663  H       1  <O>11       0.0618
  44 H14       9.4726     3.8333    -1.9480  H       1  <O>11       0.0618
  45 H15       8.0956     1.9129    -2.4711  H       1  <O>11       0.0624
  46 H16       5.5025    -2.8446    -8.0129  H       1  <O>11       0.0636
  47 H17       4.8563    -3.2608   -10.3162  H       1  <O>11       0.0618
  48 H18       5.3817    -1.6339   -12.0436  H       1  <O>11       0.0623
  49 H19       7.2035     0.8400    -9.1606  H       1  <O>11       0.0641
@<TRIPOS>BOND
     1     1     2    2
     2     2     3    1
     3     3     4    1
     4     4     5   ar
     5     5     6   ar
     6     6     7   ar
     7     7     8    2
     8     7     9   ar
     9     9    10   ar
    10    10    11   ar
    11    11    12   ar
    12    12    13   ar
    13    13    14   ar
    14     4    14   ar
    15     9    14   ar
    16     2    15   am
    17    15    16    1
    18    16    17    1
    19    17    18    1
    20    18    19    1
    21    19    20   ar
    22    20    21   ar
    23    21    22   ar
    24    22    23   ar
    25    23    24    1
    26    24    25    1
    27    24    26    1
    28    24    27    1
    29    23    28   ar
    30    19    28   ar
    31    18    29    1
    32    29    30    1
    33    15    30    1
    34     3    31    1
    35     3    32    1
    36     6    33    1
    37    16    34    1
    38    16    35    1
    39    17    36    1
    40    17    37    1
    41    29    38    1
    42    29    39    1
    43    30    40    1
    44    30    41    1
    45    10    42    1
    46    11    43    1
    47    12    44    1
    48    13    45    1
    49    20    46    1
    50    21    47    1
    51    22    48    1
    52    28    49    1
@<TRIPOS>MOLECULE
mol25_1_2
 49 52 0 0 0
SMALL
USER_CHARGES
****
VDW energy = -60.01
@<TRIPOS>ATOM
   1 O1        8.7381    -1.4068    -2.6744  O.2     1  <O>11      -0.2752
   2 C1        7.6234    -1.0459    -3.0216  C.2     1  <O>11       0.2216
   3 C2        6.7510    -0.2990    -2.0700  C.3     1  <O>11       0.0687
   4 C3        7.4590    -0.1250    -0.7860  C.ar    1  <O>11       0.0780
   5 N1        7.2738    -1.1113     0.1273  N.ar    1  <O>11      -0.1748
   6 N2        7.8032    -0.9746     1.3639  N.ar    1  <O>11      -0.2425
   7 C4        8.5122     0.1405     1.6571  C.ar    1  <O>11       0.2725
   8 O2        8.9520     0.2652     2.9887  O.2     1  <O>11      -0.2658
   9 C5        8.8181     1.1406     0.7225  C.ar    1  <O>11       0.0496
  10 C6        9.6078     2.2762     1.0104  C.ar    1  <O>11      -0.0487
  11 C7        9.8460     3.2515     0.0410  C.ar    1  <O>11      -0.0610
  12 C8        9.2966     3.1146    -1.2286  C.ar    1  <O>11      -0.0611
  13 C9        8.5069     2.0039    -1.5290  C.ar    1  <O>11      -0.0521
  14 C10       8.2616     1.0015    -0.5623  C.ar    1  <O>11       0.0108
  15 N3        7.1750    -1.3270    -4.2840  N.am    1  <O>11      -0.2982
  16 C11       5.8705    -0.9168    -4.7222  C.3     1  <O>11       0.0304
  17 C12       5.0694    -2.1528    -5.1869  C.3     1  <O>11       0.0280
  18 N4        5.8742    -2.9616    -6.2082  N.pl3   1  <O>11      -0.3269
  19 C13       5.3295    -3.3110    -7.4955  C.ar    1  <O>11       0.0303
  20 C14       5.5034    -2.4544    -8.5957  C.ar    1  <O>11      -0.0406
  21 C15       4.9636    -2.7887    -9.8434  C.ar    1  <O>11      -0.0595
  22 C16       4.2529    -3.9799   -10.0044  C.ar    1  <O>11      -0.0500
  23 C17       4.0855    -4.8372    -8.9113  C.ar    1  <O>11       0.0566
  24 C18       3.3333    -6.0943    -9.0877  C.3     1  <O>11       0.4175
  25 F1        3.2925    -6.7790    -7.8889  F       1  <O>11      -0.1659
  26 F2        3.9571    -6.8743   -10.0418  F       1  <O>11      -0.1659
  27 F3        2.0464    -5.8075    -9.4983  F       1  <O>11      -0.1659
  28 C19       4.6215    -4.5124    -7.6630  C.ar    1  <O>11      -0.0290
  29 C20       7.2669    -3.3192    -5.6819  C.3     1  <O>11       0.0280
  30 C21       7.9879    -2.0427    -5.2228  C.3     1  <O>11       0.0304
  31 H1        6.5110     0.6790    -2.4880  H       1  <O>11       0.0423
  32 H2        5.8310    -0.8590    -1.9040  H       1  <O>11       0.0423
  33 H3        7.6690    -1.6952     2.0590  H       1  <O>11       0.1921
  34 H4        5.3466    -0.4329    -3.8973  H       1  <O>11       0.0480
  35 H5        5.9707    -0.2161    -5.5508  H       1  <O>11       0.0480
  36 H6        4.8494    -2.7828    -4.3246  H       1  <O>11       0.0479
  37 H7        4.1368    -1.8239    -5.6449  H       1  <O>11       0.0479
  38 H8        7.1703    -4.0047    -4.8389  H       1  <O>11       0.0479
  39 H9        7.8427    -3.7961    -6.4740  H       1  <O>11       0.0479
  40 H10       8.9313    -2.3121    -4.7491  H       1  <O>11       0.0480
  41 H11       8.1829    -1.4084    -6.0872  H       1  <O>11       0.0480
  42 H12      10.0150     2.3861     1.9523  H       1  <O>11       0.0625
  43 H13      10.4288     4.0728     0.2663  H       1  <O>11       0.0618
  44 H14       9.4726     3.8333    -1.9480  H       1  <O>11       0.0618
  45 H15       8.0956     1.9129    -2.4711  H       1  <O>11       0.0624
  46 H16       6.0314    -1.5749    -8.4835  H       1  <O>11       0.0636
  47 H17       5.0912    -2.1531   -10.6463  H       1  <O>11       0.0618
  48 H18       3.8536    -4.2263   -10.9236  H       1  <O>11       0.0623
  49 H19       4.4974    -5.1544    -6.8646  H       1  <O>11       0.0641
@<TRIPOS>BOND
     1     1     2    2
     2     2     3    1
     3     3     4    1
     4     4     5   ar
     5     5     6   ar
     6     6     7   ar
     7     7     8    2
     8     7     9   ar
     9     9    10   ar
    10    10    11   ar
    11    11    12   ar
    12    12    13   ar
    13    13    14   ar
    14     4    14   ar
    15     9    14   ar
    16     2    15   am
    17    15    16    1
    18    16    17    1
    19    17    18    1
    20    18    19    1
    21    19    20   ar
    22    20    21   ar
    23    21    22   ar
    24    22    23   ar
    25    23    24    1
    26    24    25    1
    27    24    26    1
    28    24    27    1
    29    23    28   ar
    30    19    28   ar
    31    18    29    1
    32    29    30    1
    33    15    30    1
    34     3    31    1
    35     3    32    1
    36     6    33    1
    37    16    34    1
    38    16    35    1
    39    17    36    1
    40    17    37    1
    41    29    38    1
    42    29    39    1
    43    30    40    1
    44    30    41    1
    45    10    42    1
    46    11    43    1
    47    12    44    1
    48    13    45    1
    49    20    46    1
    50    21    47    1
    51    22    48    1
    52    28    49    1
@<TRIPOS>MOLECULE
mol25_1_3
 49 52 0 0 0
SMALL
USER_CHARGES
****
VDW energy = -59.83
@<TRIPOS>ATOM
   1 O1        8.7381    -1.4068    -2.6744  O.2     1  <O>11      -0.2752
   2 C1        7.6234    -1.0459    -3.0216  C.2     1  <O>11       0.2216
   3 C2        6.7510    -0.2990    -2.0700  C.3     1  <O>11       0.0687
   4 C3        7.4590    -0.1250    -0.7860  C.ar    1  <O>11       0.0780
   5 N1        7.2738    -1.1113     0.1273  N.ar    1  <O>11      -0.1748
   6 N2        7.8032    -0.9746     1.3639  N.ar    1  <O>11      -0.2425
   7 C4        8.5122     0.1405     1.6571  C.ar    1  <O>11       0.2725
   8 O2        8.9520     0.2652     2.9887  O.2     1  <O>11      -0.2658
   9 C5        8.8181     1.1406     0.7225  C.ar    1  <O>11       0.0496
  10 C6        9.6078     2.2762     1.0104  C.ar    1  <O>11      -0.0487
  11 C7        9.8460     3.2515     0.0410  C.ar    1  <O>11      -0.0610
  12 C8        9.2966     3.1146    -1.2286  C.ar    1  <O>11      -0.0611
  13 C9        8.5069     2.0039    -1.5290  C.ar    1  <O>11      -0.0521
  14 C10       8.2616     1.0015    -0.5623  C.ar    1  <O>11       0.0108
  15 N3        7.1750    -1.3270    -4.2840  N.am    1  <O>11      -0.2982
  16 C11       7.9900    -2.0440    -5.2240  C.3     1  <O>11       0.0304
  17 C12       8.1720    -1.1960    -6.5020  C.3     1  <O>11       0.0280
  18 N4        6.8140    -0.7340    -7.0380  N.pl3   1  <O>11      -0.3269
  19 C13       6.4170    -0.9750    -8.4020  C.ar    1  <O>11       0.0303
  20 C14       7.1025    -0.3553    -9.4605  C.ar    1  <O>11      -0.0406
  21 C15       6.7087    -0.5804   -10.7849  C.ar    1  <O>11      -0.0595
  22 C16       5.6344    -1.4280   -11.0635  C.ar    1  <O>11      -0.0500
  23 C17       4.9559    -2.0515   -10.0105  C.ar    1  <O>11       0.0566
  24 C18       3.8214    -2.9457   -10.3112  C.3     1  <O>11       0.4175
  25 F1        3.3050    -3.4474    -9.1325  F       1  <O>11      -0.1659
  26 F2        4.2556    -3.9899   -11.1042  F       1  <O>11      -0.1659
  27 F3        2.8414    -2.2382   -10.9790  F       1  <O>11      -0.1659
  28 C19       5.3425    -1.8336    -8.6861  C.ar    1  <O>11      -0.0290
  29 C20       5.9900    -0.0200    -5.9630  C.3     1  <O>11       0.0280
  30 C21       5.8730    -0.9180    -4.7220  C.3     1  <O>11       0.0304
  31 H1        6.5110     0.6790    -2.4880  H       1  <O>11       0.0423
  32 H2        5.8310    -0.8590    -1.9040  H       1  <O>11       0.0423
  33 H3        7.6690    -1.6952     2.0590  H       1  <O>11       0.1921
  34 H4        8.9650    -2.2450    -4.7790  H       1  <O>11       0.0480
  35 H5        7.5050    -2.9860    -5.4790  H       1  <O>11       0.0480
  36 H6        8.7810    -0.3220    -6.2690  H       1  <O>11       0.0479
  37 H7        8.6720    -1.7960    -7.2620  H       1  <O>11       0.0479
  38 H8        6.4830     0.9140    -5.6900  H       1  <O>11       0.0479
  39 H9        4.9950     0.1940    -6.3510  H       1  <O>11       0.0479
  40 H10       5.3820    -0.3650    -3.9220  H       1  <O>11       0.0480
  41 H11       5.2830    -1.8000    -4.9700  H       1  <O>11       0.0480
  42 H12      10.0150     2.3861     1.9523  H       1  <O>11       0.0625
  43 H13      10.4288     4.0728     0.2663  H       1  <O>11       0.0618
  44 H14       9.4726     3.8333    -1.9480  H       1  <O>11       0.0618
  45 H15       8.0956     1.9129    -2.4711  H       1  <O>11       0.0624
  46 H16       7.8998     0.2687    -9.2607  H       1  <O>11       0.0636
  47 H17       7.2137    -0.1188   -11.5575  H       1  <O>11       0.0618
  48 H18       5.3429    -1.5935   -12.0395  H       1  <O>11       0.0623
  49 H19       4.8391    -2.3029    -7.9171  H       1  <O>11       0.0641
@<TRIPOS>BOND
     1     1     2    2
     2     2     3    1
     3     3     4    1
     4     4     5   ar
     5     5     6   ar
     6     6     7   ar
     7     7     8    2
     8     7     9   ar
     9     9    10   ar
    10    10    11   ar
    11    11    12   ar
    12    12    13   ar
    13    13    14   ar
    14     4    14   ar
    15     9    14   ar
    16     2    15   am
    17    15    16    1
    18    16    17    1
    19    17    18    1
    20    18    19    1
    21    19    20   ar
    22    20    21   ar
    23    21    22   ar
    24    22    23   ar
    25    23    24    1
    26    24    25    1
    27    24    26    1
    28    24    27    1
    29    23    28   ar
    30    19    28   ar
    31    18    29    1
    32    29    30    1
    33    15    30    1
    34     3    31    1
    35     3    32    1
    36     6    33    1
    37    16    34    1
    38    16    35    1
    39    17    36    1
    40    17    37    1
    41    29    38    1
    42    29    39    1
    43    30    40    1
    44    30    41    1
    45    10    42    1
    46    11    43    1
    47    12    44    1
    48    13    45    1
    49    20    46    1
    50    21    47    1
    51    22    48    1
    52    28    49    1
@<TRIPOS>MOLECULE
mol25_1_4
 49 52 0 0 0
SMALL
USER_CHARGES
****
VDW energy = -59.70
@<TRIPOS>ATOM
   1 O1        8.7381    -1.4068    -2.6744  O.2     1  <O>11      -0.2752
   2 C1        7.6234    -1.0459    -3.0216  C.2     1  <O>11       0.2216
   3 C2        6.7510    -0.2990    -2.0700  C.3     1  <O>11       0.0687
   4 C3        7.4590    -0.1250    -0.7860  C.ar    1  <O>11       0.0780
   5 N1        7.2738    -1.1113     0.1273  N.ar    1  <O>11      -0.1748
   6 N2        7.8032    -0.9746     1.3639  N.ar    1  <O>11      -0.2425
   7 C4        8.5122     0.1405     1.6571  C.ar    1  <O>11       0.2725
   8 O2        8.9520     0.2652     2.9887  O.2     1  <O>11      -0.2658
   9 C5        8.8181     1.1406     0.7225  C.ar    1  <O>11       0.0496
  10 C6        9.6078     2.2762     1.0104  C.ar    1  <O>11      -0.0487
  11 C7        9.8460     3.2515     0.0410  C.ar    1  <O>11      -0.0610
  12 C8        9.2966     3.1146    -1.2286  C.ar    1  <O>11      -0.0611
  13 C9        8.5069     2.0039    -1.5290  C.ar    1  <O>11      -0.0521
  14 C10       8.2616     1.0015    -0.5623  C.ar    1  <O>11       0.0108
  15 N3        7.1750    -1.3270    -4.2840  N.am    1  <O>11      -0.2982
  16 C11       7.9900    -2.0440    -5.2240  C.3     1  <O>11       0.0304
  17 C12       8.1720    -1.1960    -6.5020  C.3     1  <O>11       0.0280
  18 N4        6.8140    -0.7340    -7.0380  N.pl3   1  <O>11      -0.3269
  19 C13       6.4170    -0.9750    -8.4020  C.ar    1  <O>11       0.0303
  20 C14       6.2077    -2.2873    -8.8587  C.ar    1  <O>11      -0.0406
  21 C15       5.8336    -2.5215   -10.1873  C.ar    1  <O>11      -0.0595
  22 C16       5.6602    -1.4509   -11.0669  C.ar    1  <O>11      -0.0500
  23 C17       5.8611    -0.1433   -10.6111  C.ar    1  <O>11       0.0566
  24 C18       5.6765     0.9837   -11.5454  C.3     1  <O>11       0.4175
  25 F1        5.9246     2.1727   -10.8880  F       1  <O>11      -0.1659
  26 F2        4.3789     0.9820   -12.0186  F       1  <O>11      -0.1659
  27 F3        6.5522     0.8520   -12.6050  F       1  <O>11      -0.1659
  28 C19       6.2333     0.0999    -9.2870  C.ar    1  <O>11      -0.0290
  29 C20       5.9900    -0.0200    -5.9630  C.3     1  <O>11       0.0280
  30 C21       5.8730    -0.9180    -4.7220  C.3     1  <O>11       0.0304
  31 H1        6.5110     0.6790    -2.4880  H       1  <O>11       0.0423
  32 H2        5.8310    -0.8590    -1.9040  H       1  <O>11       0.0423
  33 H3        7.6690    -1.6952     2.0590  H       1  <O>11       0.1921
  34 H4        8.9650    -2.2450    -4.7790  H       1  <O>11       0.0480
  35 H5        7.5050    -2.9860    -5.4790  H       1  <O>11       0.0480
  36 H6        8.7810    -0.3220    -6.2690  H       1  <O>11       0.0479
  37 H7        8.6720    -1.7960    -7.2620  H       1  <O>11       0.0479
  38 H8        6.4830     0.9140    -5.6900  H       1  <O>11       0.0479
  39 H9        4.9950     0.1940    -6.3510  H       1  <O>11       0.0479
  40 H10       5.3820    -0.3650    -3.9220  H       1  <O>11       0.0480
  41 H11       5.2830    -1.8000    -4.9700  H       1  <O>11       0.0480
  42 H12      10.0150     2.3861     1.9523  H       1  <O>11       0.0625
  43 H13      10.4288     4.0728     0.2663  H       1  <O>11       0.0618
  44 H14       9.4726     3.8333    -1.9480  H       1  <O>11       0.0618
  45 H15       8.0956     1.9129    -2.4711  H       1  <O>11       0.0624
  46 H16       6.3303    -3.0820    -8.2119  H       1  <O>11       0.0636
  47 H17       5.6857    -3.4879   -10.5175  H       1  <O>11       0.0618
  48 H18       5.3856    -1.6229   -12.0467  H       1  <O>11       0.0623
  49 H19       6.3732     1.0685    -8.9593  H       1  <O>11       0.0641
@<TRIPOS>BOND
     1     1     2    2
     2     2     3    1
     3     3     4    1
     4     4     5   ar
     5     5     6   ar
     6     6     7   ar
     7     7     8    2
     8     7     9   ar
     9     9    10   ar
    10    10    11   ar
    11    11    12   ar
    12    12    13   ar
    13    13    14   ar
    14     4    14   ar
    15     9    14   ar
    16     2    15   am
    17    15    16    1
    18    16    17    1
    19    17    18    1
    20    18    19    1
    21    19    20   ar
    22    20    21   ar
    23    21    22   ar
    24    22    23   ar
    25    23    24    1
    26    24    25    1
    27    24    26    1
    28    24    27    1
    29    23    28   ar
    30    19    28   ar
    31    18    29    1
    32    29    30    1
    33    15    30    1
    34     3    31    1
    35     3    32    1
    36     6    33    1
    37    16    34    1
    38    16    35    1
    39    17    36    1
    40    17    37    1
    41    29    38    1
    42    29    39    1
    43    30    40    1
    44    30    41    1
    45    10    42    1
    46    11    43    1
    47    12    44    1
    48    13    45    1
    49    20    46    1
    50    21    47    1
    51    22    48    1
    52    28    49    1
@<TRIPOS>MOLECULE
mol25_1_5
 49 52 0 0 0
SMALL
USER_CHARGES
****
VDW energy = -59.44
@<TRIPOS>ATOM
   1 O1        8.7381    -1.4068    -2.6744  O.2     1  <O>11      -0.2752
   2 C1        7.6234    -1.0459    -3.0216  C.2     1  <O>11       0.2216
   3 C2        6.7510    -0.2990    -2.0700  C.3     1  <O>11       0.0687
   4 C3        7.4590    -0.1250    -0.7860  C.ar    1  <O>11       0.0780
   5 N1        8.2092     1.0001    -0.6747  N.ar    1  <O>11      -0.1748
   6 N2        8.9699     1.1805     0.4285  N.ar    1  <O>11      -0.2425
   7 C4        8.9575     0.2366     1.3986  C.ar    1  <O>11       0.2725
   8 O2        9.8445     0.4380     2.4732  O.2     1  <O>11      -0.2658
   9 C5        8.1258    -0.8927     1.3798  C.ar    1  <O>11       0.0496
  10 C6        8.0677    -1.8485     2.4186  C.ar    1  <O>11      -0.0487
  11 C7        7.2409    -2.9685     2.3203  C.ar    1  <O>11      -0.0610
  12 C8        6.4634    -3.1576     1.1837  C.ar    1  <O>11      -0.0611
  13 C9        6.5139    -2.2287     0.1435  C.ar    1  <O>11      -0.0521
  14 C10       7.3393    -1.0836     0.2288  C.ar    1  <O>11       0.0108
  15 N3        7.1750    -1.3270    -4.2840  N.am    1  <O>11      -0.2982
  16 C11       7.9900    -2.0440    -5.2240  C.3     1  <O>11       0.0304
  17 C12       8.1720    -1.1960    -6.5020  C.3     1  <O>11       0.0280
  18 N4        6.8140    -0.7340    -7.0380  N.pl3   1  <O>11      -0.3269
  19 C13       6.4170    -0.9750    -8.4020  C.ar    1  <O>11       0.0303
  20 C14       6.7120    -0.0346    -9.4035  C.ar    1  <O>11      -0.0406
  21 C15       6.3155    -0.2638   -10.7264  C.ar    1  <O>11      -0.0595
  22 C16       5.6284    -1.4326   -11.0609  C.ar    1  <O>11      -0.0500
  23 C17       5.3407    -2.3731   -10.0657  C.ar    1  <O>11       0.0566
  24 C18       4.6143    -3.6061   -10.4253  C.3     1  <O>11       0.4175
  25 F1        5.5194    -4.5888   -10.7752  F       1  <O>11      -0.1659
  26 F2        3.7758    -3.3518   -11.4931  F       1  <O>11      -0.1659
  27 F3        3.8666    -4.0320    -9.3452  F       1  <O>11      -0.1659
  28 C19       5.7334    -2.1534    -8.7434  C.ar    1  <O>11      -0.0290
  29 C20       5.9900    -0.0200    -5.9630  C.3     1  <O>11       0.0280
  30 C21       5.8730    -0.9180    -4.7220  C.3     1  <O>11       0.0304
  31 H1        6.5110     0.6790    -2.4880  H       1  <O>11       0.0423
  32 H2        5.8310    -0.8590    -1.9040  H       1  <O>11       0.0423
  33 H3        9.5407     2.0084     0.5251  H       1  <O>11       0.1921
  34 H4        8.9650    -2.2450    -4.7790  H       1  <O>11       0.0480
  35 H5        7.5050    -2.9860    -5.4790  H       1  <O>11       0.0480
  36 H6        8.7810    -0.3220    -6.2690  H       1  <O>11       0.0479
  37 H7        8.6720    -1.7960    -7.2620  H       1  <O>11       0.0479
  38 H8        6.4830     0.9140    -5.6900  H       1  <O>11       0.0479
  39 H9        4.9950     0.1940    -6.3510  H       1  <O>11       0.0479
  40 H10       5.3820    -0.3650    -3.9220  H       1  <O>11       0.0480
  41 H11       5.2830    -1.8000    -4.9700  H       1  <O>11       0.0480
  42 H12       8.6457    -1.7163     3.2633  H       1  <O>11       0.0625
  43 H13       7.2067    -3.6549     3.0901  H       1  <O>11       0.0618
  44 H14       5.8496    -3.9840     1.1091  H       1  <O>11       0.0618
  45 H15       5.9402    -2.3797    -0.7009  H       1  <O>11       0.0624
  46 H16       7.2233     0.8289    -9.1628  H       1  <O>11       0.0636
  47 H17       6.5315     0.4329   -11.4564  H       1  <O>11       0.0618
  48 H18       5.3348    -1.6016   -12.0357  H       1  <O>11       0.0623
  49 H19       5.5215    -2.8562    -8.0180  H       1  <O>11       0.0641
@<TRIPOS>BOND
     1     1     2    2
     2     2     3    1
     3     3     4    1
     4     4     5   ar
     5     5     6   ar
     6     6     7   ar
     7     7     8    2
     8     7     9   ar
     9     9    10   ar
    10    10    11   ar
    11    11    12   ar
    12    12    13   ar
    13    13    14   ar
    14     4    14   ar
    15     9    14   ar
    16     2    15   am
    17    15    16    1
    18    16    17    1
    19    17    18    1
    20    18    19    1
    21    19    20   ar
    22    20    21   ar
    23    21    22   ar
    24    22    23   ar
    25    23    24    1
    26    24    25    1
    27    24    26    1
    28    24    27    1
    29    23    28   ar
    30    19    28   ar
    31    18    29    1
    32    29    30    1
    33    15    30    1
    34     3    31    1
    35     3    32    1
    36     6    33    1
    37    16    34    1
    38    16    35    1
    39    17    36    1
    40    17    37    1
    41    29    38    1
    42    29    39    1
    43    30    40    1
    44    30    41    1
    45    10    42    1
    46    11    43    1
    47    12    44    1
    48    13    45    1
    49    20    46    1
    50    21    47    1
    51    22    48    1
    52    28    49    1
@<TRIPOS>MOLECULE
mol25_1_6
 49 52 0 0 0
SMALL
USER_CHARGES
****
VDW energy = -59.36
@<TRIPOS>ATOM
   1 O1        8.7381    -1.4068    -2.6744  O.2     1  <O>11      -0.2752
   2 C1        7.6234    -1.0459    -3.0216  C.2     1  <O>11       0.2216
   3 C2        6.7510    -0.2990    -2.0700  C.3     1  <O>11       0.0687
   4 C3        7.4590    -0.1250    -0.7860  C.ar    1  <O>11       0.0780
   5 N1        8.2092     1.0001    -0.6747  N.ar    1  <O>11      -0.1748
   6 N2        8.9699     1.1805     0.4285  N.ar    1  <O>11      -0.2425
   7 C4        8.9575     0.2366     1.3986  C.ar    1  <O>11       0.2725
   8 O2        9.8445     0.4380     2.4732  O.2     1  <O>11      -0.2658
   9 C5        8.1258    -0.8927     1.3798  C.ar    1  <O>11       0.0496
  10 C6        8.0677    -1.8485     2.4186  C.ar    1  <O>11      -0.0487
  11 C7        7.2409    -2.9685     2.3203  C.ar    1  <O>11      -0.0610
  12 C8        6.4634    -3.1576     1.1837  C.ar    1  <O>11      -0.0611
  13 C9        6.5139    -2.2287     0.1435  C.ar    1  <O>11      -0.0521
  14 C10       7.3393    -1.0836     0.2288  C.ar    1  <O>11       0.0108
  15 N3        7.1750    -1.3270    -4.2840  N.am    1  <O>11      -0.2982
  16 C11       5.8705    -0.9168    -4.7222  C.3     1  <O>11       0.0304
  17 C12       5.0694    -2.1528    -5.1869  C.3     1  <O>11       0.0280
  18 N4        5.8742    -2.9616    -6.2082  N.pl3   1  <O>11      -0.3269
  19 C13       5.3295    -3.3110    -7.4955  C.ar    1  <O>11       0.0303
  20 C14       5.5034    -2.4544    -8.5957  C.ar    1  <O>11      -0.0406
  21 C15       4.9636    -2.7887    -9.8434  C.ar    1  <O>11      -0.0595
  22 C16       4.2529    -3.9799   -10.0044  C.ar    1  <O>11      -0.0500
  23 C17       4.0855    -4.8372    -8.9113  C.ar    1  <O>11       0.0566
  24 C18       3.3333    -6.0943    -9.0877  C.3     1  <O>11       0.4175
  25 F1        2.0460    -5.8074    -9.4976  F       1  <O>11      -0.1659
  26 F2        3.2923    -6.7786    -7.8887  F       1  <O>11      -0.1659
  27 F3        3.9571    -6.8746   -10.0411  F       1  <O>11      -0.1659
  28 C19       4.6215    -4.5124    -7.6630  C.ar    1  <O>11      -0.0290
  29 C20       7.2669    -3.3192    -5.6819  C.3     1  <O>11       0.0280
  30 C21       7.9879    -2.0427    -5.2228  C.3     1  <O>11       0.0304
  31 H1        6.5110     0.6790    -2.4880  H       1  <O>11       0.0423
  32 H2        5.8310    -0.8590    -1.9040  H       1  <O>11       0.0423
  33 H3        9.5407     2.0084     0.5251  H       1  <O>11       0.1921
  34 H4        5.3466    -0.4329    -3.8973  H       1  <O>11       0.0480
  35 H5        5.9707    -0.2161    -5.5508  H       1  <O>11       0.0480
  36 H6        4.8494    -2.7828    -4.3246  H       1  <O>11       0.0479
  37 H7        4.1368    -1.8239    -5.6449  H       1  <O>11       0.0479
  38 H8        7.1703    -4.0047    -4.8389  H       1  <O>11       0.0479
  39 H9        7.8427    -3.7961    -6.4740  H       1  <O>11       0.0479
  40 H10       8.9313    -2.3121    -4.7491  H       1  <O>11       0.0480
  41 H11       8.1829    -1.4084    -6.0872  H       1  <O>11       0.0480
  42 H12       8.6457    -1.7163     3.2633  H       1  <O>11       0.0625
  43 H13       7.2067    -3.6549     3.0901  H       1  <O>11       0.0618
  44 H14       5.8496    -3.9840     1.1091  H       1  <O>11       0.0618
  45 H15       5.9402    -2.3797    -0.7009  H       1  <O>11       0.0624
  46 H16       6.0314    -1.5749    -8.4835  H       1  <O>11       0.0636
  47 H17       5.0912    -2.1531   -10.6463  H       1  <O>11       0.0618
  48 H18       3.8536    -4.2263   -10.9236  H       1  <O>11       0.0623
  49 H19       4.4974    -5.1544    -6.8646  H       1  <O>11       0.0641
@<TRIPOS>BOND
     1     1     2    2
     2     2     3    1
     3     3     4    1
     4     4     5   ar
     5     5     6   ar
     6     6     7   ar
     7     7     8    2
     8     7     9   ar
     9     9    10   ar
    10    10    11   ar
    11    11    12   ar
    12    12    13   ar
    13    13    14   ar
    14     4    14   ar
    15     9    14   ar
    16     2    15   am
    17    15    16    1
    18    16    17    1
    19    17    18    1
    20    18    19    1
    21    19    20   ar
    22    20    21   ar
    23    21    22   ar
    24    22    23   ar
    25    23    24    1
    26    24    25    1
    27    24    26    1
    28    24    27    1
    29    23    28   ar
    30    19    28   ar
    31    18    29    1
    32    29    30    1
    33    15    30    1
    34     3    31    1
    35     3    32    1
    36     6    33    1
    37    16    34    1
    38    16    35    1
    39    17    36    1
    40    17    37    1
    41    29    38    1
    42    29    39    1
    43    30    40    1
    44    30    41    1
    45    10    42    1
    46    11    43    1
    47    12    44    1
    48    13    45    1
    49    20    46    1
    50    21    47    1
    51    22    48    1
    52    28    49    1
@<TRIPOS>MOLECULE
mol25_1_7
 49 52 0 0 0
SMALL
USER_CHARGES
****
VDW energy = -59.28
@<TRIPOS>ATOM
   1 O1        8.7381    -1.4068    -2.6744  O.2     1  <O>11      -0.2752
   2 C1        7.6234    -1.0459    -3.0216  C.2     1  <O>11       0.2216
   3 C2        6.7510    -0.2990    -2.0700  C.3     1  <O>11       0.0687
   4 C3        7.4590    -0.1250    -0.7860  C.ar    1  <O>11       0.0780
   5 N1        8.2092     1.0001    -0.6747  N.ar    1  <O>11      -0.1748
   6 N2        8.9699     1.1805     0.4285  N.ar    1  <O>11      -0.2425
   7 C4        8.9575     0.2366     1.3986  C.ar    1  <O>11       0.2725
   8 O2        9.8445     0.4380     2.4732  O.2     1  <O>11      -0.2658
   9 C5        8.1258    -0.8927     1.3798  C.ar    1  <O>11       0.0496
  10 C6        8.0677    -1.8485     2.4186  C.ar    1  <O>11      -0.0487
  11 C7        7.2409    -2.9685     2.3203  C.ar    1  <O>11      -0.0610
  12 C8        6.4634    -3.1576     1.1837  C.ar    1  <O>11      -0.0611
  13 C9        6.5139    -2.2287     0.1435  C.ar    1  <O>11      -0.0521
  14 C10       7.3393    -1.0836     0.2288  C.ar    1  <O>11       0.0108
  15 N3        7.1750    -1.3270    -4.2840  N.am    1  <O>11      -0.2982
  16 C11       7.9900    -2.0440    -5.2240  C.3     1  <O>11       0.0304
  17 C12       8.1720    -1.1960    -6.5020  C.3     1  <O>11       0.0280
  18 N4        6.8140    -0.7340    -7.0380  N.pl3   1  <O>11      -0.3269
  19 C13       6.4170    -0.9750    -8.4020  C.ar    1  <O>11       0.0303
  20 C14       6.7120    -0.0346    -9.4035  C.ar    1  <O>11      -0.0406
  21 C15       6.3155    -0.2638   -10.7264  C.ar    1  <O>11      -0.0595
  22 C16       5.6284    -1.4326   -11.0609  C.ar    1  <O>11      -0.0500
  23 C17       5.3407    -2.3731   -10.0657  C.ar    1  <O>11       0.0566
  24 C18       4.6143    -3.6061   -10.4253  C.3     1  <O>11       0.4175
  25 F1        3.3806    -3.2770   -10.9519  F       1  <O>11      -0.1659
  26 F2        4.4401    -4.3837    -9.2972  F       1  <O>11      -0.1659
  27 F3        5.3415    -4.3126   -11.3627  F       1  <O>11      -0.1659
  28 C19       5.7334    -2.1534    -8.7434  C.ar    1  <O>11      -0.0290
  29 C20       5.9900    -0.0200    -5.9630  C.3     1  <O>11       0.0280
  30 C21       5.8730    -0.9180    -4.7220  C.3     1  <O>11       0.0304
  31 H1        6.5110     0.6790    -2.4880  H       1  <O>11       0.0423
  32 H2        5.8310    -0.8590    -1.9040  H       1  <O>11       0.0423
  33 H3        9.5407     2.0084     0.5251  H       1  <O>11       0.1921
  34 H4        8.9650    -2.2450    -4.7790  H       1  <O>11       0.0480
  35 H5        7.5050    -2.9860    -5.4790  H       1  <O>11       0.0480
  36 H6        8.7810    -0.3220    -6.2690  H       1  <O>11       0.0479
  37 H7        8.6720    -1.7960    -7.2620  H       1  <O>11       0.0479
  38 H8        6.4830     0.9140    -5.6900  H       1  <O>11       0.0479
  39 H9        4.9950     0.1940    -6.3510  H       1  <O>11       0.0479
  40 H10       5.3820    -0.3650    -3.9220  H       1  <O>11       0.0480
  41 H11       5.2830    -1.8000    -4.9700  H       1  <O>11       0.0480
  42 H12       8.6457    -1.7163     3.2633  H       1  <O>11       0.0625
  43 H13       7.2067    -3.6549     3.0901  H       1  <O>11       0.0618
  44 H14       5.8496    -3.9840     1.1091  H       1  <O>11       0.0618
  45 H15       5.9402    -2.3797    -0.7009  H       1  <O>11       0.0624
  46 H16       7.2233     0.8289    -9.1628  H       1  <O>11       0.0636
  47 H17       6.5315     0.4329   -11.4564  H       1  <O>11       0.0618
  48 H18       5.3348    -1.6016   -12.0357  H       1  <O>11       0.0623
  49 H19       5.5215    -2.8562    -8.0180  H       1  <O>11       0.0641
@<TRIPOS>BOND
     1     1     2    2
     2     2     3    1
     3     3     4    1
     4     4     5   ar
     5     5     6   ar
     6     6     7   ar
     7     7     8    2
     8     7     9   ar
     9     9    10   ar
    10    10    11   ar
    11    11    12   ar
    12    12    13   ar
    13    13    14   ar
    14     4    14   ar
    15     9    14   ar
    16     2    15   am
    17    15    16    1
    18    16    17    1
    19    17    18    1
    20    18    19    1
    21    19    20   ar
    22    20    21   ar
    23    21    22   ar
    24    22    23   ar
    25    23    24    1
    26    24    25    1
    27    24    26    1
    28    24    27    1
    29    23    28   ar
    30    19    28   ar
    31    18    29    1
    32    29    30    1
    33    15    30    1
    34     3    31    1
    35     3    32    1
    36     6    33    1
    37    16    34    1
    38    16    35    1
    39    17    36    1
    40    17    37    1
    41    29    38    1
    42    29    39    1
    43    30    40    1
    44    30    41    1
    45    10    42    1
    46    11    43    1
    47    12    44    1
    48    13    45    1
    49    20    46    1
    50    21    47    1
    51    22    48    1
    52    28    49    1
@<TRIPOS>MOLECULE
mol25_1_8
 49 52 0 0 0
SMALL
USER_CHARGES
****
VDW energy = -59.23
@<TRIPOS>ATOM
   1 O1        8.7381    -1.4068    -2.6744  O.2     1  <O>11      -0.2752
   2 C1        7.6234    -1.0459    -3.0216  C.2     1  <O>11       0.2216
   3 C2        6.7510    -0.2990    -2.0700  C.3     1  <O>11       0.0687
   4 C3        7.4590    -0.1250    -0.7860  C.ar    1  <O>11       0.0780
   5 N1        8.2092     1.0001    -0.6747  N.ar    1  <O>11      -0.1748
   6 N2        8.9699     1.1805     0.4285  N.ar    1  <O>11      -0.2425
   7 C4        8.9575     0.2366     1.3986  C.ar    1  <O>11       0.2725
   8 O2        9.8445     0.4380     2.4732  O.2     1  <O>11      -0.2658
   9 C5        8.1258    -0.8927     1.3798  C.ar    1  <O>11       0.0496
  10 C6        8.0677    -1.8485     2.4186  C.ar    1  <O>11      -0.0487
  11 C7        7.2409    -2.9685     2.3203  C.ar    1  <O>11      -0.0610
  12 C8        6.4634    -3.1576     1.1837  C.ar    1  <O>11      -0.0611
  13 C9        6.5139    -2.2287     0.1435  C.ar    1  <O>11      -0.0521
  14 C10       7.3393    -1.0836     0.2288  C.ar    1  <O>11       0.0108
  15 N3        7.1750    -1.3270    -4.2840  N.am    1  <O>11      -0.2982
  16 C11       7.9900    -2.0440    -5.2240  C.3     1  <O>11       0.0304
  17 C12       8.1720    -1.1960    -6.5020  C.3     1  <O>11       0.0280
  18 N4        6.8140    -0.7340    -7.0380  N.pl3   1  <O>11      -0.3269
  19 C13       6.4170    -0.9750    -8.4020  C.ar    1  <O>11       0.0303
  20 C14       5.7310    -2.1527    -8.7437  C.ar    1  <O>11      -0.0406
  21 C15       5.3561    -2.3918   -10.0712  C.ar    1  <O>11      -0.0595
  22 C16       5.6567    -1.4577   -11.0647  C.ar    1  <O>11      -0.0500
  23 C17       6.3332    -0.2811   -10.7242  C.ar    1  <O>11       0.0566
  24 C18       6.6481     0.7020   -11.7785  C.3     1  <O>11       0.4175
  25 F1        5.4770     1.1386   -12.3661  F       1  <O>11      -0.1659
  26 F2        7.4499     0.1106   -12.7350  F       1  <O>11      -0.1659
  27 F3        7.3129     1.7770   -11.2223  F       1  <O>11      -0.1659
  28 C19       6.7101    -0.0336    -9.4022  C.ar    1  <O>11      -0.0290
  29 C20       5.9900    -0.0200    -5.9630  C.3     1  <O>11       0.0280
  30 C21       5.8730    -0.9180    -4.7220  C.3     1  <O>11       0.0304
  31 H1        6.5110     0.6790    -2.4880  H       1  <O>11       0.0423
  32 H2        5.8310    -0.8590    -1.9040  H       1  <O>11       0.0423
  33 H3        9.5407     2.0084     0.5251  H       1  <O>11       0.1921
  34 H4        8.9650    -2.2450    -4.7790  H       1  <O>11       0.0480
  35 H5        7.5050    -2.9860    -5.4790  H       1  <O>11       0.0480
  36 H6        8.7810    -0.3220    -6.2690  H       1  <O>11       0.0479
  37 H7        8.6720    -1.7960    -7.2620  H       1  <O>11       0.0479
  38 H8        6.4830     0.9140    -5.6900  H       1  <O>11       0.0479
  39 H9        4.9950     0.1940    -6.3510  H       1  <O>11       0.0479
  40 H10       5.3820    -0.3650    -3.9220  H       1  <O>11       0.0480
  41 H11       5.2830    -1.8000    -4.9700  H       1  <O>11       0.0480
  42 H12       8.6457    -1.7163     3.2633  H       1  <O>11       0.0625
  43 H13       7.2067    -3.6549     3.0901  H       1  <O>11       0.0618
  44 H14       5.8496    -3.9840     1.1091  H       1  <O>11       0.0618
  45 H15       5.9402    -2.3797    -0.7009  H       1  <O>11       0.0624
  46 H16       5.5025    -2.8446    -8.0129  H       1  <O>11       0.0636
  47 H17       4.8563    -3.2608   -10.3162  H       1  <O>11       0.0618
  48 H18       5.3817    -1.6339   -12.0436  H       1  <O>11       0.0623
  49 H19       7.2035     0.8400    -9.1606  H       1  <O>11       0.0641
@<TRIPOS>BOND
     1     1     2    2
     2     2     3    1
     3     3     4    1
     4     4     5   ar
     5     5     6   ar
     6     6     7   ar
     7     7     8    2
     8     7     9   ar
     9     9    10   ar
    10    10    11   ar
    11    11    12   ar
    12    12    13   ar
    13    13    14   ar
    14     4    14   ar
    15     9    14   ar
    16     2    15   am
    17    15    16    1
    18    16    17    1
    19    17    18    1
    20    18    19    1
    21    19    20   ar
    22    20    21   ar
    23    21    22   ar
    24    22    23   ar
    25    23    24    1
    26    24    25    1
    27    24    26    1
    28    24    27    1
    29    23    28   ar
    30    19    28   ar
    31    18    29    1
    32    29    30    1
    33    15    30    1
    34     3    31    1
    35     3    32    1
    36     6    33    1
    37    16    34    1
    38    16    35    1
    39    17    36    1
    40    17    37    1
    41    29    38    1
    42    29    39    1
    43    30    40    1
    44    30    41    1
    45    10    42    1
    46    11    43    1
    47    12    44    1
    48    13    45    1
    49    20    46    1
    50    21    47    1
    51    22    48    1
    52    28    49    1
@<TRIPOS>MOLECULE
mol25_1_9
 49 52 0 0 0
SMALL
USER_CHARGES
****
VDW energy = -59.23
@<TRIPOS>ATOM
   1 O1        8.7381    -1.4068    -2.6744  O.2     1  <O>11      -0.2752
   2 C1        7.6234    -1.0459    -3.0216  C.2     1  <O>11       0.2216
   3 C2        6.7510    -0.2990    -2.0700  C.3     1  <O>11       0.0687
   4 C3        7.4590    -0.1250    -0.7860  C.ar    1  <O>11       0.0780
   5 N1        8.2092     1.0001    -0.6747  N.ar    1  <O>11      -0.1748
   6 N2        8.9699     1.1805     0.4285  N.ar    1  <O>11      -0.2425
   7 C4        8.9575     0.2366     1.3986  C.ar    1  <O>11       0.2725
   8 O2        9.8445     0.4380     2.4732  O.2     1  <O>11      -0.2658
   9 C5        8.1258    -0.8927     1.3798  C.ar    1  <O>11       0.0496
  10 C6        8.0677    -1.8485     2.4186  C.ar    1  <O>11      -0.0487
  11 C7        7.2409    -2.9685     2.3203  C.ar    1  <O>11      -0.0610
  12 C8        6.4634    -3.1576     1.1837  C.ar    1  <O>11      -0.0611
  13 C9        6.5139    -2.2287     0.1435  C.ar    1  <O>11      -0.0521
  14 C10       7.3393    -1.0836     0.2288  C.ar    1  <O>11       0.0108
  15 N3        7.1750    -1.3270    -4.2840  N.am    1  <O>11      -0.2982
  16 C11       7.9900    -2.0440    -5.2240  C.3     1  <O>11       0.0304
  17 C12       8.1720    -1.1960    -6.5020  C.3     1  <O>11       0.0280
  18 N4        6.8140    -0.7340    -7.0380  N.pl3   1  <O>11      -0.3269
  19 C13       6.4170    -0.9750    -8.4020  C.ar    1  <O>11       0.0303
  20 C14       5.7310    -2.1527    -8.7437  C.ar    1  <O>11      -0.0406
  21 C15       5.3561    -2.3918   -10.0712  C.ar    1  <O>11      -0.0595
  22 C16       5.6567    -1.4577   -11.0647  C.ar    1  <O>11      -0.0500
  23 C17       6.3332    -0.2811   -10.7242  C.ar    1  <O>11       0.0566
  24 C18       6.6481     0.7020   -11.7785  C.3     1  <O>11       0.4175
  25 F1        7.3123     1.7775   -11.2220  F       1  <O>11      -0.1659
  26 F2        5.4768     1.1387   -12.3658  F       1  <O>11      -0.1659
  27 F3        7.4494     0.1108   -12.7352  F       1  <O>11      -0.1659
  28 C19       6.7101    -0.0336    -9.4022  C.ar    1  <O>11      -0.0290
  29 C20       5.9900    -0.0200    -5.9630  C.3     1  <O>11       0.0280
  30 C21       5.8730    -0.9180    -4.7220  C.3     1  <O>11       0.0304
  31 H1        6.5110     0.6790    -2.4880  H       1  <O>11       0.0423
  32 H2        5.8310    -0.8590    -1.9040  H       1  <O>11       0.0423
  33 H3        9.5407     2.0084     0.5251  H       1  <O>11       0.1921
  34 H4        8.9650    -2.2450    -4.7790  H       1  <O>11       0.0480
  35 H5        7.5050    -2.9860    -5.4790  H       1  <O>11       0.0480
  36 H6        8.7810    -0.3220    -6.2690  H       1  <O>11       0.0479
  37 H7        8.6720    -1.7960    -7.2620  H       1  <O>11       0.0479
  38 H8        6.4830     0.9140    -5.6900  H       1  <O>11       0.0479
  39 H9        4.9950     0.1940    -6.3510  H       1  <O>11       0.0479
  40 H10       5.3820    -0.3650    -3.9220  H       1  <O>11       0.0480
  41 H11       5.2830    -1.8000    -4.9700  H       1  <O>11       0.0480
  42 H12       8.6457    -1.7163     3.2633  H       1  <O>11       0.0625
  43 H13       7.2067    -3.6549     3.0901  H       1  <O>11       0.0618
  44 H14       5.8496    -3.9840     1.1091  H       1  <O>11       0.0618
  45 H15       5.9402    -2.3797    -0.7009  H       1  <O>11       0.0624
  46 H16       5.5025    -2.8446    -8.0129  H       1  <O>11       0.0636
  47 H17       4.8563    -3.2608   -10.3162  H       1  <O>11       0.0618
  48 H18       5.3817    -1.6339   -12.0436  H       1  <O>11       0.0623
  49 H19       7.2035     0.8400    -9.1606  H       1  <O>11       0.0641
@<TRIPOS>BOND
     1     1     2    2
     2     2     3    1
     3     3     4    1
     4     4     5   ar
     5     5     6   ar
     6     6     7   ar
     7     7     8    2
     8     7     9   ar
     9     9    10   ar
    10    10    11   ar
    11    11    12   ar
    12    12    13   ar
    13    13    14   ar
    14     4    14   ar
    15     9    14   ar
    16     2    15   am
    17    15    16    1
    18    16    17    1
    19    17    18    1
    20    18    19    1
    21    19    20   ar
    22    20    21   ar
    23    21    22   ar
    24    22    23   ar
    25    23    24    1
    26    24    25    1
    27    24    26    1
    28    24    27    1
    29    23    28   ar
    30    19    28   ar
    31    18    29    1
    32    29    30    1
    33    15    30    1
    34     3    31    1
    35     3    32    1
    36     6    33    1
    37    16    34    1
    38    16    35    1
    39    17    36    1
    40    17    37    1
    41    29    38    1
    42    29    39    1
    43    30    40    1
    44    30    41    1
    45    10    42    1
    46    11    43    1
    47    12    44    1
    48    13    45    1
    49    20    46    1
    50    21    47    1
    51    22    48    1
    52    28    49    1
@<TRIPOS>MOLECULE
mol25_1_10
 49 52 0 0 0
SMALL
USER_CHARGES
****
VDW energy = -59.23
@<TRIPOS>ATOM
   1 O1        8.7381    -1.4068    -2.6744  O.2     1  <O>11      -0.2752
   2 C1        7.6234    -1.0459    -3.0216  C.2     1  <O>11       0.2216
   3 C2        6.7510    -0.2990    -2.0700  C.3     1  <O>11       0.0687
   4 C3        7.4590    -0.1250    -0.7860  C.ar    1  <O>11       0.0780
   5 N1        8.2092     1.0001    -0.6747  N.ar    1  <O>11      -0.1748
   6 N2        8.9699     1.1805     0.4285  N.ar    1  <O>11      -0.2425
   7 C4        8.9575     0.2366     1.3986  C.ar    1  <O>11       0.2725
   8 O2        9.8445     0.4380     2.4732  O.2     1  <O>11      -0.2658
   9 C5        8.1258    -0.8927     1.3798  C.ar    1  <O>11       0.0496
  10 C6        8.0677    -1.8485     2.4186  C.ar    1  <O>11      -0.0487
  11 C7        7.2409    -2.9685     2.3203  C.ar    1  <O>11      -0.0610
  12 C8        6.4634    -3.1576     1.1837  C.ar    1  <O>11      -0.0611
  13 C9        6.5139    -2.2287     0.1435  C.ar    1  <O>11      -0.0521
  14 C10       7.3393    -1.0836     0.2288  C.ar    1  <O>11       0.0108
  15 N3        7.1750    -1.3270    -4.2840  N.am    1  <O>11      -0.2982
  16 C11       7.9900    -2.0440    -5.2240  C.3     1  <O>11       0.0304
  17 C12       8.1720    -1.1960    -6.5020  C.3     1  <O>11       0.0280
  18 N4        6.8140    -0.7340    -7.0380  N.pl3   1  <O>11      -0.3269
  19 C13       6.4170    -0.9750    -8.4020  C.ar    1  <O>11       0.0303
  20 C14       5.7310    -2.1527    -8.7437  C.ar    1  <O>11      -0.0406
  21 C15       5.3561    -2.3918   -10.0712  C.ar    1  <O>11      -0.0595
  22 C16       5.6567    -1.4577   -11.0647  C.ar    1  <O>11      -0.0500
  23 C17       6.3332    -0.2811   -10.7242  C.ar    1  <O>11       0.0566
  24 C18       6.6481     0.7020   -11.7785  C.3     1  <O>11       0.4175
  25 F1        7.4501     0.1109   -12.7350  F       1  <O>11      -0.1659
  26 F2        7.3126     1.7773   -11.2218  F       1  <O>11      -0.1659
  27 F3        5.4771     1.1392   -12.3654  F       1  <O>11      -0.1659
  28 C19       6.7101    -0.0336    -9.4022  C.ar    1  <O>11      -0.0290
  29 C20       5.9900    -0.0200    -5.9630  C.3     1  <O>11       0.0280
  30 C21       5.8730    -0.9180    -4.7220  C.3     1  <O>11       0.0304
  31 H1        6.5110     0.6790    -2.4880  H       1  <O>11       0.0423
  32 H2        5.8310    -0.8590    -1.9040  H       1  <O>11       0.0423
  33 H3        9.5407     2.0084     0.5251  H       1  <O>11       0.1921
  34 H4        8.9650    -2.2450    -4.7790  H       1  <O>11       0.0480
  35 H5        7.5050    -2.9860    -5.4790  H       1  <O>11       0.0480
  36 H6        8.7810    -0.3220    -6.2690  H       1  <O>11       0.0479
  37 H7        8.6720    -1.7960    -7.2620  H       1  <O>11       0.0479
  38 H8        6.4830     0.9140    -5.6900  H       1  <O>11       0.0479
  39 H9        4.9950     0.1940    -6.3510  H       1  <O>11       0.0479
  40 H10       5.3820    -0.3650    -3.9220  H       1  <O>11       0.0480
  41 H11       5.2830    -1.8000    -4.9700  H       1  <O>11       0.0480
  42 H12       8.6457    -1.7163     3.2633  H       1  <O>11       0.0625
  43 H13       7.2067    -3.6549     3.0901  H       1  <O>11       0.0618
  44 H14       5.8496    -3.9840     1.1091  H       1  <O>11       0.0618
  45 H15       5.9402    -2.3797    -0.7009  H       1  <O>11       0.0624
  46 H16       5.5025    -2.8446    -8.0129  H       1  <O>11       0.0636
  47 H17       4.8563    -3.2608   -10.3162  H       1  <O>11       0.0618
  48 H18       5.3817    -1.6339   -12.0436  H       1  <O>11       0.0623
  49 H19       7.2035     0.8400    -9.1606  H       1  <O>11       0.0641
@<TRIPOS>BOND
     1     1     2    2
     2     2     3    1
     3     3     4    1
     4     4     5   ar
     5     5     6   ar
     6     6     7   ar
     7     7     8    2
     8     7     9   ar
     9     9    10   ar
    10    10    11   ar
    11    11    12   ar
    12    12    13   ar
    13    13    14   ar
    14     4    14   ar
    15     9    14   ar
    16     2    15   am
    17    15    16    1
    18    16    17    1
    19    17    18    1
    20    18    19    1
    21    19    20   ar
    22    20    21   ar
    23    21    22   ar
    24    22    23   ar
    25    23    24    1
    26    24    25    1
    27    24    26    1
    28    24    27    1
    29    23    28   ar
    30    19    28   ar
    31    18    29    1
    32    29    30    1
    33    15    30    1
    34     3    31    1
    35     3    32    1
    36     6    33    1
    37    16    34    1
    38    16    35    1
    39    17    36    1
    40    17    37    1
    41    29    38    1
    42    29    39    1
    43    30    40    1
    44    30    41    1
    45    10    42    1
    46    11    43    1
    47    12    44    1
    48    13    45    1
    49    20    46    1
    50    21    47    1
    51    22    48    1
    52    28    49    1
@<TRIPOS>MOLECULE
mol25_1_11
 49 52 0 0 0
SMALL
USER_CHARGES
****
VDW energy = -59.04
@<TRIPOS>ATOM
   1 O1        8.7381    -1.4068    -2.6744  O.2     1  <O>11      -0.2752
   2 C1        7.6234    -1.0459    -3.0216  C.2     1  <O>11       0.2216
   3 C2        6.7510    -0.2990    -2.0700  C.3     1  <O>11       0.0687
   4 C3        7.4590    -0.1250    -0.7860  C.ar    1  <O>11       0.0780
   5 N1        8.2092     1.0001    -0.6747  N.ar    1  <O>11      -0.1748
   6 N2        8.9699     1.1805     0.4285  N.ar    1  <O>11      -0.2425
   7 C4        8.9575     0.2366     1.3986  C.ar    1  <O>11       0.2725
   8 O2        9.8445     0.4380     2.4732  O.2     1  <O>11      -0.2658
   9 C5        8.1258    -0.8927     1.3798  C.ar    1  <O>11       0.0496
  10 C6        8.0677    -1.8485     2.4186  C.ar    1  <O>11      -0.0487
  11 C7        7.2409    -2.9685     2.3203  C.ar    1  <O>11      -0.0610
  12 C8        6.4634    -3.1576     1.1837  C.ar    1  <O>11      -0.0611
  13 C9        6.5139    -2.2287     0.1435  C.ar    1  <O>11      -0.0521
  14 C10       7.3393    -1.0836     0.2288  C.ar    1  <O>11       0.0108
  15 N3        7.1750    -1.3270    -4.2840  N.am    1  <O>11      -0.2982
  16 C11       7.9900    -2.0440    -5.2240  C.3     1  <O>11       0.0304
  17 C12       8.1720    -1.1960    -6.5020  C.3     1  <O>11       0.0280
  18 N4        6.8140    -0.7340    -7.0380  N.pl3   1  <O>11      -0.3269
  19 C13       6.4170    -0.9750    -8.4020  C.ar    1  <O>11       0.0303
  20 C14       7.1025    -0.3553    -9.4605  C.ar    1  <O>11      -0.0406
  21 C15       6.7087    -0.5804   -10.7849  C.ar    1  <O>11      -0.0595
  22 C16       5.6344    -1.4280   -11.0635  C.ar    1  <O>11      -0.0500
  23 C17       4.9559    -2.0515   -10.0105  C.ar    1  <O>11       0.0566
  24 C18       3.8214    -2.9457   -10.3112  C.3     1  <O>11       0.4175
  25 F1        4.2836    -4.2365   -10.4778  F       1  <O>11      -0.1659
  26 F2        3.1995    -2.5267   -11.4711  F       1  <O>11      -0.1659
  27 F3        2.9182    -2.9112    -9.2672  F       1  <O>11      -0.1659
  28 C19       5.3425    -1.8336    -8.6861  C.ar    1  <O>11      -0.0290
  29 C20       5.9900    -0.0200    -5.9630  C.3     1  <O>11       0.0280
  30 C21       5.8730    -0.9180    -4.7220  C.3     1  <O>11       0.0304
  31 H1        6.5110     0.6790    -2.4880  H       1  <O>11       0.0423
  32 H2        5.8310    -0.8590    -1.9040  H       1  <O>11       0.0423
  33 H3        9.5407     2.0084     0.5251  H       1  <O>11       0.1921
  34 H4        8.9650    -2.2450    -4.7790  H       1  <O>11       0.0480
  35 H5        7.5050    -2.9860    -5.4790  H       1  <O>11       0.0480
  36 H6        8.7810    -0.3220    -6.2690  H       1  <O>11       0.0479
  37 H7        8.6720    -1.7960    -7.2620  H       1  <O>11       0.0479
  38 H8        6.4830     0.9140    -5.6900  H       1  <O>11       0.0479
  39 H9        4.9950     0.1940    -6.3510  H       1  <O>11       0.0479
  40 H10       5.3820    -0.3650    -3.9220  H       1  <O>11       0.0480
  41 H11       5.2830    -1.8000    -4.9700  H       1  <O>11       0.0480
  42 H12       8.6457    -1.7163     3.2633  H       1  <O>11       0.0625
  43 H13       7.2067    -3.6549     3.0901  H       1  <O>11       0.0618
  44 H14       5.8496    -3.9840     1.1091  H       1  <O>11       0.0618
  45 H15       5.9402    -2.3797    -0.7009  H       1  <O>11       0.0624
  46 H16       7.8998     0.2687    -9.2607  H       1  <O>11       0.0636
  47 H17       7.2137    -0.1188   -11.5575  H       1  <O>11       0.0618
  48 H18       5.3429    -1.5935   -12.0395  H       1  <O>11       0.0623
  49 H19       4.8391    -2.3029    -7.9171  H       1  <O>11       0.0641
@<TRIPOS>BOND
     1     1     2    2
     2     2     3    1
     3     3     4    1
     4     4     5   ar
     5     5     6   ar
     6     6     7   ar
     7     7     8    2
     8     7     9   ar
     9     9    10   ar
    10    10    11   ar
    11    11    12   ar
    12    12    13   ar
    13    13    14   ar
    14     4    14   ar
    15     9    14   ar
    16     2    15   am
    17    15    16    1
    18    16    17    1
    19    17    18    1
    20    18    19    1
    21    19    20   ar
    22    20    21   ar
    23    21    22   ar
    24    22    23   ar
    25    23    24    1
    26    24    25    1
    27    24    26    1
    28    24    27    1
    29    23    28   ar
    30    19    28   ar
    31    18    29    1
    32    29    30    1
    33    15    30    1
    34     3    31    1
    35     3    32    1
    36     6    33    1
    37    16    34    1
    38    16    35    1
    39    17    36    1
    40    17    37    1
    41    29    38    1
    42    29    39    1
    43    30    40    1
    44    30    41    1
    45    10    42    1
    46    11    43    1
    47    12    44    1
    48    13    45    1
    49    20    46    1
    50    21    47    1
    51    22    48    1
    52    28    49    1
@<TRIPOS>MOLECULE
mol25_1_12
 49 52 0 0 0
SMALL
USER_CHARGES
****
VDW energy = -58.88
@<TRIPOS>ATOM
   1 O1        8.7381    -1.4068    -2.6744  O.2     1  <O>11      -0.2752
   2 C1        7.6234    -1.0459    -3.0216  C.2     1  <O>11       0.2216
   3 C2        6.7510    -0.2990    -2.0700  C.3     1  <O>11       0.0687
   4 C3        7.4590    -0.1250    -0.7860  C.ar    1  <O>11       0.0780
   5 N1        8.2092     1.0001    -0.6747  N.ar    1  <O>11      -0.1748
   6 N2        8.9699     1.1805     0.4285  N.ar    1  <O>11      -0.2425
   7 C4        8.9575     0.2366     1.3986  C.ar    1  <O>11       0.2725
   8 O2        9.8445     0.4380     2.4732  O.2     1  <O>11      -0.2658
   9 C5        8.1258    -0.8927     1.3798  C.ar    1  <O>11       0.0496
  10 C6        8.0677    -1.8485     2.4186  C.ar    1  <O>11      -0.0487
  11 C7        7.2409    -2.9685     2.3203  C.ar    1  <O>11      -0.0610
  12 C8        6.4634    -3.1576     1.1837  C.ar    1  <O>11      -0.0611
  13 C9        6.5139    -2.2287     0.1435  C.ar    1  <O>11      -0.0521
  14 C10       7.3393    -1.0836     0.2288  C.ar    1  <O>11       0.0108
  15 N3        7.1750    -1.3270    -4.2840  N.am    1  <O>11      -0.2982
  16 C11       7.9900    -2.0440    -5.2240  C.3     1  <O>11       0.0304
  17 C12       8.1720    -1.1960    -6.5020  C.3     1  <O>11       0.0280
  18 N4        6.8140    -0.7340    -7.0380  N.pl3   1  <O>11      -0.3269
  19 C13       6.4170    -0.9750    -8.4020  C.ar    1  <O>11       0.0303
  20 C14       7.1025    -0.3553    -9.4605  C.ar    1  <O>11      -0.0406
  21 C15       6.7087    -0.5804   -10.7849  C.ar    1  <O>11      -0.0595
  22 C16       5.6344    -1.4280   -11.0635  C.ar    1  <O>11      -0.0500
  23 C17       4.9559    -2.0515   -10.0105  C.ar    1  <O>11       0.0566
  24 C18       3.8214    -2.9457   -10.3112  C.3     1  <O>11       0.4175
  25 F1        2.8410    -2.2379   -10.9784  F       1  <O>11      -0.1659
  26 F2        3.3050    -3.4470    -9.1323  F       1  <O>11      -0.1659
  27 F3        4.2554    -3.9901   -11.1036  F       1  <O>11      -0.1659
  28 C19       5.3425    -1.8336    -8.6861  C.ar    1  <O>11      -0.0290
  29 C20       5.9900    -0.0200    -5.9630  C.3     1  <O>11       0.0280
  30 C21       5.8730    -0.9180    -4.7220  C.3     1  <O>11       0.0304
  31 H1        6.5110     0.6790    -2.4880  H       1  <O>11       0.0423
  32 H2        5.8310    -0.8590    -1.9040  H       1  <O>11       0.0423
  33 H3        9.5407     2.0084     0.5251  H       1  <O>11       0.1921
  34 H4        8.9650    -2.2450    -4.7790  H       1  <O>11       0.0480
  35 H5        7.5050    -2.9860    -5.4790  H       1  <O>11       0.0480
  36 H6        8.7810    -0.3220    -6.2690  H       1  <O>11       0.0479
  37 H7        8.6720    -1.7960    -7.2620  H       1  <O>11       0.0479
  38 H8        6.4830     0.9140    -5.6900  H       1  <O>11       0.0479
  39 H9        4.9950     0.1940    -6.3510  H       1  <O>11       0.0479
  40 H10       5.3820    -0.3650    -3.9220  H       1  <O>11       0.0480
  41 H11       5.2830    -1.8000    -4.9700  H       1  <O>11       0.0480
  42 H12       8.6457    -1.7163     3.2633  H       1  <O>11       0.0625
  43 H13       7.2067    -3.6549     3.0901  H       1  <O>11       0.0618
  44 H14       5.8496    -3.9840     1.1091  H       1  <O>11       0.0618
  45 H15       5.9402    -2.3797    -0.7009  H       1  <O>11       0.0624
  46 H16       7.8998     0.2687    -9.2607  H       1  <O>11       0.0636
  47 H17       7.2137    -0.1188   -11.5575  H       1  <O>11       0.0618
  48 H18       5.3429    -1.5935   -12.0395  H       1  <O>11       0.0623
  49 H19       4.8391    -2.3029    -7.9171  H       1  <O>11       0.0641
@<TRIPOS>BOND
     1     1     2    2
     2     2     3    1
     3     3     4    1
     4     4     5   ar
     5     5     6   ar
     6     6     7   ar
     7     7     8    2
     8     7     9   ar
     9     9    10   ar
    10    10    11   ar
    11    11    12   ar
    12    12    13   ar
    13    13    14   ar
    14     4    14   ar
    15     9    14   ar
    16     2    15   am
    17    15    16    1
    18    16    17    1
    19    17    18    1
    20    18    19    1
    21    19    20   ar
    22    20    21   ar
    23    21    22   ar
    24    22    23   ar
    25    23    24    1
    26    24    25    1
    27    24    26    1
    28    24    27    1
    29    23    28   ar
    30    19    28   ar
    31    18    29    1
    32    29    30    1
    33    15    30    1
    34     3    31    1
    35     3    32    1
    36     6    33    1
    37    16    34    1
    38    16    35    1
    39    17    36    1
    40    17    37    1
    41    29    38    1
    42    29    39    1
    43    30    40    1
    44    30    41    1
    45    10    42    1
    46    11    43    1
    47    12    44    1
    48    13    45    1
    49    20    46    1
    50    21    47    1
    51    22    48    1
    52    28    49    1
@<TRIPOS>MOLECULE
mol25_1_13
 49 52 0 0 0
SMALL
USER_CHARGES
****
VDW energy = -58.77
@<TRIPOS>ATOM
   1 O1        8.7381    -1.4068    -2.6744  O.2     1  <O>11      -0.2752
   2 C1        7.6234    -1.0459    -3.0216  C.2     1  <O>11       0.2216
   3 C2        6.7510    -0.2990    -2.0700  C.3     1  <O>11       0.0687
   4 C3        7.4590    -0.1250    -0.7860  C.ar    1  <O>11       0.0780
   5 N1        8.2092     1.0001    -0.6747  N.ar    1  <O>11      -0.1748
   6 N2        8.9699     1.1805     0.4285  N.ar    1  <O>11      -0.2425
   7 C4        8.9575     0.2366     1.3986  C.ar    1  <O>11       0.2725
   8 O2        9.8445     0.4380     2.4732  O.2     1  <O>11      -0.2658
   9 C5        8.1258    -0.8927     1.3798  C.ar    1  <O>11       0.0496
  10 C6        8.0677    -1.8485     2.4186  C.ar    1  <O>11      -0.0487
  11 C7        7.2409    -2.9685     2.3203  C.ar    1  <O>11      -0.0610
  12 C8        6.4634    -3.1576     1.1837  C.ar    1  <O>11      -0.0611
  13 C9        6.5139    -2.2287     0.1435  C.ar    1  <O>11      -0.0521
  14 C10       7.3393    -1.0836     0.2288  C.ar    1  <O>11       0.0108
  15 N3        7.1750    -1.3270    -4.2840  N.am    1  <O>11      -0.2982
  16 C11       7.9900    -2.0440    -5.2240  C.3     1  <O>11       0.0304
  17 C12       8.1720    -1.1960    -6.5020  C.3     1  <O>11       0.0280
  18 N4        6.8140    -0.7340    -7.0380  N.pl3   1  <O>11      -0.3269
  19 C13       6.4170    -0.9750    -8.4020  C.ar    1  <O>11       0.0303
  20 C14       6.2077    -2.2873    -8.8587  C.ar    1  <O>11      -0.0406
  21 C15       5.8336    -2.5215   -10.1873  C.ar    1  <O>11      -0.0595
  22 C16       5.6602    -1.4509   -11.0669  C.ar    1  <O>11      -0.0500
  23 C17       5.8611    -0.1433   -10.6111  C.ar    1  <O>11       0.0566
  24 C18       5.6765     0.9837   -11.5454  C.3     1  <O>11       0.4175
  25 F1        5.9246     2.1727   -10.8880  F       1  <O>11      -0.1659
  26 F2        4.3789     0.9820   -12.0186  F       1  <O>11      -0.1659
  27 F3        6.5522     0.8520   -12.6050  F       1  <O>11      -0.1659
  28 C19       6.2333     0.0999    -9.2870  C.ar    1  <O>11      -0.0290
  29 C20       5.9900    -0.0200    -5.9630  C.3     1  <O>11       0.0280
  30 C21       5.8730    -0.9180    -4.7220  C.3     1  <O>11       0.0304
  31 H1        6.5110     0.6790    -2.4880  H       1  <O>11       0.0423
  32 H2        5.8310    -0.8590    -1.9040  H       1  <O>11       0.0423
  33 H3        9.5407     2.0084     0.5251  H       1  <O>11       0.1921
  34 H4        8.9650    -2.2450    -4.7790  H       1  <O>11       0.0480
  35 H5        7.5050    -2.9860    -5.4790  H       1  <O>11       0.0480
  36 H6        8.7810    -0.3220    -6.2690  H       1  <O>11       0.0479
  37 H7        8.6720    -1.7960    -7.2620  H       1  <O>11       0.0479
  38 H8        6.4830     0.9140    -5.6900  H       1  <O>11       0.0479
  39 H9        4.9950     0.1940    -6.3510  H       1  <O>11       0.0479
  40 H10       5.3820    -0.3650    -3.9220  H       1  <O>11       0.0480
  41 H11       5.2830    -1.8000    -4.9700  H       1  <O>11       0.0480
  42 H12       8.6457    -1.7163     3.2633  H       1  <O>11       0.0625
  43 H13       7.2067    -3.6549     3.0901  H       1  <O>11       0.0618
  44 H14       5.8496    -3.9840     1.1091  H       1  <O>11       0.0618
  45 H15       5.9402    -2.3797    -0.7009  H       1  <O>11       0.0624
  46 H16       6.3303    -3.0820    -8.2119  H       1  <O>11       0.0636
  47 H17       5.6857    -3.4879   -10.5175  H       1  <O>11       0.0618
  48 H18       5.3856    -1.6229   -12.0467  H       1  <O>11       0.0623
  49 H19       6.3732     1.0685    -8.9593  H       1  <O>11       0.0641
@<TRIPOS>BOND
     1     1     2    2
     2     2     3    1
     3     3     4    1
     4     4     5   ar
     5     5     6   ar
     6     6     7   ar
     7     7     8    2
     8     7     9   ar
     9     9    10   ar
    10    10    11   ar
    11    11    12   ar
    12    12    13   ar
    13    13    14   ar
    14     4    14   ar
    15     9    14   ar
    16     2    15   am
    17    15    16    1
    18    16    17    1
    19    17    18    1
    20    18    19    1
    21    19    20   ar
    22    20    21   ar
    23    21    22   ar
    24    22    23   ar
    25    23    24    1
    26    24    25    1
    27    24    26    1
    28    24    27    1
    29    23    28   ar
    30    19    28   ar
    31    18    29    1
    32    29    30    1
    33    15    30    1
    34     3    31    1
    35     3    32    1
    36     6    33    1
    37    16    34    1
    38    16    35    1
    39    17    36    1
    40    17    37    1
    41    29    38    1
    42    29    39    1
    43    30    40    1
    44    30    41    1
    45    10    42    1
    46    11    43    1
    47    12    44    1
    48    13    45    1
    49    20    46    1
    50    21    47    1
    51    22    48    1
    52    28    49    1
@<TRIPOS>MOLECULE
mol25_1_14
 49 52 0 0 0
SMALL
USER_CHARGES
****
VDW energy = -54.76
@<TRIPOS>ATOM
   1 O1        8.7381    -1.4068    -2.6744  O.2     1  <O>11      -0.2752
   2 C1        7.6234    -1.0459    -3.0216  C.2     1  <O>11       0.2216
   3 C2        6.7510    -0.2990    -2.0700  C.3     1  <O>11       0.0687
   4 C3        7.4590    -0.1250    -0.7860  C.ar    1  <O>11       0.0780
   5 N1        7.6639     1.1582    -0.3954  N.ar    1  <O>11      -0.1748
   6 N2        8.3957     1.4019     0.7151  N.ar    1  <O>11      -0.2425
   7 C4        8.8992     0.3580     1.4143  C.ar    1  <O>11       0.2725
   8 O2        9.7320     0.6822     2.5022  O.2     1  <O>11      -0.2658
   9 C5        8.6336    -0.9858     1.1124  C.ar    1  <O>11       0.0496
  10 C6        9.1091    -2.0758     1.8752  C.ar    1  <O>11      -0.0487
  11 C7        8.8347    -3.3914     1.4988  C.ar    1  <O>11      -0.0610
  12 C8        8.0878    -3.6426     0.3537  C.ar    1  <O>11      -0.0611
  13 C9        7.6169    -2.5789    -0.4172  C.ar    1  <O>11      -0.0521
  14 C10       7.8777    -1.2393    -0.0470  C.ar    1  <O>11       0.0108
  15 N3        7.1750    -1.3270    -4.2840  N.am    1  <O>11      -0.2982
  16 C11       7.9900    -2.0440    -5.2240  C.3     1  <O>11       0.0304
  17 C12       8.1720    -1.1960    -6.5020  C.3     1  <O>11       0.0280
  18 N4        6.8140    -0.7340    -7.0380  N.pl3   1  <O>11      -0.3269
  19 C13       6.4170    -0.9750    -8.4020  C.ar    1  <O>11       0.0303
  20 C14       6.7120    -0.0346    -9.4035  C.ar    1  <O>11      -0.0406
  21 C15       6.3155    -0.2638   -10.7264  C.ar    1  <O>11      -0.0595
  22 C16       5.6284    -1.4326   -11.0609  C.ar    1  <O>11      -0.0500
  23 C17       5.3407    -2.3731   -10.0657  C.ar    1  <O>11       0.0566
  24 C18       4.6143    -3.6061   -10.4253  C.3     1  <O>11       0.4175
  25 F1        3.3806    -3.2770   -10.9519  F       1  <O>11      -0.1659
  26 F2        4.4401    -4.3837    -9.2972  F       1  <O>11      -0.1659
  27 F3        5.3415    -4.3126   -11.3627  F       1  <O>11      -0.1659
  28 C19       5.7334    -2.1534    -8.7434  C.ar    1  <O>11      -0.0290
  29 C20       5.9900    -0.0200    -5.9630  C.3     1  <O>11       0.0280
  30 C21       5.8730    -0.9180    -4.7220  C.3     1  <O>11       0.0304
  31 H1        6.5110     0.6790    -2.4880  H       1  <O>11       0.0423
  32 H2        5.8310    -0.8590    -1.9040  H       1  <O>11       0.0423
  33 H3        8.5650     2.3511     1.0166  H       1  <O>11       0.1921
  34 H4        8.9650    -2.2450    -4.7790  H       1  <O>11       0.0480
  35 H5        7.5050    -2.9860    -5.4790  H       1  <O>11       0.0480
  36 H6        8.7810    -0.3220    -6.2690  H       1  <O>11       0.0479
  37 H7        8.6720    -1.7960    -7.2620  H       1  <O>11       0.0479
  38 H8        6.4830     0.9140    -5.6900  H       1  <O>11       0.0479
  39 H9        4.9950     0.1940    -6.3510  H       1  <O>11       0.0479
  40 H10       5.3820    -0.3650    -3.9220  H       1  <O>11       0.0480
  41 H11       5.2830    -1.8000    -4.9700  H       1  <O>11       0.0480
  42 H12       9.6679    -1.8963     2.7240  H       1  <O>11       0.0625
  43 H13       9.1858    -4.1762     2.0695  H       1  <O>11       0.0618
  44 H14       7.8818    -4.6144     0.0740  H       1  <O>11       0.0618
  45 H15       7.0699    -2.7729    -1.2706  H       1  <O>11       0.0624
  46 H16       7.2233     0.8289    -9.1628  H       1  <O>11       0.0636
  47 H17       6.5315     0.4329   -11.4564  H       1  <O>11       0.0618
  48 H18       5.3348    -1.6016   -12.0357  H       1  <O>11       0.0623
  49 H19       5.5215    -2.8562    -8.0180  H       1  <O>11       0.0641
@<TRIPOS>BOND
     1     1     2    2
     2     2     3    1
     3     3     4    1
     4     4     5   ar
     5     5     6   ar
     6     6     7   ar
     7     7     8    2
     8     7     9   ar
     9     9    10   ar
    10    10    11   ar
    11    11    12   ar
    12    12    13   ar
    13    13    14   ar
    14     4    14   ar
    15     9    14   ar
    16     2    15   am
    17    15    16    1
    18    16    17    1
    19    17    18    1
    20    18    19    1
    21    19    20   ar
    22    20    21   ar
    23    21    22   ar
    24    22    23   ar
    25    23    24    1
    26    24    25    1
    27    24    26    1
    28    24    27    1
    29    23    28   ar
    30    19    28   ar
    31    18    29    1
    32    29    30    1
    33    15    30    1
    34     3    31    1
    35     3    32    1
    36     6    33    1
    37    16    34    1
    38    16    35    1
    39    17    36    1
    40    17    37    1
    41    29    38    1
    42    29    39    1
    43    30    40    1
    44    30    41    1
    45    10    42    1
    46    11    43    1
    47    12    44    1
    48    13    45    1
    49    20    46    1
    50    21    47    1
    51    22    48    1
    52    28    49    1
@<TRIPOS>MOLECULE
mol25_1_15
 49 52 0 0 0
SMALL
USER_CHARGES
****
VDW energy = -54.36
@<TRIPOS>ATOM
   1 O1        8.7381    -1.4068    -2.6744  O.2     1  <O>11      -0.2752
   2 C1        7.6234    -1.0459    -3.0216  C.2     1  <O>11       0.2216
   3 C2        6.7510    -0.2990    -2.0700  C.3     1  <O>11       0.0687
   4 C3        7.4590    -0.1250    -0.7860  C.ar    1  <O>11       0.0780
   5 N1        7.6639     1.1582    -0.3954  N.ar    1  <O>11      -0.1748
   6 N2        8.3957     1.4019     0.7151  N.ar    1  <O>11      -0.2425
   7 C4        8.8992     0.3580     1.4143  C.ar    1  <O>11       0.2725
   8 O2        9.7320     0.6822     2.5022  O.2     1  <O>11      -0.2658
   9 C5        8.6336    -0.9858     1.1124  C.ar    1  <O>11       0.0496
  10 C6        9.1091    -2.0758     1.8752  C.ar    1  <O>11      -0.0487
  11 C7        8.8347    -3.3914     1.4988  C.ar    1  <O>11      -0.0610
  12 C8        8.0878    -3.6426     0.3537  C.ar    1  <O>11      -0.0611
  13 C9        7.6169    -2.5789    -0.4172  C.ar    1  <O>11      -0.0521
  14 C10       7.8777    -1.2393    -0.0470  C.ar    1  <O>11       0.0108
  15 N3        7.1750    -1.3270    -4.2840  N.am    1  <O>11      -0.2982
  16 C11       7.9900    -2.0440    -5.2240  C.3     1  <O>11       0.0304
  17 C12       8.1720    -1.1960    -6.5020  C.3     1  <O>11       0.0280
  18 N4        6.8140    -0.7340    -7.0380  N.pl3   1  <O>11      -0.3269
  19 C13       6.4170    -0.9750    -8.4020  C.ar    1  <O>11       0.0303
  20 C14       7.1025    -0.3553    -9.4605  C.ar    1  <O>11      -0.0406
  21 C15       6.7087    -0.5804   -10.7849  C.ar    1  <O>11      -0.0595
  22 C16       5.6344    -1.4280   -11.0635  C.ar    1  <O>11      -0.0500
  23 C17       4.9559    -2.0515   -10.0105  C.ar    1  <O>11       0.0566
  24 C18       3.8214    -2.9457   -10.3112  C.3     1  <O>11       0.4175
  25 F1        3.3050    -3.4474    -9.1325  F       1  <O>11      -0.1659
  26 F2        4.2556    -3.9899   -11.1042  F       1  <O>11      -0.1659
  27 F3        2.8414    -2.2382   -10.9790  F       1  <O>11      -0.1659
  28 C19       5.3425    -1.8336    -8.6861  C.ar    1  <O>11      -0.0290
  29 C20       5.9900    -0.0200    -5.9630  C.3     1  <O>11       0.0280
  30 C21       5.8730    -0.9180    -4.7220  C.3     1  <O>11       0.0304
  31 H1        6.5110     0.6790    -2.4880  H       1  <O>11       0.0423
  32 H2        5.8310    -0.8590    -1.9040  H       1  <O>11       0.0423
  33 H3        8.5650     2.3511     1.0166  H       1  <O>11       0.1921
  34 H4        8.9650    -2.2450    -4.7790  H       1  <O>11       0.0480
  35 H5        7.5050    -2.9860    -5.4790  H       1  <O>11       0.0480
  36 H6        8.7810    -0.3220    -6.2690  H       1  <O>11       0.0479
  37 H7        8.6720    -1.7960    -7.2620  H       1  <O>11       0.0479
  38 H8        6.4830     0.9140    -5.6900  H       1  <O>11       0.0479
  39 H9        4.9950     0.1940    -6.3510  H       1  <O>11       0.0479
  40 H10       5.3820    -0.3650    -3.9220  H       1  <O>11       0.0480
  41 H11       5.2830    -1.8000    -4.9700  H       1  <O>11       0.0480
  42 H12       9.6679    -1.8963     2.7240  H       1  <O>11       0.0625
  43 H13       9.1858    -4.1762     2.0695  H       1  <O>11       0.0618
  44 H14       7.8818    -4.6144     0.0740  H       1  <O>11       0.0618
  45 H15       7.0699    -2.7729    -1.2706  H       1  <O>11       0.0624
  46 H16       7.8998     0.2687    -9.2607  H       1  <O>11       0.0636
  47 H17       7.2137    -0.1188   -11.5575  H       1  <O>11       0.0618
  48 H18       5.3429    -1.5935   -12.0395  H       1  <O>11       0.0623
  49 H19       4.8391    -2.3029    -7.9171  H       1  <O>11       0.0641
@<TRIPOS>BOND
     1     1     2    2
     2     2     3    1
     3     3     4    1
     4     4     5   ar
     5     5     6   ar
     6     6     7   ar
     7     7     8    2
     8     7     9   ar
     9     9    10   ar
    10    10    11   ar
    11    11    12   ar
    12    12    13   ar
    13    13    14   ar
    14     4    14   ar
    15     9    14   ar
    16     2    15   am
    17    15    16    1
    18    16    17    1
    19    17    18    1
    20    18    19    1
    21    19    20   ar
    22    20    21   ar
    23    21    22   ar
    24    22    23   ar
    25    23    24    1
    26    24    25    1
    27    24    26    1
    28    24    27    1
    29    23    28   ar
    30    19    28   ar
    31    18    29    1
    32    29    30    1
    33    15    30    1
    34     3    31    1
    35     3    32    1
    36     6    33    1
    37    16    34    1
    38    16    35    1
    39    17    36    1
    40    17    37    1
    41    29    38    1
    42    29    39    1
    43    30    40    1
    44    30    41    1
    45    10    42    1
    46    11    43    1
    47    12    44    1
    48    13    45    1
    49    20    46    1
    50    21    47    1
    51    22    48    1
    52    28    49    1
@<TRIPOS>MOLECULE
mol25_1_16
 49 52 0 0 0
SMALL
USER_CHARGES
****
VDW energy = -52.25
@<TRIPOS>ATOM
   1 O1        8.7381    -1.4068    -2.6744  O.2     1  <O>11      -0.2752
   2 C1        7.6234    -1.0459    -3.0216  C.2     1  <O>11       0.2216
   3 C2        6.7510    -0.2990    -2.0700  C.3     1  <O>11       0.0687
   4 C3        7.4590    -0.1250    -0.7860  C.ar    1  <O>11       0.0780
   5 N1        6.8538    -0.6703     0.2991  N.ar    1  <O>11      -0.1748
   6 N2        7.3853    -0.4644     1.5252  N.ar    1  <O>11      -0.2425
   7 C4        8.5136     0.2748     1.6382  C.ar    1  <O>11       0.2725
   8 O2        8.9591     0.5326     2.9486  O.2     1  <O>11      -0.2658
   9 C5        9.2332     0.7751     0.5432  C.ar    1  <O>11       0.0496
  10 C6       10.4429     1.4963     0.6557  C.ar    1  <O>11      -0.0487
  11 C7       11.0908     1.9952    -0.4752  C.ar    1  <O>11      -0.0610
  12 C8       10.5415     1.7893    -1.7354  C.ar    1  <O>11      -0.0611
  13 C9        9.3428     1.0866    -1.8657  C.ar    1  <O>11      -0.0521
  14 C10       8.6764     0.5665    -0.7321  C.ar    1  <O>11       0.0108
  15 N3        7.1750    -1.3270    -4.2840  N.am    1  <O>11      -0.2982
  16 C11       7.9900    -2.0440    -5.2240  C.3     1  <O>11       0.0304
  17 C12       8.1720    -1.1960    -6.5020  C.3     1  <O>11       0.0280
  18 N4        6.8140    -0.7340    -7.0380  N.pl3   1  <O>11      -0.3269
  19 C13       6.4170    -0.9750    -8.4020  C.ar    1  <O>11       0.0303
  20 C14       6.2077    -2.2873    -8.8587  C.ar    1  <O>11      -0.0406
  21 C15       5.8336    -2.5215   -10.1873  C.ar    1  <O>11      -0.0595
  22 C16       5.6602    -1.4509   -11.0669  C.ar    1  <O>11      -0.0500
  23 C17       5.8611    -0.1433   -10.6111  C.ar    1  <O>11       0.0566
  24 C18       5.6765     0.9837   -11.5454  C.3     1  <O>11       0.4175
  25 F1        4.3790     0.9821   -12.0189  F       1  <O>11      -0.1659
  26 F2        6.5528     0.8519   -12.6049  F       1  <O>11      -0.1659
  27 F3        5.9254     2.1725   -10.8883  F       1  <O>11      -0.1659
  28 C19       6.2333     0.0999    -9.2870  C.ar    1  <O>11      -0.0290
  29 C20       5.9900    -0.0200    -5.9630  C.3     1  <O>11       0.0280
  30 C21       5.8730    -0.9180    -4.7220  C.3     1  <O>11       0.0304
  31 H1        6.5110     0.6790    -2.4880  H       1  <O>11       0.0423
  32 H2        5.8310    -0.8590    -1.9040  H       1  <O>11       0.0423
  33 H3        6.9440    -0.8563     2.3451  H       1  <O>11       0.1921
  34 H4        8.9650    -2.2450    -4.7790  H       1  <O>11       0.0480
  35 H5        7.5050    -2.9860    -5.4790  H       1  <O>11       0.0480
  36 H6        8.7810    -0.3220    -6.2690  H       1  <O>11       0.0479
  37 H7        8.6720    -1.7960    -7.2620  H       1  <O>11       0.0479
  38 H8        6.4830     0.9140    -5.6900  H       1  <O>11       0.0479
  39 H9        4.9950     0.1940    -6.3510  H       1  <O>11       0.0479
  40 H10       5.3820    -0.3650    -3.9220  H       1  <O>11       0.0480
  41 H11       5.2830    -1.8000    -4.9700  H       1  <O>11       0.0480
  42 H12      10.8538     1.6565     1.5887  H       1  <O>11       0.0625
  43 H13      11.9761     2.5162    -0.3760  H       1  <O>11       0.0618
  44 H14      11.0195     2.1555    -2.5735  H       1  <O>11       0.0618
  45 H15       8.9365     0.9445    -2.8036  H       1  <O>11       0.0624
  46 H16       6.3303    -3.0820    -8.2119  H       1  <O>11       0.0636
  47 H17       5.6857    -3.4879   -10.5175  H       1  <O>11       0.0618
  48 H18       5.3856    -1.6229   -12.0467  H       1  <O>11       0.0623
  49 H19       6.3732     1.0685    -8.9593  H       1  <O>11       0.0641
@<TRIPOS>BOND
     1     1     2    2
     2     2     3    1
     3     3     4    1
     4     4     5   ar
     5     5     6   ar
     6     6     7   ar
     7     7     8    2
     8     7     9   ar
     9     9    10   ar
    10    10    11   ar
    11    11    12   ar
    12    12    13   ar
    13    13    14   ar
    14     4    14   ar
    15     9    14   ar
    16     2    15   am
    17    15    16    1
    18    16    17    1
    19    17    18    1
    20    18    19    1
    21    19    20   ar
    22    20    21   ar
    23    21    22   ar
    24    22    23   ar
    25    23    24    1
    26    24    25    1
    27    24    26    1
    28    24    27    1
    29    23    28   ar
    30    19    28   ar
    31    18    29    1
    32    29    30    1
    33    15    30    1
    34     3    31    1
    35     3    32    1
    36     6    33    1
    37    16    34    1
    38    16    35    1
    39    17    36    1
    40    17    37    1
    41    29    38    1
    42    29    39    1
    43    30    40    1
    44    30    41    1
    45    10    42    1
    46    11    43    1
    47    12    44    1
    48    13    45    1
    49    20    46    1
    50    21    47    1
    51    22    48    1
    52    28    49    1
@<TRIPOS>MOLECULE
mol25_1_17
 49 52 0 0 0
SMALL
USER_CHARGES
****
VDW energy = -49.60
@<TRIPOS>ATOM
   1 O1        8.7381    -1.4068    -2.6744  O.2     1  <O>11      -0.2752
   2 C1        7.6234    -1.0459    -3.0216  C.2     1  <O>11       0.2216
   3 C2        6.7510    -0.2990    -2.0700  C.3     1  <O>11       0.0687
   4 C3        7.4590    -0.1250    -0.7860  C.ar    1  <O>11       0.0780
   5 N1        7.2738    -1.1113     0.1273  N.ar    1  <O>11      -0.1748
   6 N2        7.8032    -0.9746     1.3639  N.ar    1  <O>11      -0.2425
   7 C4        8.5122     0.1405     1.6571  C.ar    1  <O>11       0.2725
   8 O2        8.9520     0.2652     2.9887  O.2     1  <O>11      -0.2658
   9 C5        8.8181     1.1406     0.7225  C.ar    1  <O>11       0.0496
  10 C6        9.6078     2.2762     1.0104  C.ar    1  <O>11      -0.0487
  11 C7        9.8460     3.2515     0.0410  C.ar    1  <O>11      -0.0610
  12 C8        9.2966     3.1146    -1.2286  C.ar    1  <O>11      -0.0611
  13 C9        8.5069     2.0039    -1.5290  C.ar    1  <O>11      -0.0521
  14 C10       8.2616     1.0015    -0.5623  C.ar    1  <O>11       0.0108
  15 N3        7.1750    -1.3270    -4.2840  N.am    1  <O>11      -0.2982
  16 C11       7.9900    -2.0440    -5.2240  C.3     1  <O>11       0.0304
  17 C12       8.1720    -1.1960    -6.5020  C.3     1  <O>11       0.0280
  18 N4        6.8140    -0.7340    -7.0380  N.pl3   1  <O>11      -0.3269
  19 C13       6.4170    -0.9750    -8.4020  C.ar    1  <O>11       0.0303
  20 C14       5.1640    -0.5380    -8.8640  C.ar    1  <O>11      -0.0406
  21 C15       4.7740    -0.7830   -10.1860  C.ar    1  <O>11      -0.0595
  22 C16       5.6310    -1.4590   -11.0570  C.ar    1  <O>11      -0.0500
  23 C17       6.8820    -1.8880   -10.6000  C.ar    1  <O>11       0.0566
  24 C18       7.7830    -2.6020   -11.5250  C.3     1  <O>11       0.4175
  25 F1        8.9530    -2.9290   -10.8680  F       1  <O>11      -0.1659
  26 F2        8.0730    -1.7900   -12.6040  F       1  <O>11      -0.1659
  27 F3        7.1670    -3.7550   -11.9700  F       1  <O>11      -0.1659
  28 C19       7.2800    -1.6470    -9.2830  C.ar    1  <O>11      -0.0290
  29 C20       5.9900    -0.0200    -5.9630  C.3     1  <O>11       0.0280
  30 C21       5.8730    -0.9180    -4.7220  C.3     1  <O>11       0.0304
  31 H1        6.5110     0.6790    -2.4880  H       1  <O>11       0.0423
  32 H2        5.8310    -0.8590    -1.9040  H       1  <O>11       0.0423
  33 H3        7.6690    -1.6952     2.0590  H       1  <O>11       0.1921
  34 H4        8.9650    -2.2450    -4.7790  H       1  <O>11       0.0480
  35 H5        7.5050    -2.9860    -5.4790  H       1  <O>11       0.0480
  36 H6        8.7810    -0.3220    -6.2690  H       1  <O>11       0.0479
  37 H7        8.6720    -1.7960    -7.2620  H       1  <O>11       0.0479
  38 H8        6.4830     0.9140    -5.6900  H       1  <O>11       0.0479
  39 H9        4.9950     0.1940    -6.3510  H       1  <O>11       0.0479
  40 H10       5.3820    -0.3650    -3.9220  H       1  <O>11       0.0480
  41 H11       5.2830    -1.8000    -4.9700  H       1  <O>11       0.0480
  42 H12      10.0150     2.3861     1.9523  H       1  <O>11       0.0625
  43 H13      10.4288     4.0728     0.2663  H       1  <O>11       0.0618
  44 H14       9.4726     3.8333    -1.9480  H       1  <O>11       0.0618
  45 H15       8.0956     1.9129    -2.4711  H       1  <O>11       0.0624
  46 H16       4.5284    -0.0342    -8.2259  H       1  <O>11       0.0636
  47 H17       3.8506    -0.4632   -10.5178  H       1  <O>11       0.0618
  48 H18       5.3436    -1.6410   -12.0313  H       1  <O>11       0.0623
  49 H19       8.2072    -1.9624    -8.9576  H       1  <O>11       0.0641
@<TRIPOS>BOND
     1     1     2    2
     2     2     3    1
     3     3     4    1
     4     4     5   ar
     5     5     6   ar
     6     6     7   ar
     7     7     8    2
     8     7     9   ar
     9     9    10   ar
    10    10    11   ar
    11    11    12   ar
    12    12    13   ar
    13    13    14   ar
    14     4    14   ar
    15     9    14   ar
    16     2    15   am
    17    15    16    1
    18    16    17    1
    19    17    18    1
    20    18    19    1
    21    19    20   ar
    22    20    21   ar
    23    21    22   ar
    24    22    23   ar
    25    23    24    1
    26    24    25    1
    27    24    26    1
    28    24    27    1
    29    23    28   ar
    30    19    28   ar
    31    18    29    1
    32    29    30    1
    33    15    30    1
    34     3    31    1
    35     3    32    1
    36     6    33    1
    37    16    34    1
    38    16    35    1
    39    17    36    1
    40    17    37    1
    41    29    38    1
    42    29    39    1
    43    30    40    1
    44    30    41    1
    45    10    42    1
    46    11    43    1
    47    12    44    1
    48    13    45    1
    49    20    46    1
    50    21    47    1
    51    22    48    1
    52    28    49    1
@<TRIPOS>MOLECULE
mol25_1_18
 49 52 0 0 0
SMALL
USER_CHARGES
****
VDW energy = -49.55
@<TRIPOS>ATOM
   1 O1        8.7381    -1.4068    -2.6744  O.2     1  <O>11      -0.2752
   2 C1        7.6234    -1.0459    -3.0216  C.2     1  <O>11       0.2216
   3 C2        6.7510    -0.2990    -2.0700  C.3     1  <O>11       0.0687
   4 C3        7.4590    -0.1250    -0.7860  C.ar    1  <O>11       0.0780
   5 N1        7.2738    -1.1113     0.1273  N.ar    1  <O>11      -0.1748
   6 N2        7.8032    -0.9746     1.3639  N.ar    1  <O>11      -0.2425
   7 C4        8.5122     0.1405     1.6571  C.ar    1  <O>11       0.2725
   8 O2        8.9520     0.2652     2.9887  O.2     1  <O>11      -0.2658
   9 C5        8.8181     1.1406     0.7225  C.ar    1  <O>11       0.0496
  10 C6        9.6078     2.2762     1.0104  C.ar    1  <O>11      -0.0487
  11 C7        9.8460     3.2515     0.0410  C.ar    1  <O>11      -0.0610
  12 C8        9.2966     3.1146    -1.2286  C.ar    1  <O>11      -0.0611
  13 C9        8.5069     2.0039    -1.5290  C.ar    1  <O>11      -0.0521
  14 C10       8.2616     1.0015    -0.5623  C.ar    1  <O>11       0.0108
  15 N3        7.1750    -1.3270    -4.2840  N.am    1  <O>11      -0.2982
  16 C11       5.8705    -0.9168    -4.7222  C.3     1  <O>11       0.0304
  17 C12       5.0694    -2.1528    -5.1869  C.3     1  <O>11       0.0280
  18 N4        5.8742    -2.9616    -6.2082  N.pl3   1  <O>11      -0.3269
  19 C13       5.3295    -3.3110    -7.4955  C.ar    1  <O>11       0.0303
  20 C14       6.0932    -4.0548    -8.4109  C.ar    1  <O>11      -0.0406
  21 C15       5.5677    -4.3837    -9.6662  C.ar    1  <O>11      -0.0595
  22 C16       4.2775    -3.9792   -10.0151  C.ar    1  <O>11      -0.0500
  23 C17       3.5134    -3.2449    -9.1013  C.ar    1  <O>11       0.0566
  24 C18       2.1509    -2.8202    -9.4759  C.3     1  <O>11       0.4175
  25 F1        1.5850    -2.1144    -8.4323  F       1  <O>11      -0.1659
  26 F2        1.3803    -3.9333    -9.7495  F       1  <O>11      -0.1659
  27 F3        2.2108    -2.0159   -10.5968  F       1  <O>11      -0.1659
  28 C19       4.0290    -2.9132    -7.8463  C.ar    1  <O>11      -0.0290
  29 C20       7.2669    -3.3192    -5.6819  C.3     1  <O>11       0.0280
  30 C21       7.9879    -2.0427    -5.2228  C.3     1  <O>11       0.0304
  31 H1        6.5110     0.6790    -2.4880  H       1  <O>11       0.0423
  32 H2        5.8310    -0.8590    -1.9040  H       1  <O>11       0.0423
  33 H3        7.6690    -1.6952     2.0590  H       1  <O>11       0.1921
  34 H4        5.3466    -0.4329    -3.8973  H       1  <O>11       0.0480
  35 H5        5.9707    -0.2161    -5.5508  H       1  <O>11       0.0480
  36 H6        4.8494    -2.7828    -4.3246  H       1  <O>11       0.0479
  37 H7        4.1368    -1.8239    -5.6449  H       1  <O>11       0.0479
  38 H8        7.1703    -4.0047    -4.8389  H       1  <O>11       0.0479
  39 H9        7.8427    -3.7961    -6.4740  H       1  <O>11       0.0479
  40 H10       8.9313    -2.3121    -4.7491  H       1  <O>11       0.0480
  41 H11       8.1829    -1.4084    -6.0872  H       1  <O>11       0.0480
  42 H12      10.0150     2.3861     1.9523  H       1  <O>11       0.0625
  43 H13      10.4288     4.0728     0.2663  H       1  <O>11       0.0618
  44 H14       9.4726     3.8333    -1.9480  H       1  <O>11       0.0618
  45 H15       8.0956     1.9129    -2.4711  H       1  <O>11       0.0624
  46 H16       7.0456    -4.3600    -8.1568  H       1  <O>11       0.0636
  47 H17       6.1355    -4.9265   -10.3355  H       1  <O>11       0.0618
  48 H18       3.8900    -4.2203   -10.9407  H       1  <O>11       0.0623
  49 H19       3.4550    -2.3763    -7.1775  H       1  <O>11       0.0641
@<TRIPOS>BOND
     1     1     2    2
     2     2     3    1
     3     3     4    1
     4     4     5   ar
     5     5     6   ar
     6     6     7   ar
     7     7     8    2
     8     7     9   ar
     9     9    10   ar
    10    10    11   ar
    11    11    12   ar
    12    12    13   ar
    13    13    14   ar
    14     4    14   ar
    15     9    14   ar
    16     2    15   am
    17    15    16    1
    18    16    17    1
    19    17    18    1
    20    18    19    1
    21    19    20   ar
    22    20    21   ar
    23    21    22   ar
    24    22    23   ar
    25    23    24    1
    26    24    25    1
    27    24    26    1
    28    24    27    1
    29    23    28   ar
    30    19    28   ar
    31    18    29    1
    32    29    30    1
    33    15    30    1
    34     3    31    1
    35     3    32    1
    36     6    33    1
    37    16    34    1
    38    16    35    1
    39    17    36    1
    40    17    37    1
    41    29    38    1
    42    29    39    1
    43    30    40    1
    44    30    41    1
    45    10    42    1
    46    11    43    1
    47    12    44    1
    48    13    45    1
    49    20    46    1
    50    21    47    1
    51    22    48    1
    52    28    49    1
@<TRIPOS>MOLECULE
mol25_1_19
 49 52 0 0 0
SMALL
USER_CHARGES
****
VDW energy = -48.66
@<TRIPOS>ATOM
   1 O1        8.7381    -1.4068    -2.6744  O.2     1  <O>11      -0.2752
   2 C1        7.6234    -1.0459    -3.0216  C.2     1  <O>11       0.2216
   3 C2        6.7510    -0.2990    -2.0700  C.3     1  <O>11       0.0687
   4 C3        7.4590    -0.1250    -0.7860  C.ar    1  <O>11       0.0780
   5 N1        8.2092     1.0001    -0.6747  N.ar    1  <O>11      -0.1748
   6 N2        8.9699     1.1805     0.4285  N.ar    1  <O>11      -0.2425
   7 C4        8.9575     0.2366     1.3986  C.ar    1  <O>11       0.2725
   8 O2        9.8445     0.4380     2.4732  O.2     1  <O>11      -0.2658
   9 C5        8.1258    -0.8927     1.3798  C.ar    1  <O>11       0.0496
  10 C6        8.0677    -1.8485     2.4186  C.ar    1  <O>11      -0.0487
  11 C7        7.2409    -2.9685     2.3203  C.ar    1  <O>11      -0.0610
  12 C8        6.4634    -3.1576     1.1837  C.ar    1  <O>11      -0.0611
  13 C9        6.5139    -2.2287     0.1435  C.ar    1  <O>11      -0.0521
  14 C10       7.3393    -1.0836     0.2288  C.ar    1  <O>11       0.0108
  15 N3        7.1750    -1.3270    -4.2840  N.am    1  <O>11      -0.2982
  16 C11       7.9900    -2.0440    -5.2240  C.3     1  <O>11       0.0304
  17 C12       8.1720    -1.1960    -6.5020  C.3     1  <O>11       0.0280
  18 N4        6.8140    -0.7340    -7.0380  N.pl3   1  <O>11      -0.3269
  19 C13       6.4170    -0.9750    -8.4020  C.ar    1  <O>11       0.0303
  20 C14       5.1640    -0.5380    -8.8640  C.ar    1  <O>11      -0.0406
  21 C15       4.7740    -0.7830   -10.1860  C.ar    1  <O>11      -0.0595
  22 C16       5.6310    -1.4590   -11.0570  C.ar    1  <O>11      -0.0500
  23 C17       6.8820    -1.8880   -10.6000  C.ar    1  <O>11       0.0566
  24 C18       7.7830    -2.6020   -11.5250  C.3     1  <O>11       0.4175
  25 F1        8.9530    -2.9290   -10.8680  F       1  <O>11      -0.1659
  26 F2        8.0730    -1.7900   -12.6040  F       1  <O>11      -0.1659
  27 F3        7.1670    -3.7550   -11.9700  F       1  <O>11      -0.1659
  28 C19       7.2800    -1.6470    -9.2830  C.ar    1  <O>11      -0.0290
  29 C20       5.9900    -0.0200    -5.9630  C.3     1  <O>11       0.0280
  30 C21       5.8730    -0.9180    -4.7220  C.3     1  <O>11       0.0304
  31 H1        6.5110     0.6790    -2.4880  H       1  <O>11       0.0423
  32 H2        5.8310    -0.8590    -1.9040  H       1  <O>11       0.0423
  33 H3        9.5407     2.0084     0.5251  H       1  <O>11       0.1921
  34 H4        8.9650    -2.2450    -4.7790  H       1  <O>11       0.0480
  35 H5        7.5050    -2.9860    -5.4790  H       1  <O>11       0.0480
  36 H6        8.7810    -0.3220    -6.2690  H       1  <O>11       0.0479
  37 H7        8.6720    -1.7960    -7.2620  H       1  <O>11       0.0479
  38 H8        6.4830     0.9140    -5.6900  H       1  <O>11       0.0479
  39 H9        4.9950     0.1940    -6.3510  H       1  <O>11       0.0479
  40 H10       5.3820    -0.3650    -3.9220  H       1  <O>11       0.0480
  41 H11       5.2830    -1.8000    -4.9700  H       1  <O>11       0.0480
  42 H12       8.6457    -1.7163     3.2633  H       1  <O>11       0.0625
  43 H13       7.2067    -3.6549     3.0901  H       1  <O>11       0.0618
  44 H14       5.8496    -3.9840     1.1091  H       1  <O>11       0.0618
  45 H15       5.9402    -2.3797    -0.7009  H       1  <O>11       0.0624
  46 H16       4.5284    -0.0342    -8.2259  H       1  <O>11       0.0636
  47 H17       3.8506    -0.4632   -10.5178  H       1  <O>11       0.0618
  48 H18       5.3436    -1.6410   -12.0313  H       1  <O>11       0.0623
  49 H19       8.2072    -1.9624    -8.9576  H       1  <O>11       0.0641
@<TRIPOS>BOND
     1     1     2    2
     2     2     3    1
     3     3     4    1
     4     4     5   ar
     5     5     6   ar
     6     6     7   ar
     7     7     8    2
     8     7     9   ar
     9     9    10   ar
    10    10    11   ar
    11    11    12   ar
    12    12    13   ar
    13    13    14   ar
    14     4    14   ar
    15     9    14   ar
    16     2    15   am
    17    15    16    1
    18    16    17    1
    19    17    18    1
    20    18    19    1
    21    19    20   ar
    22    20    21   ar
    23    21    22   ar
    24    22    23   ar
    25    23    24    1
    26    24    25    1
    27    24    26    1
    28    24    27    1
    29    23    28   ar
    30    19    28   ar
    31    18    29    1
    32    29    30    1
    33    15    30    1
    34     3    31    1
    35     3    32    1
    36     6    33    1
    37    16    34    1
    38    16    35    1
    39    17    36    1
    40    17    37    1
    41    29    38    1
    42    29    39    1
    43    30    40    1
    44    30    41    1
    45    10    42    1
    46    11    43    1
    47    12    44    1
    48    13    45    1
    49    20    46    1
    50    21    47    1
    51    22    48    1
    52    28    49    1
@<TRIPOS>MOLECULE
mol25_1_20
 49 52 0 0 0
SMALL
USER_CHARGES
****
VDW energy = -48.66
@<TRIPOS>ATOM
   1 O1        8.7381    -1.4068    -2.6744  O.2     1  <O>11      -0.2752
   2 C1        7.6234    -1.0459    -3.0216  C.2     1  <O>11       0.2216
   3 C2        6.7510    -0.2990    -2.0700  C.3     1  <O>11       0.0687
   4 C3        7.4590    -0.1250    -0.7860  C.ar    1  <O>11       0.0780
   5 N1        8.2092     1.0001    -0.6747  N.ar    1  <O>11      -0.1748
   6 N2        8.9699     1.1805     0.4285  N.ar    1  <O>11      -0.2425
   7 C4        8.9575     0.2366     1.3986  C.ar    1  <O>11       0.2725
   8 O2        9.8445     0.4380     2.4732  O.2     1  <O>11      -0.2658
   9 C5        8.1258    -0.8927     1.3798  C.ar    1  <O>11       0.0496
  10 C6        8.0677    -1.8485     2.4186  C.ar    1  <O>11      -0.0487
  11 C7        7.2409    -2.9685     2.3203  C.ar    1  <O>11      -0.0610
  12 C8        6.4634    -3.1576     1.1837  C.ar    1  <O>11      -0.0611
  13 C9        6.5139    -2.2287     0.1435  C.ar    1  <O>11      -0.0521
  14 C10       7.3393    -1.0836     0.2288  C.ar    1  <O>11       0.0108
  15 N3        7.1750    -1.3270    -4.2840  N.am    1  <O>11      -0.2982
  16 C11       7.9900    -2.0440    -5.2240  C.3     1  <O>11       0.0304
  17 C12       8.1720    -1.1960    -6.5020  C.3     1  <O>11       0.0280
  18 N4        6.8140    -0.7340    -7.0380  N.pl3   1  <O>11      -0.3269
  19 C13       6.4170    -0.9750    -8.4020  C.ar    1  <O>11       0.0303
  20 C14       5.1640    -0.5380    -8.8640  C.ar    1  <O>11      -0.0406
  21 C15       4.7740    -0.7830   -10.1860  C.ar    1  <O>11      -0.0595
  22 C16       5.6310    -1.4590   -11.0570  C.ar    1  <O>11      -0.0500
  23 C17       6.8820    -1.8880   -10.6000  C.ar    1  <O>11       0.0566
  24 C18       7.7830    -2.6020   -11.5250  C.3     1  <O>11       0.4175
  25 F1        7.1672    -3.7556   -11.9695  F       1  <O>11      -0.1659
  26 F2        8.9528    -2.9292   -10.8676  F       1  <O>11      -0.1659
  27 F3        8.0736    -1.7902   -12.6036  F       1  <O>11      -0.1659
  28 C19       7.2800    -1.6470    -9.2830  C.ar    1  <O>11      -0.0290
  29 C20       5.9900    -0.0200    -5.9630  C.3     1  <O>11       0.0280
  30 C21       5.8730    -0.9180    -4.7220  C.3     1  <O>11       0.0304
  31 H1        6.5110     0.6790    -2.4880  H       1  <O>11       0.0423
  32 H2        5.8310    -0.8590    -1.9040  H       1  <O>11       0.0423
  33 H3        9.5407     2.0084     0.5251  H       1  <O>11       0.1921
  34 H4        8.9650    -2.2450    -4.7790  H       1  <O>11       0.0480
  35 H5        7.5050    -2.9860    -5.4790  H       1  <O>11       0.0480
  36 H6        8.7810    -0.3220    -6.2690  H       1  <O>11       0.0479
  37 H7        8.6720    -1.7960    -7.2620  H       1  <O>11       0.0479
  38 H8        6.4830     0.9140    -5.6900  H       1  <O>11       0.0479
  39 H9        4.9950     0.1940    -6.3510  H       1  <O>11       0.0479
  40 H10       5.3820    -0.3650    -3.9220  H       1  <O>11       0.0480
  41 H11       5.2830    -1.8000    -4.9700  H       1  <O>11       0.0480
  42 H12       8.6457    -1.7163     3.2633  H       1  <O>11       0.0625
  43 H13       7.2067    -3.6549     3.0901  H       1  <O>11       0.0618
  44 H14       5.8496    -3.9840     1.1091  H       1  <O>11       0.0618
  45 H15       5.9402    -2.3797    -0.7009  H       1  <O>11       0.0624
  46 H16       4.5284    -0.0342    -8.2259  H       1  <O>11       0.0636
  47 H17       3.8506    -0.4632   -10.5178  H       1  <O>11       0.0618
  48 H18       5.3436    -1.6410   -12.0313  H       1  <O>11       0.0623
  49 H19       8.2072    -1.9624    -8.9576  H       1  <O>11       0.0641
@<TRIPOS>BOND
     1     1     2    2
     2     2     3    1
     3     3     4    1
     4     4     5   ar
     5     5     6   ar
     6     6     7   ar
     7     7     8    2
     8     7     9   ar
     9     9    10   ar
    10    10    11   ar
    11    11    12   ar
    12    12    13   ar
    13    13    14   ar
    14     4    14   ar
    15     9    14   ar
    16     2    15   am
    17    15    16    1
    18    16    17    1
    19    17    18    1
    20    18    19    1
    21    19    20   ar
    22    20    21   ar
    23    21    22   ar
    24    22    23   ar
    25    23    24    1
    26    24    25    1
    27    24    26    1
    28    24    27    1
    29    23    28   ar
    30    19    28   ar
    31    18    29    1
    32    29    30    1
    33    15    30    1
    34     3    31    1
    35     3    32    1
    36     6    33    1
    37    16    34    1
    38    16    35    1
    39    17    36    1
    40    17    37    1
    41    29    38    1
    42    29    39    1
    43    30    40    1
    44    30    41    1
    45    10    42    1
    46    11    43    1
    47    12    44    1
    48    13    45    1
    49    20    46    1
    50    21    47    1
    51    22    48    1
    52    28    49    1
@<TRIPOS>MOLECULE
mol25_1_21
 49 52 0 0 0
SMALL
USER_CHARGES
****
VDW energy = -45.15
@<TRIPOS>ATOM
   1 O1        8.7381    -1.4068    -2.6744  O.2     1  <O>11      -0.2752
   2 C1        7.6234    -1.0459    -3.0216  C.2     1  <O>11       0.2216
   3 C2        6.7510    -0.2990    -2.0700  C.3     1  <O>11       0.0687
   4 C3        7.4590    -0.1250    -0.7860  C.ar    1  <O>11       0.0780
   5 N1        8.7070    -0.6540    -0.7250  N.ar    1  <O>11      -0.1748
   6 N2        9.3790    -0.6280     0.4480  N.ar    1  <O>11      -0.2425
   7 C4        8.7920    -0.0670     1.5310  C.ar    1  <O>11       0.2725
   8 O2        9.5040    -0.1600     2.7420  O.2     1  <O>11      -0.2658
   9 C5        7.5490     0.5820     1.4980  C.ar    1  <O>11       0.0496
  10 C6        6.9610     1.2200     2.6130  C.ar    1  <O>11      -0.0487
  11 C7        5.7040     1.8190     2.5190  C.ar    1  <O>11      -0.0610
  12 C8        5.0100     1.7870     1.3150  C.ar    1  <O>11      -0.0611
  13 C9        5.5710     1.1540     0.2050  C.ar    1  <O>11      -0.0521
  14 C10       6.8470     0.5490     0.2790  C.ar    1  <O>11       0.0108
  15 N3        7.1750    -1.3270    -4.2840  N.am    1  <O>11      -0.2982
  16 C11       7.9900    -2.0440    -5.2240  C.3     1  <O>11       0.0304
  17 C12       8.1720    -1.1960    -6.5020  C.3     1  <O>11       0.0280
  18 N4        6.8140    -0.7340    -7.0380  N.pl3   1  <O>11      -0.3269
  19 C13       6.4170    -0.9750    -8.4020  C.ar    1  <O>11       0.0303
  20 C14       6.7120    -0.0346    -9.4035  C.ar    1  <O>11      -0.0406
  21 C15       6.3155    -0.2638   -10.7264  C.ar    1  <O>11      -0.0595
  22 C16       5.6284    -1.4326   -11.0609  C.ar    1  <O>11      -0.0500
  23 C17       5.3407    -2.3731   -10.0657  C.ar    1  <O>11       0.0566
  24 C18       4.6143    -3.6061   -10.4253  C.3     1  <O>11       0.4175
  25 F1        4.4403    -4.3840    -9.2975  F       1  <O>11      -0.1659
  26 F2        5.3416    -4.3122   -11.3634  F       1  <O>11      -0.1659
  27 F3        3.3811    -3.2771   -10.9525  F       1  <O>11      -0.1659
  28 C19       5.7334    -2.1534    -8.7434  C.ar    1  <O>11      -0.0290
  29 C20       5.9900    -0.0200    -5.9630  C.3     1  <O>11       0.0280
  30 C21       5.8730    -0.9180    -4.7220  C.3     1  <O>11       0.0304
  31 H1        6.5110     0.6790    -2.4880  H       1  <O>11       0.0423
  32 H2        5.8310    -0.8590    -1.9040  H       1  <O>11       0.0423
  33 H3       10.3060    -1.0240     0.5140  H       1  <O>11       0.1921
  34 H4        8.9650    -2.2450    -4.7790  H       1  <O>11       0.0480
  35 H5        7.5050    -2.9860    -5.4790  H       1  <O>11       0.0480
  36 H6        8.7810    -0.3220    -6.2690  H       1  <O>11       0.0479
  37 H7        8.6720    -1.7960    -7.2620  H       1  <O>11       0.0479
  38 H8        6.4830     0.9140    -5.6900  H       1  <O>11       0.0479
  39 H9        4.9950     0.1940    -6.3510  H       1  <O>11       0.0479
  40 H10       5.3820    -0.3650    -3.9220  H       1  <O>11       0.0480
  41 H11       5.2830    -1.8000    -4.9700  H       1  <O>11       0.0480
  42 H12       7.4690     1.2435     3.5110  H       1  <O>11       0.0625
  43 H13       5.2905     2.2848     3.3418  H       1  <O>11       0.0618
  44 H14       4.0811     2.2308     1.2421  H       1  <O>11       0.0618
  45 H15       5.0466     1.1270    -0.6834  H       1  <O>11       0.0624
  46 H16       7.2233     0.8289    -9.1628  H       1  <O>11       0.0636
  47 H17       6.5315     0.4329   -11.4564  H       1  <O>11       0.0618
  48 H18       5.3348    -1.6016   -12.0357  H       1  <O>11       0.0623
  49 H19       5.5215    -2.8562    -8.0180  H       1  <O>11       0.0641
@<TRIPOS>BOND
     1     1     2    2
     2     2     3    1
     3     3     4    1
     4     4     5   ar
     5     5     6   ar
     6     6     7   ar
     7     7     8    2
     8     7     9   ar
     9     9    10   ar
    10    10    11   ar
    11    11    12   ar
    12    12    13   ar
    13    13    14   ar
    14     4    14   ar
    15     9    14   ar
    16     2    15   am
    17    15    16    1
    18    16    17    1
    19    17    18    1
    20    18    19    1
    21    19    20   ar
    22    20    21   ar
    23    21    22   ar
    24    22    23   ar
    25    23    24    1
    26    24    25    1
    27    24    26    1
    28    24    27    1
    29    23    28   ar
    30    19    28   ar
    31    18    29    1
    32    29    30    1
    33    15    30    1
    34     3    31    1
    35     3    32    1
    36     6    33    1
    37    16    34    1
    38    16    35    1
    39    17    36    1
    40    17    37    1
    41    29    38    1
    42    29    39    1
    43    30    40    1
    44    30    41    1
    45    10    42    1
    46    11    43    1
    47    12    44    1
    48    13    45    1
    49    20    46    1
    50    21    47    1
    51    22    48    1
    52    28    49    1
@<TRIPOS>MOLECULE
mol25_1_22
 49 52 0 0 0
SMALL
USER_CHARGES
****
VDW energy = -45.09
@<TRIPOS>ATOM
   1 O1        8.7381    -1.4068    -2.6744  O.2     1  <O>11      -0.2752
   2 C1        7.6234    -1.0459    -3.0216  C.2     1  <O>11       0.2216
   3 C2        6.7510    -0.2990    -2.0700  C.3     1  <O>11       0.0687
   4 C3        7.4590    -0.1250    -0.7860  C.ar    1  <O>11       0.0780
   5 N1        8.7070    -0.6540    -0.7250  N.ar    1  <O>11      -0.1748
   6 N2        9.3790    -0.6280     0.4480  N.ar    1  <O>11      -0.2425
   7 C4        8.7920    -0.0670     1.5310  C.ar    1  <O>11       0.2725
   8 O2        9.5040    -0.1600     2.7420  O.2     1  <O>11      -0.2658
   9 C5        7.5490     0.5820     1.4980  C.ar    1  <O>11       0.0496
  10 C6        6.9610     1.2200     2.6130  C.ar    1  <O>11      -0.0487
  11 C7        5.7040     1.8190     2.5190  C.ar    1  <O>11      -0.0610
  12 C8        5.0100     1.7870     1.3150  C.ar    1  <O>11      -0.0611
  13 C9        5.5710     1.1540     0.2050  C.ar    1  <O>11      -0.0521
  14 C10       6.8470     0.5490     0.2790  C.ar    1  <O>11       0.0108
  15 N3        7.1750    -1.3270    -4.2840  N.am    1  <O>11      -0.2982
  16 C11       7.9900    -2.0440    -5.2240  C.3     1  <O>11       0.0304
  17 C12       8.1720    -1.1960    -6.5020  C.3     1  <O>11       0.0280
  18 N4        6.8140    -0.7340    -7.0380  N.pl3   1  <O>11      -0.3269
  19 C13       6.4170    -0.9750    -8.4020  C.ar    1  <O>11       0.0303
  20 C14       5.7310    -2.1527    -8.7437  C.ar    1  <O>11      -0.0406
  21 C15       5.3561    -2.3918   -10.0712  C.ar    1  <O>11      -0.0595
  22 C16       5.6567    -1.4577   -11.0647  C.ar    1  <O>11      -0.0500
  23 C17       6.3332    -0.2811   -10.7242  C.ar    1  <O>11       0.0566
  24 C18       6.6481     0.7020   -11.7785  C.3     1  <O>11       0.4175
  25 F1        7.3123     1.7775   -11.2220  F       1  <O>11      -0.1659
  26 F2        5.4768     1.1387   -12.3658  F       1  <O>11      -0.1659
  27 F3        7.4494     0.1108   -12.7352  F       1  <O>11      -0.1659
  28 C19       6.7101    -0.0336    -9.4022  C.ar    1  <O>11      -0.0290
  29 C20       5.9900    -0.0200    -5.9630  C.3     1  <O>11       0.0280
  30 C21       5.8730    -0.9180    -4.7220  C.3     1  <O>11       0.0304
  31 H1        6.5110     0.6790    -2.4880  H       1  <O>11       0.0423
  32 H2        5.8310    -0.8590    -1.9040  H       1  <O>11       0.0423
  33 H3       10.3060    -1.0240     0.5140  H       1  <O>11       0.1921
  34 H4        8.9650    -2.2450    -4.7790  H       1  <O>11       0.0480
  35 H5        7.5050    -2.9860    -5.4790  H       1  <O>11       0.0480
  36 H6        8.7810    -0.3220    -6.2690  H       1  <O>11       0.0479
  37 H7        8.6720    -1.7960    -7.2620  H       1  <O>11       0.0479
  38 H8        6.4830     0.9140    -5.6900  H       1  <O>11       0.0479
  39 H9        4.9950     0.1940    -6.3510  H       1  <O>11       0.0479
  40 H10       5.3820    -0.3650    -3.9220  H       1  <O>11       0.0480
  41 H11       5.2830    -1.8000    -4.9700  H       1  <O>11       0.0480
  42 H12       7.4690     1.2435     3.5110  H       1  <O>11       0.0625
  43 H13       5.2905     2.2848     3.3418  H       1  <O>11       0.0618
  44 H14       4.0811     2.2308     1.2421  H       1  <O>11       0.0618
  45 H15       5.0466     1.1270    -0.6834  H       1  <O>11       0.0624
  46 H16       5.5025    -2.8446    -8.0129  H       1  <O>11       0.0636
  47 H17       4.8563    -3.2608   -10.3162  H       1  <O>11       0.0618
  48 H18       5.3817    -1.6339   -12.0436  H       1  <O>11       0.0623
  49 H19       7.2035     0.8400    -9.1606  H       1  <O>11       0.0641
@<TRIPOS>BOND
     1     1     2    2
     2     2     3    1
     3     3     4    1
     4     4     5   ar
     5     5     6   ar
     6     6     7   ar
     7     7     8    2
     8     7     9   ar
     9     9    10   ar
    10    10    11   ar
    11    11    12   ar
    12    12    13   ar
    13    13    14   ar
    14     4    14   ar
    15     9    14   ar
    16     2    15   am
    17    15    16    1
    18    16    17    1
    19    17    18    1
    20    18    19    1
    21    19    20   ar
    22    20    21   ar
    23    21    22   ar
    24    22    23   ar
    25    23    24    1
    26    24    25    1
    27    24    26    1
    28    24    27    1
    29    23    28   ar
    30    19    28   ar
    31    18    29    1
    32    29    30    1
    33    15    30    1
    34     3    31    1
    35     3    32    1
    36     6    33    1
    37    16    34    1
    38    16    35    1
    39    17    36    1
    40    17    37    1
    41    29    38    1
    42    29    39    1
    43    30    40    1
    44    30    41    1
    45    10    42    1
    46    11    43    1
    47    12    44    1
    48    13    45    1
    49    20    46    1
    50    21    47    1
    51    22    48    1
    52    28    49    1
@<TRIPOS>MOLECULE
mol25_1_23
 49 52 0 0 0
SMALL
USER_CHARGES
****
VDW energy = -44.90
@<TRIPOS>ATOM
   1 O1        8.7381    -1.4068    -2.6744  O.2     1  <O>11      -0.2752
   2 C1        7.6234    -1.0459    -3.0216  C.2     1  <O>11       0.2216
   3 C2        6.7510    -0.2990    -2.0700  C.3     1  <O>11       0.0687
   4 C3        7.4590    -0.1250    -0.7860  C.ar    1  <O>11       0.0780
   5 N1        8.7067    -0.6546    -0.7248  N.ar    1  <O>11      -0.1748
   6 N2        9.3787    -0.6286     0.4483  N.ar    1  <O>11      -0.2425
   7 C4        8.7919    -0.0670     1.5311  C.ar    1  <O>11       0.2725
   8 O2        9.5038    -0.1600     2.7421  O.2     1  <O>11      -0.2658
   9 C5        7.5492     0.5825     1.4978  C.ar    1  <O>11       0.0496
  10 C6        6.9614     1.2211     2.6126  C.ar    1  <O>11      -0.0487
  11 C7        5.7047     1.8207     2.5184  C.ar    1  <O>11      -0.0610
  12 C8        5.0108     1.7887     1.3144  C.ar    1  <O>11      -0.0611
  13 C9        5.5715     1.1551     0.2046  C.ar    1  <O>11      -0.0521
  14 C10       6.8472     0.5496     0.2788  C.ar    1  <O>11       0.0108
  15 N3        7.1750    -1.3270    -4.2840  N.am    1  <O>11      -0.2982
  16 C11       7.9900    -2.0440    -5.2240  C.3     1  <O>11       0.0304
  17 C12       8.1720    -1.1960    -6.5020  C.3     1  <O>11       0.0280
  18 N4        6.8140    -0.7340    -7.0380  N.pl3   1  <O>11      -0.3269
  19 C13       6.4170    -0.9750    -8.4020  C.ar    1  <O>11       0.0303
  20 C14       7.1025    -0.3553    -9.4605  C.ar    1  <O>11      -0.0406
  21 C15       6.7087    -0.5804   -10.7849  C.ar    1  <O>11      -0.0595
  22 C16       5.6344    -1.4280   -11.0635  C.ar    1  <O>11      -0.0500
  23 C17       4.9559    -2.0515   -10.0105  C.ar    1  <O>11       0.0566
  24 C18       3.8214    -2.9457   -10.3112  C.3     1  <O>11       0.4175
  25 F1        4.2836    -4.2365   -10.4778  F       1  <O>11      -0.1659
  26 F2        3.1995    -2.5267   -11.4711  F       1  <O>11      -0.1659
  27 F3        2.9182    -2.9112    -9.2672  F       1  <O>11      -0.1659
  28 C19       5.3425    -1.8336    -8.6861  C.ar    1  <O>11      -0.0290
  29 C20       5.9900    -0.0200    -5.9630  C.3     1  <O>11       0.0280
  30 C21       5.8730    -0.9180    -4.7220  C.3     1  <O>11       0.0304
  31 H1        6.5110     0.6790    -2.4880  H       1  <O>11       0.0423
  32 H2        5.8310    -0.8590    -1.9040  H       1  <O>11       0.0423
  33 H3       10.3055    -1.0250     0.5144  H       1  <O>11       0.1921
  34 H4        8.9650    -2.2450    -4.7790  H       1  <O>11       0.0480
  35 H5        7.5050    -2.9860    -5.4790  H       1  <O>11       0.0480
  36 H6        8.7810    -0.3220    -6.2690  H       1  <O>11       0.0479
  37 H7        8.6720    -1.7960    -7.2620  H       1  <O>11       0.0479
  38 H8        6.4830     0.9140    -5.6900  H       1  <O>11       0.0479
  39 H9        4.9950     0.1940    -6.3510  H       1  <O>11       0.0479
  40 H10       5.3820    -0.3650    -3.9220  H       1  <O>11       0.0480
  41 H11       5.2830    -1.8000    -4.9700  H       1  <O>11       0.0480
  42 H12       7.4694     1.2446     3.5106  H       1  <O>11       0.0625
  43 H13       5.2914     2.2869     3.3410  H       1  <O>11       0.0618
  44 H14       4.0821     2.2329     1.2413  H       1  <O>11       0.0618
  45 H15       5.0472     1.1282    -0.6839  H       1  <O>11       0.0624
  46 H16       7.8998     0.2687    -9.2607  H       1  <O>11       0.0636
  47 H17       7.2137    -0.1188   -11.5575  H       1  <O>11       0.0618
  48 H18       5.3429    -1.5935   -12.0395  H       1  <O>11       0.0623
  49 H19       4.8391    -2.3029    -7.9171  H       1  <O>11       0.0641
@<TRIPOS>BOND
     1     1     2    2
     2     2     3    1
     3     3     4    1
     4     4     5   ar
     5     5     6   ar
     6     6     7   ar
     7     7     8    2
     8     7     9   ar
     9     9    10   ar
    10    10    11   ar
    11    11    12   ar
    12    12    13   ar
    13    13    14   ar
    14     4    14   ar
    15     9    14   ar
    16     2    15   am
    17    15    16    1
    18    16    17    1
    19    17    18    1
    20    18    19    1
    21    19    20   ar
    22    20    21   ar
    23    21    22   ar
    24    22    23   ar
    25    23    24    1
    26    24    25    1
    27    24    26    1
    28    24    27    1
    29    23    28   ar
    30    19    28   ar
    31    18    29    1
    32    29    30    1
    33    15    30    1
    34     3    31    1
    35     3    32    1
    36     6    33    1
    37    16    34    1
    38    16    35    1
    39    17    36    1
    40    17    37    1
    41    29    38    1
    42    29    39    1
    43    30    40    1
    44    30    41    1
    45    10    42    1
    46    11    43    1
    47    12    44    1
    48    13    45    1
    49    20    46    1
    50    21    47    1
    51    22    48    1
    52    28    49    1
@<TRIPOS>MOLECULE
mol25_1_24
 49 52 0 0 0
SMALL
USER_CHARGES
****
VDW energy = -44.76
@<TRIPOS>ATOM
   1 O1        8.7381    -1.4068    -2.6744  O.2     1  <O>11      -0.2752
   2 C1        7.6234    -1.0459    -3.0216  C.2     1  <O>11       0.2216
   3 C2        6.7510    -0.2990    -2.0700  C.3     1  <O>11       0.0687
   4 C3        7.4590    -0.1250    -0.7860  C.ar    1  <O>11       0.0780
   5 N1        8.7070    -0.6540    -0.7250  N.ar    1  <O>11      -0.1748
   6 N2        9.3790    -0.6280     0.4480  N.ar    1  <O>11      -0.2425
   7 C4        8.7920    -0.0670     1.5310  C.ar    1  <O>11       0.2725
   8 O2        9.5040    -0.1600     2.7420  O.2     1  <O>11      -0.2658
   9 C5        7.5490     0.5820     1.4980  C.ar    1  <O>11       0.0496
  10 C6        6.9610     1.2200     2.6130  C.ar    1  <O>11      -0.0487
  11 C7        5.7040     1.8190     2.5190  C.ar    1  <O>11      -0.0610
  12 C8        5.0100     1.7870     1.3150  C.ar    1  <O>11      -0.0611
  13 C9        5.5710     1.1540     0.2050  C.ar    1  <O>11      -0.0521
  14 C10       6.8470     0.5490     0.2790  C.ar    1  <O>11       0.0108
  15 N3        7.1750    -1.3270    -4.2840  N.am    1  <O>11      -0.2982
  16 C11       7.9900    -2.0440    -5.2240  C.3     1  <O>11       0.0304
  17 C12       8.1720    -1.1960    -6.5020  C.3     1  <O>11       0.0280
  18 N4        6.8140    -0.7340    -7.0380  N.pl3   1  <O>11      -0.3269
  19 C13       6.4170    -0.9750    -8.4020  C.ar    1  <O>11       0.0303
  20 C14       6.2077    -2.2873    -8.8587  C.ar    1  <O>11      -0.0406
  21 C15       5.8336    -2.5215   -10.1873  C.ar    1  <O>11      -0.0595
  22 C16       5.6602    -1.4509   -11.0669  C.ar    1  <O>11      -0.0500
  23 C17       5.8611    -0.1433   -10.6111  C.ar    1  <O>11       0.0566
  24 C18       5.6765     0.9837   -11.5454  C.3     1  <O>11       0.4175
  25 F1        4.3638     1.4106   -11.4989  F       1  <O>11      -0.1659
  26 F2        5.9813     0.5730   -12.8284  F       1  <O>11      -0.1659
  27 F3        6.5117     2.0227   -11.1849  F       1  <O>11      -0.1659
  28 C19       6.2333     0.0999    -9.2870  C.ar    1  <O>11      -0.0290
  29 C20       5.9900    -0.0200    -5.9630  C.3     1  <O>11       0.0280
  30 C21       5.8730    -0.9180    -4.7220  C.3     1  <O>11       0.0304
  31 H1        6.5110     0.6790    -2.4880  H       1  <O>11       0.0423
  32 H2        5.8310    -0.8590    -1.9040  H       1  <O>11       0.0423
  33 H3       10.3060    -1.0240     0.5140  H       1  <O>11       0.1921
  34 H4        8.9650    -2.2450    -4.7790  H       1  <O>11       0.0480
  35 H5        7.5050    -2.9860    -5.4790  H       1  <O>11       0.0480
  36 H6        8.7810    -0.3220    -6.2690  H       1  <O>11       0.0479
  37 H7        8.6720    -1.7960    -7.2620  H       1  <O>11       0.0479
  38 H8        6.4830     0.9140    -5.6900  H       1  <O>11       0.0479
  39 H9        4.9950     0.1940    -6.3510  H       1  <O>11       0.0479
  40 H10       5.3820    -0.3650    -3.9220  H       1  <O>11       0.0480
  41 H11       5.2830    -1.8000    -4.9700  H       1  <O>11       0.0480
  42 H12       7.4690     1.2435     3.5110  H       1  <O>11       0.0625
  43 H13       5.2905     2.2848     3.3418  H       1  <O>11       0.0618
  44 H14       4.0811     2.2308     1.2421  H       1  <O>11       0.0618
  45 H15       5.0466     1.1270    -0.6834  H       1  <O>11       0.0624
  46 H16       6.3303    -3.0820    -8.2119  H       1  <O>11       0.0636
  47 H17       5.6857    -3.4879   -10.5175  H       1  <O>11       0.0618
  48 H18       5.3856    -1.6229   -12.0467  H       1  <O>11       0.0623
  49 H19       6.3732     1.0685    -8.9593  H       1  <O>11       0.0641
@<TRIPOS>BOND
     1     1     2    2
     2     2     3    1
     3     3     4    1
     4     4     5   ar
     5     5     6   ar
     6     6     7   ar
     7     7     8    2
     8     7     9   ar
     9     9    10   ar
    10    10    11   ar
    11    11    12   ar
    12    12    13   ar
    13    13    14   ar
    14     4    14   ar
    15     9    14   ar
    16     2    15   am
    17    15    16    1
    18    16    17    1
    19    17    18    1
    20    18    19    1
    21    19    20   ar
    22    20    21   ar
    23    21    22   ar
    24    22    23   ar
    25    23    24    1
    26    24    25    1
    27    24    26    1
    28    24    27    1
    29    23    28   ar
    30    19    28   ar
    31    18    29    1
    32    29    30    1
    33    15    30    1
    34     3    31    1
    35     3    32    1
    36     6    33    1
    37    16    34    1
    38    16    35    1
    39    17    36    1
    40    17    37    1
    41    29    38    1
    42    29    39    1
    43    30    40    1
    44    30    41    1
    45    10    42    1
    46    11    43    1
    47    12    44    1
    48    13    45    1
    49    20    46    1
    50    21    47    1
    51    22    48    1
    52    28    49    1
@<TRIPOS>MOLECULE
mol25_1_25
 49 52 0 0 0
SMALL
USER_CHARGES
****
VDW energy = -44.74
@<TRIPOS>ATOM
   1 O1        8.7381    -1.4068    -2.6744  O.2     1  <O>11      -0.2752
   2 C1        7.6234    -1.0459    -3.0216  C.2     1  <O>11       0.2216
   3 C2        6.7510    -0.2990    -2.0700  C.3     1  <O>11       0.0687
   4 C3        7.4590    -0.1250    -0.7860  C.ar    1  <O>11       0.0780
   5 N1        8.7070    -0.6540    -0.7250  N.ar    1  <O>11      -0.1748
   6 N2        9.3790    -0.6280     0.4480  N.ar    1  <O>11      -0.2425
   7 C4        8.7920    -0.0670     1.5310  C.ar    1  <O>11       0.2725
   8 O2        9.5040    -0.1600     2.7420  O.2     1  <O>11      -0.2658
   9 C5        7.5490     0.5820     1.4980  C.ar    1  <O>11       0.0496
  10 C6        6.9610     1.2200     2.6130  C.ar    1  <O>11      -0.0487
  11 C7        5.7040     1.8190     2.5190  C.ar    1  <O>11      -0.0610
  12 C8        5.0100     1.7870     1.3150  C.ar    1  <O>11      -0.0611
  13 C9        5.5710     1.1540     0.2050  C.ar    1  <O>11      -0.0521
  14 C10       6.8470     0.5490     0.2790  C.ar    1  <O>11       0.0108
  15 N3        7.1750    -1.3270    -4.2840  N.am    1  <O>11      -0.2982
  16 C11       7.9900    -2.0440    -5.2240  C.3     1  <O>11       0.0304
  17 C12       8.1720    -1.1960    -6.5020  C.3     1  <O>11       0.0280
  18 N4        6.8140    -0.7340    -7.0380  N.pl3   1  <O>11      -0.3269
  19 C13       6.4170    -0.9750    -8.4020  C.ar    1  <O>11       0.0303
  20 C14       7.1025    -0.3553    -9.4605  C.ar    1  <O>11      -0.0406
  21 C15       6.7087    -0.5804   -10.7849  C.ar    1  <O>11      -0.0595
  22 C16       5.6344    -1.4280   -11.0635  C.ar    1  <O>11      -0.0500
  23 C17       4.9559    -2.0515   -10.0105  C.ar    1  <O>11       0.0566
  24 C18       3.8214    -2.9457   -10.3112  C.3     1  <O>11       0.4175
  25 F1        3.3050    -3.4474    -9.1325  F       1  <O>11      -0.1659
  26 F2        4.2556    -3.9899   -11.1042  F       1  <O>11      -0.1659
  27 F3        2.8414    -2.2382   -10.9790  F       1  <O>11      -0.1659
  28 C19       5.3425    -1.8336    -8.6861  C.ar    1  <O>11      -0.0290
  29 C20       5.9900    -0.0200    -5.9630  C.3     1  <O>11       0.0280
  30 C21       5.8730    -0.9180    -4.7220  C.3     1  <O>11       0.0304
  31 H1        6.5110     0.6790    -2.4880  H       1  <O>11       0.0423
  32 H2        5.8310    -0.8590    -1.9040  H       1  <O>11       0.0423
  33 H3       10.3060    -1.0240     0.5140  H       1  <O>11       0.1921
  34 H4        8.9650    -2.2450    -4.7790  H       1  <O>11       0.0480
  35 H5        7.5050    -2.9860    -5.4790  H       1  <O>11       0.0480
  36 H6        8.7810    -0.3220    -6.2690  H       1  <O>11       0.0479
  37 H7        8.6720    -1.7960    -7.2620  H       1  <O>11       0.0479
  38 H8        6.4830     0.9140    -5.6900  H       1  <O>11       0.0479
  39 H9        4.9950     0.1940    -6.3510  H       1  <O>11       0.0479
  40 H10       5.3820    -0.3650    -3.9220  H       1  <O>11       0.0480
  41 H11       5.2830    -1.8000    -4.9700  H       1  <O>11       0.0480
  42 H12       7.4690     1.2435     3.5110  H       1  <O>11       0.0625
  43 H13       5.2905     2.2848     3.3418  H       1  <O>11       0.0618
  44 H14       4.0811     2.2308     1.2421  H       1  <O>11       0.0618
  45 H15       5.0466     1.1270    -0.6834  H       1  <O>11       0.0624
  46 H16       7.8998     0.2687    -9.2607  H       1  <O>11       0.0636
  47 H17       7.2137    -0.1188   -11.5575  H       1  <O>11       0.0618
  48 H18       5.3429    -1.5935   -12.0395  H       1  <O>11       0.0623
  49 H19       4.8391    -2.3029    -7.9171  H       1  <O>11       0.0641
@<TRIPOS>BOND
     1     1     2    2
     2     2     3    1
     3     3     4    1
     4     4     5   ar
     5     5     6   ar
     6     6     7   ar
     7     7     8    2
     8     7     9   ar
     9     9    10   ar
    10    10    11   ar
    11    11    12   ar
    12    12    13   ar
    13    13    14   ar
    14     4    14   ar
    15     9    14   ar
    16     2    15   am
    17    15    16    1
    18    16    17    1
    19    17    18    1
    20    18    19    1
    21    19    20   ar
    22    20    21   ar
    23    21    22   ar
    24    22    23   ar
    25    23    24    1
    26    24    25    1
    27    24    26    1
    28    24    27    1
    29    23    28   ar
    30    19    28   ar
    31    18    29    1
    32    29    30    1
    33    15    30    1
    34     3    31    1
    35     3    32    1
    36     6    33    1
    37    16    34    1
    38    16    35    1
    39    17    36    1
    40    17    37    1
    41    29    38    1
    42    29    39    1
    43    30    40    1
    44    30    41    1
    45    10    42    1
    46    11    43    1
    47    12    44    1
    48    13    45    1
    49    20    46    1
    50    21    47    1
    51    22    48    1
    52    28    49    1
@<TRIPOS>MOLECULE
mol25_1_26
 49 52 0 0 0
SMALL
USER_CHARGES
****
VDW energy = -44.62
@<TRIPOS>ATOM
   1 O1        8.7381    -1.4068    -2.6744  O.2     1  <O>11      -0.2752
   2 C1        7.6234    -1.0459    -3.0216  C.2     1  <O>11       0.2216
   3 C2        6.7510    -0.2990    -2.0700  C.3     1  <O>11       0.0687
   4 C3        7.4590    -0.1250    -0.7860  C.ar    1  <O>11       0.0780
   5 N1        8.7070    -0.6540    -0.7250  N.ar    1  <O>11      -0.1748
   6 N2        9.3790    -0.6280     0.4480  N.ar    1  <O>11      -0.2425
   7 C4        8.7920    -0.0670     1.5310  C.ar    1  <O>11       0.2725
   8 O2        9.5040    -0.1600     2.7420  O.2     1  <O>11      -0.2658
   9 C5        7.5490     0.5820     1.4980  C.ar    1  <O>11       0.0496
  10 C6        6.9610     1.2200     2.6130  C.ar    1  <O>11      -0.0487
  11 C7        5.7040     1.8190     2.5190  C.ar    1  <O>11      -0.0610
  12 C8        5.0100     1.7870     1.3150  C.ar    1  <O>11      -0.0611
  13 C9        5.5710     1.1540     0.2050  C.ar    1  <O>11      -0.0521
  14 C10       6.8470     0.5490     0.2790  C.ar    1  <O>11       0.0108
  15 N3        7.1750    -1.3270    -4.2840  N.am    1  <O>11      -0.2982
  16 C11       7.9900    -2.0440    -5.2240  C.3     1  <O>11       0.0304
  17 C12       8.1720    -1.1960    -6.5020  C.3     1  <O>11       0.0280
  18 N4        6.8140    -0.7340    -7.0380  N.pl3   1  <O>11      -0.3269
  19 C13       6.4170    -0.9750    -8.4020  C.ar    1  <O>11       0.0303
  20 C14       6.2077    -2.2873    -8.8587  C.ar    1  <O>11      -0.0406
  21 C15       5.8336    -2.5215   -10.1873  C.ar    1  <O>11      -0.0595
  22 C16       5.6602    -1.4509   -11.0669  C.ar    1  <O>11      -0.0500
  23 C17       5.8611    -0.1433   -10.6111  C.ar    1  <O>11       0.0566
  24 C18       5.6765     0.9837   -11.5454  C.3     1  <O>11       0.4175
  25 F1        4.3790     0.9821   -12.0189  F       1  <O>11      -0.1659
  26 F2        6.5528     0.8519   -12.6049  F       1  <O>11      -0.1659
  27 F3        5.9254     2.1725   -10.8883  F       1  <O>11      -0.1659
  28 C19       6.2333     0.0999    -9.2870  C.ar    1  <O>11      -0.0290
  29 C20       5.9900    -0.0200    -5.9630  C.3     1  <O>11       0.0280
  30 C21       5.8730    -0.9180    -4.7220  C.3     1  <O>11       0.0304
  31 H1        6.5110     0.6790    -2.4880  H       1  <O>11       0.0423
  32 H2        5.8310    -0.8590    -1.9040  H       1  <O>11       0.0423
  33 H3       10.3060    -1.0240     0.5140  H       1  <O>11       0.1921
  34 H4        8.9650    -2.2450    -4.7790  H       1  <O>11       0.0480
  35 H5        7.5050    -2.9860    -5.4790  H       1  <O>11       0.0480
  36 H6        8.7810    -0.3220    -6.2690  H       1  <O>11       0.0479
  37 H7        8.6720    -1.7960    -7.2620  H       1  <O>11       0.0479
  38 H8        6.4830     0.9140    -5.6900  H       1  <O>11       0.0479
  39 H9        4.9950     0.1940    -6.3510  H       1  <O>11       0.0479
  40 H10       5.3820    -0.3650    -3.9220  H       1  <O>11       0.0480
  41 H11       5.2830    -1.8000    -4.9700  H       1  <O>11       0.0480
  42 H12       7.4690     1.2435     3.5110  H       1  <O>11       0.0625
  43 H13       5.2905     2.2848     3.3418  H       1  <O>11       0.0618
  44 H14       4.0811     2.2308     1.2421  H       1  <O>11       0.0618
  45 H15       5.0466     1.1270    -0.6834  H       1  <O>11       0.0624
  46 H16       6.3303    -3.0820    -8.2119  H       1  <O>11       0.0636
  47 H17       5.6857    -3.4879   -10.5175  H       1  <O>11       0.0618
  48 H18       5.3856    -1.6229   -12.0467  H       1  <O>11       0.0623
  49 H19       6.3732     1.0685    -8.9593  H       1  <O>11       0.0641
@<TRIPOS>BOND
     1     1     2    2
     2     2     3    1
     3     3     4    1
     4     4     5   ar
     5     5     6   ar
     6     6     7   ar
     7     7     8    2
     8     7     9   ar
     9     9    10   ar
    10    10    11   ar
    11    11    12   ar
    12    12    13   ar
    13    13    14   ar
    14     4    14   ar
    15     9    14   ar
    16     2    15   am
    17    15    16    1
    18    16    17    1
    19    17    18    1
    20    18    19    1
    21    19    20   ar
    22    20    21   ar
    23    21    22   ar
    24    22    23   ar
    25    23    24    1
    26    24    25    1
    27    24    26    1
    28    24    27    1
    29    23    28   ar
    30    19    28   ar
    31    18    29    1
    32    29    30    1
    33    15    30    1
    34     3    31    1
    35     3    32    1
    36     6    33    1
    37    16    34    1
    38    16    35    1
    39    17    36    1
    40    17    37    1
    41    29    38    1
    42    29    39    1
    43    30    40    1
    44    30    41    1
    45    10    42    1
    46    11    43    1
    47    12    44    1
    48    13    45    1
    49    20    46    1
    50    21    47    1
    51    22    48    1
    52    28    49    1
@<TRIPOS>MOLECULE
mol25_1_27
 49 52 0 0 0
SMALL
USER_CHARGES
****
VDW energy = -44.62
@<TRIPOS>ATOM
   1 O1        8.7381    -1.4068    -2.6744  O.2     1  <O>11      -0.2752
   2 C1        7.6234    -1.0459    -3.0216  C.2     1  <O>11       0.2216
   3 C2        6.7510    -0.2990    -2.0700  C.3     1  <O>11       0.0687
   4 C3        7.4590    -0.1250    -0.7860  C.ar    1  <O>11       0.0780
   5 N1        8.7070    -0.6540    -0.7250  N.ar    1  <O>11      -0.1748
   6 N2        9.3790    -0.6280     0.4480  N.ar    1  <O>11      -0.2425
   7 C4        8.7920    -0.0670     1.5310  C.ar    1  <O>11       0.2725
   8 O2        9.5040    -0.1600     2.7420  O.2     1  <O>11      -0.2658
   9 C5        7.5490     0.5820     1.4980  C.ar    1  <O>11       0.0496
  10 C6        6.9610     1.2200     2.6130  C.ar    1  <O>11      -0.0487
  11 C7        5.7040     1.8190     2.5190  C.ar    1  <O>11      -0.0610
  12 C8        5.0100     1.7870     1.3150  C.ar    1  <O>11      -0.0611
  13 C9        5.5710     1.1540     0.2050  C.ar    1  <O>11      -0.0521
  14 C10       6.8470     0.5490     0.2790  C.ar    1  <O>11       0.0108
  15 N3        7.1750    -1.3270    -4.2840  N.am    1  <O>11      -0.2982
  16 C11       7.9900    -2.0440    -5.2240  C.3     1  <O>11       0.0304
  17 C12       8.1720    -1.1960    -6.5020  C.3     1  <O>11       0.0280
  18 N4        6.8140    -0.7340    -7.0380  N.pl3   1  <O>11      -0.3269
  19 C13       6.4170    -0.9750    -8.4020  C.ar    1  <O>11       0.0303
  20 C14       6.2077    -2.2873    -8.8587  C.ar    1  <O>11      -0.0406
  21 C15       5.8336    -2.5215   -10.1873  C.ar    1  <O>11      -0.0595
  22 C16       5.6602    -1.4509   -11.0669  C.ar    1  <O>11      -0.0500
  23 C17       5.8611    -0.1433   -10.6111  C.ar    1  <O>11       0.0566
  24 C18       5.6765     0.9837   -11.5454  C.3     1  <O>11       0.4175
  25 F1        5.9246     2.1727   -10.8880  F       1  <O>11      -0.1659
  26 F2        4.3789     0.9820   -12.0186  F       1  <O>11      -0.1659
  27 F3        6.5522     0.8520   -12.6050  F       1  <O>11      -0.1659
  28 C19       6.2333     0.0999    -9.2870  C.ar    1  <O>11      -0.0290
  29 C20       5.9900    -0.0200    -5.9630  C.3     1  <O>11       0.0280
  30 C21       5.8730    -0.9180    -4.7220  C.3     1  <O>11       0.0304
  31 H1        6.5110     0.6790    -2.4880  H       1  <O>11       0.0423
  32 H2        5.8310    -0.8590    -1.9040  H       1  <O>11       0.0423
  33 H3       10.3060    -1.0240     0.5140  H       1  <O>11       0.1921
  34 H4        8.9650    -2.2450    -4.7790  H       1  <O>11       0.0480
  35 H5        7.5050    -2.9860    -5.4790  H       1  <O>11       0.0480
  36 H6        8.7810    -0.3220    -6.2690  H       1  <O>11       0.0479
  37 H7        8.6720    -1.7960    -7.2620  H       1  <O>11       0.0479
  38 H8        6.4830     0.9140    -5.6900  H       1  <O>11       0.0479
  39 H9        4.9950     0.1940    -6.3510  H       1  <O>11       0.0479
  40 H10       5.3820    -0.3650    -3.9220  H       1  <O>11       0.0480
  41 H11       5.2830    -1.8000    -4.9700  H       1  <O>11       0.0480
  42 H12       7.4690     1.2435     3.5110  H       1  <O>11       0.0625
  43 H13       5.2905     2.2848     3.3418  H       1  <O>11       0.0618
  44 H14       4.0811     2.2308     1.2421  H       1  <O>11       0.0618
  45 H15       5.0466     1.1270    -0.6834  H       1  <O>11       0.0624
  46 H16       6.3303    -3.0820    -8.2119  H       1  <O>11       0.0636
  47 H17       5.6857    -3.4879   -10.5175  H       1  <O>11       0.0618
  48 H18       5.3856    -1.6229   -12.0467  H       1  <O>11       0.0623
  49 H19       6.3732     1.0685    -8.9593  H       1  <O>11       0.0641
@<TRIPOS>BOND
     1     1     2    2
     2     2     3    1
     3     3     4    1
     4     4     5   ar
     5     5     6   ar
     6     6     7   ar
     7     7     8    2
     8     7     9   ar
     9     9    10   ar
    10    10    11   ar
    11    11    12   ar
    12    12    13   ar
    13    13    14   ar
    14     4    14   ar
    15     9    14   ar
    16     2    15   am
    17    15    16    1
    18    16    17    1
    19    17    18    1
    20    18    19    1
    21    19    20   ar
    22    20    21   ar
    23    21    22   ar
    24    22    23   ar
    25    23    24    1
    26    24    25    1
    27    24    26    1
    28    24    27    1
    29    23    28   ar
    30    19    28   ar
    31    18    29    1
    32    29    30    1
    33    15    30    1
    34     3    31    1
    35     3    32    1
    36     6    33    1
    37    16    34    1
    38    16    35    1
    39    17    36    1
    40    17    37    1
    41    29    38    1
    42    29    39    1
    43    30    40    1
    44    30    41    1
    45    10    42    1
    46    11    43    1
    47    12    44    1
    48    13    45    1
    49    20    46    1
    50    21    47    1
    51    22    48    1
    52    28    49    1
@<TRIPOS>MOLECULE
mol25_1_28
 49 52 0 0 0
SMALL
USER_CHARGES
****
VDW energy = -44.62
@<TRIPOS>ATOM
   1 O1        8.7381    -1.4068    -2.6744  O.2     1  <O>11      -0.2752
   2 C1        7.6234    -1.0459    -3.0216  C.2     1  <O>11       0.2216
   3 C2        6.7510    -0.2990    -2.0700  C.3     1  <O>11       0.0687
   4 C3        7.4590    -0.1250    -0.7860  C.ar    1  <O>11       0.0780
   5 N1        8.7070    -0.6540    -0.7250  N.ar    1  <O>11      -0.1748
   6 N2        9.3790    -0.6280     0.4480  N.ar    1  <O>11      -0.2425
   7 C4        8.7920    -0.0670     1.5310  C.ar    1  <O>11       0.2725
   8 O2        9.5040    -0.1600     2.7420  O.2     1  <O>11      -0.2658
   9 C5        7.5490     0.5820     1.4980  C.ar    1  <O>11       0.0496
  10 C6        6.9610     1.2200     2.6130  C.ar    1  <O>11      -0.0487
  11 C7        5.7040     1.8190     2.5190  C.ar    1  <O>11      -0.0610
  12 C8        5.0100     1.7870     1.3150  C.ar    1  <O>11      -0.0611
  13 C9        5.5710     1.1540     0.2050  C.ar    1  <O>11      -0.0521
  14 C10       6.8470     0.5490     0.2790  C.ar    1  <O>11       0.0108
  15 N3        7.1750    -1.3270    -4.2840  N.am    1  <O>11      -0.2982
  16 C11       5.8705    -0.9168    -4.7222  C.3     1  <O>11       0.0304
  17 C12       5.0694    -2.1528    -5.1869  C.3     1  <O>11       0.0280
  18 N4        5.8742    -2.9616    -6.2082  N.pl3   1  <O>11      -0.3269
  19 C13       5.3295    -3.3110    -7.4955  C.ar    1  <O>11       0.0303
  20 C14       5.0414    -2.3106    -8.4393  C.ar    1  <O>11      -0.0406
  21 C15       4.5010    -2.6497    -9.6854  C.ar    1  <O>11      -0.0595
  22 C16       4.2497    -3.9865   -10.0013  C.ar    1  <O>11      -0.0500
  23 C17       4.5431    -4.9841    -9.0651  C.ar    1  <O>11       0.0566
  24 C18       4.2751    -6.3948    -9.4047  C.3     1  <O>11       0.4175
  25 F1        4.6373    -7.2011    -8.3435  F       1  <O>11      -0.1659
  26 F2        5.0081    -6.7471   -10.5210  F       1  <O>11      -0.1659
  27 F3        2.9294    -6.5576    -9.6683  F       1  <O>11      -0.1659
  28 C19       5.0835    -4.6552    -7.8198  C.ar    1  <O>11      -0.0290
  29 C20       7.2669    -3.3192    -5.6819  C.3     1  <O>11       0.0280
  30 C21       7.9879    -2.0427    -5.2228  C.3     1  <O>11       0.0304
  31 H1        6.5110     0.6790    -2.4880  H       1  <O>11       0.0423
  32 H2        5.8310    -0.8590    -1.9040  H       1  <O>11       0.0423
  33 H3       10.3060    -1.0240     0.5140  H       1  <O>11       0.1921
  34 H4        5.3466    -0.4329    -3.8973  H       1  <O>11       0.0480
  35 H5        5.9707    -0.2161    -5.5508  H       1  <O>11       0.0480
  36 H6        4.8494    -2.7828    -4.3246  H       1  <O>11       0.0479
  37 H7        4.1368    -1.8239    -5.6449  H       1  <O>11       0.0479
  38 H8        7.1703    -4.0047    -4.8389  H       1  <O>11       0.0479
  39 H9        7.8427    -3.7961    -6.4740  H       1  <O>11       0.0479
  40 H10       8.9313    -2.3121    -4.7491  H       1  <O>11       0.0480
  41 H11       8.1829    -1.4084    -6.0872  H       1  <O>11       0.0480
  42 H12       7.4690     1.2435     3.5110  H       1  <O>11       0.0625
  43 H13       5.2905     2.2848     3.3418  H       1  <O>11       0.0618
  44 H14       4.0811     2.2308     1.2421  H       1  <O>11       0.0618
  45 H15       5.0466     1.1270    -0.6834  H       1  <O>11       0.0624
  46 H16       5.2291    -1.3214    -8.2127  H       1  <O>11       0.0636
  47 H17       4.2877    -1.9097   -10.3724  H       1  <O>11       0.0618
  48 H18       3.8502    -4.2370   -10.9192  H       1  <O>11       0.0623
  49 H19       5.3018    -5.3992    -7.1386  H       1  <O>11       0.0641
@<TRIPOS>BOND
     1     1     2    2
     2     2     3    1
     3     3     4    1
     4     4     5   ar
     5     5     6   ar
     6     6     7   ar
     7     7     8    2
     8     7     9   ar
     9     9    10   ar
    10    10    11   ar
    11    11    12   ar
    12    12    13   ar
    13    13    14   ar
    14     4    14   ar
    15     9    14   ar
    16     2    15   am
    17    15    16    1
    18    16    17    1
    19    17    18    1
    20    18    19    1
    21    19    20   ar
    22    20    21   ar
    23    21    22   ar
    24    22    23   ar
    25    23    24    1
    26    24    25    1
    27    24    26    1
    28    24    27    1
    29    23    28   ar
    30    19    28   ar
    31    18    29    1
    32    29    30    1
    33    15    30    1
    34     3    31    1
    35     3    32    1
    36     6    33    1
    37    16    34    1
    38    16    35    1
    39    17    36    1
    40    17    37    1
    41    29    38    1
    42    29    39    1
    43    30    40    1
    44    30    41    1
    45    10    42    1
    46    11    43    1
    47    12    44    1
    48    13    45    1
    49    20    46    1
    50    21    47    1
    51    22    48    1
    52    28    49    1
@<TRIPOS>MOLECULE
mol25_1_29
 49 52 0 0 0
SMALL
USER_CHARGES
****
VDW energy = -34.64
@<TRIPOS>ATOM
   1 O1        8.7381    -1.4068    -2.6744  O.2     1  <O>11      -0.2752
   2 C1        7.6234    -1.0459    -3.0216  C.2     1  <O>11       0.2216
   3 C2        6.7510    -0.2990    -2.0700  C.3     1  <O>11       0.0687
   4 C3        7.4590    -0.1250    -0.7860  C.ar    1  <O>11       0.0780
   5 N1        8.7070    -0.6540    -0.7250  N.ar    1  <O>11      -0.1748
   6 N2        9.3790    -0.6280     0.4480  N.ar    1  <O>11      -0.2425
   7 C4        8.7920    -0.0670     1.5310  C.ar    1  <O>11       0.2725
   8 O2        9.5040    -0.1600     2.7420  O.2     1  <O>11      -0.2658
   9 C5        7.5490     0.5820     1.4980  C.ar    1  <O>11       0.0496
  10 C6        6.9610     1.2200     2.6130  C.ar    1  <O>11      -0.0487
  11 C7        5.7040     1.8190     2.5190  C.ar    1  <O>11      -0.0610
  12 C8        5.0100     1.7870     1.3150  C.ar    1  <O>11      -0.0611
  13 C9        5.5710     1.1540     0.2050  C.ar    1  <O>11      -0.0521
  14 C10       6.8470     0.5490     0.2790  C.ar    1  <O>11       0.0108
  15 N3        7.1750    -1.3270    -4.2840  N.am    1  <O>11      -0.2982
  16 C11       5.8705    -0.9168    -4.7222  C.3     1  <O>11       0.0304
  17 C12       5.0694    -2.1528    -5.1869  C.3     1  <O>11       0.0280
  18 N4        5.8742    -2.9616    -6.2082  N.pl3   1  <O>11      -0.3269
  19 C13       5.3295    -3.3110    -7.4955  C.ar    1  <O>11       0.0303
  20 C14       6.0932    -4.0548    -8.4109  C.ar    1  <O>11      -0.0406
  21 C15       5.5677    -4.3837    -9.6662  C.ar    1  <O>11      -0.0595
  22 C16       4.2775    -3.9792   -10.0151  C.ar    1  <O>11      -0.0500
  23 C17       3.5134    -3.2449    -9.1013  C.ar    1  <O>11       0.0566
  24 C18       2.1509    -2.8202    -9.4759  C.3     1  <O>11       0.4175
  25 F1        1.5850    -2.1144    -8.4323  F       1  <O>11      -0.1659
  26 F2        1.3803    -3.9333    -9.7495  F       1  <O>11      -0.1659
  27 F3        2.2108    -2.0159   -10.5968  F       1  <O>11      -0.1659
  28 C19       4.0290    -2.9132    -7.8463  C.ar    1  <O>11      -0.0290
  29 C20       7.2669    -3.3192    -5.6819  C.3     1  <O>11       0.0280
  30 C21       7.9879    -2.0427    -5.2228  C.3     1  <O>11       0.0304
  31 H1        6.5110     0.6790    -2.4880  H       1  <O>11       0.0423
  32 H2        5.8310    -0.8590    -1.9040  H       1  <O>11       0.0423
  33 H3       10.3060    -1.0240     0.5140  H       1  <O>11       0.1921
  34 H4        5.3466    -0.4329    -3.8973  H       1  <O>11       0.0480
  35 H5        5.9707    -0.2161    -5.5508  H       1  <O>11       0.0480
  36 H6        4.8494    -2.7828    -4.3246  H       1  <O>11       0.0479
  37 H7        4.1368    -1.8239    -5.6449  H       1  <O>11       0.0479
  38 H8        7.1703    -4.0047    -4.8389  H       1  <O>11       0.0479
  39 H9        7.8427    -3.7961    -6.4740  H       1  <O>11       0.0479
  40 H10       8.9313    -2.3121    -4.7491  H       1  <O>11       0.0480
  41 H11       8.1829    -1.4084    -6.0872  H       1  <O>11       0.0480
  42 H12       7.4690     1.2435     3.5110  H       1  <O>11       0.0625
  43 H13       5.2905     2.2848     3.3418  H       1  <O>11       0.0618
  44 H14       4.0811     2.2308     1.2421  H       1  <O>11       0.0618
  45 H15       5.0466     1.1270    -0.6834  H       1  <O>11       0.0624
  46 H16       7.0456    -4.3600    -8.1568  H       1  <O>11       0.0636
  47 H17       6.1355    -4.9265   -10.3355  H       1  <O>11       0.0618
  48 H18       3.8900    -4.2203   -10.9407  H       1  <O>11       0.0623
  49 H19       3.4550    -2.3763    -7.1775  H       1  <O>11       0.0641
@<TRIPOS>BOND
     1     1     2    2
     2     2     3    1
     3     3     4    1
     4     4     5   ar
     5     5     6   ar
     6     6     7   ar
     7     7     8    2
     8     7     9   ar
     9     9    10   ar
    10    10    11   ar
    11    11    12   ar
    12    12    13   ar
    13    13    14   ar
    14     4    14   ar
    15     9    14   ar
    16     2    15   am
    17    15    16    1
    18    16    17    1
    19    17    18    1
    20    18    19    1
    21    19    20   ar
    22    20    21   ar
    23    21    22   ar
    24    22    23   ar
    25    23    24    1
    26    24    25    1
    27    24    26    1
    28    24    27    1
    29    23    28   ar
    30    19    28   ar
    31    18    29    1
    32    29    30    1
    33    15    30    1
    34     3    31    1
    35     3    32    1
    36     6    33    1
    37    16    34    1
    38    16    35    1
    39    17    36    1
    40    17    37    1
    41    29    38    1
    42    29    39    1
    43    30    40    1
    44    30    41    1
    45    10    42    1
    46    11    43    1
    47    12    44    1
    48    13    45    1
    49    20    46    1
    50    21    47    1
    51    22    48    1
    52    28    49    1
@<TRIPOS>MOLECULE
mol25_1_30
 49 52 0 0 0
SMALL
USER_CHARGES
****
VDW energy = -34.53
@<TRIPOS>ATOM
   1 O1        8.7381    -1.4068    -2.6744  O.2     1  <O>11      -0.2752
   2 C1        7.6234    -1.0459    -3.0216  C.2     1  <O>11       0.2216
   3 C2        6.7510    -0.2990    -2.0700  C.3     1  <O>11       0.0687
   4 C3        7.4590    -0.1250    -0.7860  C.ar    1  <O>11       0.0780
   5 N1        8.7070    -0.6540    -0.7250  N.ar    1  <O>11      -0.1748
   6 N2        9.3790    -0.6280     0.4480  N.ar    1  <O>11      -0.2425
   7 C4        8.7920    -0.0670     1.5310  C.ar    1  <O>11       0.2725
   8 O2        9.5040    -0.1600     2.7420  O.2     1  <O>11      -0.2658
   9 C5        7.5490     0.5820     1.4980  C.ar    1  <O>11       0.0496
  10 C6        6.9610     1.2200     2.6130  C.ar    1  <O>11      -0.0487
  11 C7        5.7040     1.8190     2.5190  C.ar    1  <O>11      -0.0610
  12 C8        5.0100     1.7870     1.3150  C.ar    1  <O>11      -0.0611
  13 C9        5.5710     1.1540     0.2050  C.ar    1  <O>11      -0.0521
  14 C10       6.8470     0.5490     0.2790  C.ar    1  <O>11       0.0108
  15 N3        7.1750    -1.3270    -4.2840  N.am    1  <O>11      -0.2982
  16 C11       7.9900    -2.0440    -5.2240  C.3     1  <O>11       0.0304
  17 C12       8.1720    -1.1960    -6.5020  C.3     1  <O>11       0.0280
  18 N4        6.8140    -0.7340    -7.0380  N.pl3   1  <O>11      -0.3269
  19 C13       6.4170    -0.9750    -8.4020  C.ar    1  <O>11       0.0303
  20 C14       5.1640    -0.5380    -8.8640  C.ar    1  <O>11      -0.0406
  21 C15       4.7740    -0.7830   -10.1860  C.ar    1  <O>11      -0.0595
  22 C16       5.6310    -1.4590   -11.0570  C.ar    1  <O>11      -0.0500
  23 C17       6.8820    -1.8880   -10.6000  C.ar    1  <O>11       0.0566
  24 C18       7.7830    -2.6020   -11.5250  C.3     1  <O>11       0.4175
  25 F1        8.9530    -2.9290   -10.8680  F       1  <O>11      -0.1659
  26 F2        8.0730    -1.7900   -12.6040  F       1  <O>11      -0.1659
  27 F3        7.1670    -3.7550   -11.9700  F       1  <O>11      -0.1659
  28 C19       7.2800    -1.6470    -9.2830  C.ar    1  <O>11      -0.0290
  29 C20       5.9900    -0.0200    -5.9630  C.3     1  <O>11       0.0280
  30 C21       5.8730    -0.9180    -4.7220  C.3     1  <O>11       0.0304
  31 H1        6.5110     0.6790    -2.4880  H       1  <O>11       0.0423
  32 H2        5.8310    -0.8590    -1.9040  H       1  <O>11       0.0423
  33 H3       10.3060    -1.0240     0.5140  H       1  <O>11       0.1921
  34 H4        8.9650    -2.2450    -4.7790  H       1  <O>11       0.0480
  35 H5        7.5050    -2.9860    -5.4790  H       1  <O>11       0.0480
  36 H6        8.7810    -0.3220    -6.2690  H       1  <O>11       0.0479
  37 H7        8.6720    -1.7960    -7.2620  H       1  <O>11       0.0479
  38 H8        6.4830     0.9140    -5.6900  H       1  <O>11       0.0479
  39 H9        4.9950     0.1940    -6.3510  H       1  <O>11       0.0479
  40 H10       5.3820    -0.3650    -3.9220  H       1  <O>11       0.0480
  41 H11       5.2830    -1.8000    -4.9700  H       1  <O>11       0.0480
  42 H12       7.4690     1.2435     3.5110  H       1  <O>11       0.0625
  43 H13       5.2905     2.2848     3.3418  H       1  <O>11       0.0618
  44 H14       4.0811     2.2308     1.2421  H       1  <O>11       0.0618
  45 H15       5.0466     1.1270    -0.6834  H       1  <O>11       0.0624
  46 H16       4.5284    -0.0342    -8.2259  H       1  <O>11       0.0636
  47 H17       3.8506    -0.4632   -10.5178  H       1  <O>11       0.0618
  48 H18       5.3436    -1.6410   -12.0313  H       1  <O>11       0.0623
  49 H19       8.2072    -1.9624    -8.9576  H       1  <O>11       0.0641
@<TRIPOS>BOND
     1     1     2    2
     2     2     3    1
     3     3     4    1
     4     4     5   ar
     5     5     6   ar
     6     6     7   ar
     7     7     8    2
     8     7     9   ar
     9     9    10   ar
    10    10    11   ar
    11    11    12   ar
    12    12    13   ar
    13    13    14   ar
    14     4    14   ar
    15     9    14   ar
    16     2    15   am
    17    15    16    1
    18    16    17    1
    19    17    18    1
    20    18    19    1
    21    19    20   ar
    22    20    21   ar
    23    21    22   ar
    24    22    23   ar
    25    23    24    1
    26    24    25    1
    27    24    26    1
    28    24    27    1
    29    23    28   ar
    30    19    28   ar
    31    18    29    1
    32    29    30    1
    33    15    30    1
    34     3    31    1
    35     3    32    1
    36     6    33    1
    37    16    34    1
    38    16    35    1
    39    17    36    1
    40    17    37    1
    41    29    38    1
    42    29    39    1
    43    30    40    1
    44    30    41    1
    45    10    42    1
    46    11    43    1
    47    12    44    1
    48    13    45    1
    49    20    46    1
    50    21    47    1
    51    22    48    1
    52    28    49    1
