@<TRIPOS>MOLECULE
mol20_1_1
 48 50 0 0 0
SMALL
USER_CHARGES
****
VDW energy = 46.65
@<TRIPOS>ATOM
   1 O1        5.5650     3.3479    -5.2117  O.2     1  <O>11      -0.2652
   2 C1        5.4993     2.1453    -5.0051  C.2     1  <O>11       0.2990
   3 N1        4.2920     1.5030    -5.0780  N.am    1  <O>11      -0.3073
   4 C2        3.0840     2.2550    -5.4020  C.3     1  <O>11       0.0157
   5 C3        1.8900     1.3140    -5.4190  C.3     1  <O>11      -0.0161
   6 C4        0.6720     2.0740    -5.7460  C.2     1  <O>11      -0.0720
   7 C5       -0.5059     1.5431    -5.3695  C.2     1  <O>11      -0.0847
   8 C6       -1.8207     2.2119    -5.7119  C.3     1  <O>11      -0.0345
   9 C7       -1.7058     3.3091    -6.7922  C.3     1  <O>11      -0.0493
  10 C8       -0.4913     4.2034    -6.4669  C.3     1  <O>11      -0.0491
  11 C9        0.8047     3.3870    -6.4739  C.3     1  <O>11      -0.0317
  12 C10       6.7320     1.3780    -4.6740  C.2     1  <O>11       0.2993
  13 O2        6.6660     0.1760    -4.4680  O.2     1  <O>11      -0.2652
  14 N2        7.9390     2.0200    -4.6020  N.am    1  <O>11      -0.3019
  15 C11       9.1480     1.2670    -4.2780  C.3     1  <O>11       0.0567
  16 C12      10.3150     2.1880    -4.2640  C.ar    1  <O>11       0.0863
  17 N3       10.1330     3.5490    -4.5390  N.ar    1  <O>11      -0.1737
  18 N4       11.1960     4.3790    -4.6340  N.ar    1  <O>11      -0.2424
  19 C13      12.4410     3.8790    -4.4460  C.ar    1  <O>11       0.2725
  20 O3       13.5080     4.7740    -4.6550  O.2     1  <O>11      -0.2658
  21 C14      12.7010     2.5560    -4.0670  C.ar    1  <O>11       0.0496
  22 C15      13.9950     2.0470    -3.8140  C.ar    1  <O>11      -0.0487
  23 C16      14.1880     0.7080    -3.4710  C.ar    1  <O>11      -0.0610
  24 C17      13.0960    -0.1480    -3.3810  C.ar    1  <O>11      -0.0611
  25 C18      11.8110     0.3350    -3.6330  C.ar    1  <O>11      -0.0520
  26 C19      11.5960     1.6920    -3.9760  C.ar    1  <O>11       0.0118
  27 H1        4.2380     0.4990    -4.9050  H       1  <O>11       0.1492
  28 H2        2.9250     3.0300    -4.6520  H       1  <O>11       0.0465
  29 H3        3.1960     2.7170    -6.3830  H       1  <O>11       0.0465
  30 H4        2.0470     0.5400    -6.1690  H       1  <O>11       0.0325
  31 H5        1.7770     0.8530    -4.4380  H       1  <O>11       0.0325
  32 H6       -0.5184     0.6193    -4.8106  H       1  <O>11       0.0572
  33 H7       -2.5093     1.4468    -6.0712  H       1  <O>11       0.0307
  34 H8       -2.2208     2.6638    -4.8051  H       1  <O>11       0.0307
  35 H9       -1.5712     2.8476    -7.7700  H       1  <O>11       0.0268
  36 H10      -2.6140     3.9133    -6.7975  H       1  <O>11       0.0268
  37 H11      -0.4181     4.9933    -7.2148  H       1  <O>11       0.0268
  38 H12      -0.6284     4.6479    -5.4811  H       1  <O>11       0.0268
  39 H13       1.0837     3.1847    -7.5086  H       1  <O>11       0.0310
  40 H14       1.5890     3.9735    -5.9950  H       1  <O>11       0.0310
  41 H15       7.9940     3.0230    -4.7750  H       1  <O>11       0.1495
  42 H16       9.3060     0.4930    -5.0290  H       1  <O>11       0.0528
  43 H17       9.0370     0.8060    -3.2980  H       1  <O>11       0.0528
  44 H18      11.0630     5.3590    -4.8410  H       1  <O>11       0.1921
  45 H19      14.8104     2.6757    -3.8840  H       1  <O>11       0.0625
  46 H20      15.1393     0.3539    -3.2846  H       1  <O>11       0.0618
  47 H21      13.2354    -1.1388    -3.1283  H       1  <O>11       0.0618
  48 H22      11.0053    -0.3066    -3.5684  H       1  <O>11       0.0624
@<TRIPOS>BOND
     1     1     2    2
     2     2     3   am
     3     3     4    1
     4     4     5    1
     5     5     6    1
     6     6     7    2
     7     7     8    1
     8     8     9    1
     9     9    10    1
    10    10    11    1
    11     6    11    1
    12     2    12    1
    13    12    13    2
    14    12    14   am
    15    14    15    1
    16    15    16    1
    17    16    17   ar
    18    17    18   ar
    19    18    19   ar
    20    19    20    2
    21    19    21   ar
    22    21    22   ar
    23    22    23   ar
    24    23    24   ar
    25    24    25   ar
    26    25    26   ar
    27    16    26   ar
    28    21    26   ar
    29     3    27    1
    30     4    28    1
    31     4    29    1
    32     5    30    1
    33     5    31    1
    34     7    32    1
    35     8    33    1
    36     8    34    1
    37     9    35    1
    38     9    36    1
    39    10    37    1
    40    10    38    1
    41    11    39    1
    42    11    40    1
    43    14    41    1
    44    15    42    1
    45    15    43    1
    46    18    44    1
    47    22    45    1
    48    23    46    1
    49    24    47    1
    50    25    48    1
@<TRIPOS>MOLECULE
mol20_1_2
 48 50 0 0 0
SMALL
USER_CHARGES
****
VDW energy = 47.42
@<TRIPOS>ATOM
   1 O1        5.5650     3.3479    -5.2117  O.2     1  <O>11      -0.2652
   2 C1        5.4993     2.1453    -5.0051  C.2     1  <O>11       0.2990
   3 N1        4.2920     1.5030    -5.0780  N.am    1  <O>11      -0.3073
   4 C2        3.0840     2.2550    -5.4020  C.3     1  <O>11       0.0157
   5 C3        1.8900     1.3140    -5.4190  C.3     1  <O>11      -0.0161
   6 C4        0.6720     2.0740    -5.7460  C.2     1  <O>11      -0.0720
   7 C5       -0.5059     1.5431    -5.3695  C.2     1  <O>11      -0.0847
   8 C6       -1.8207     2.2119    -5.7119  C.3     1  <O>11      -0.0345
   9 C7       -1.7058     3.3091    -6.7922  C.3     1  <O>11      -0.0493
  10 C8       -0.4913     4.2034    -6.4669  C.3     1  <O>11      -0.0491
  11 C9        0.8047     3.3870    -6.4739  C.3     1  <O>11      -0.0317
  12 C10       6.7320     1.3780    -4.6740  C.2     1  <O>11       0.2993
  13 O2        6.6660     0.1760    -4.4680  O.2     1  <O>11      -0.2652
  14 N2        7.9390     2.0200    -4.6020  N.am    1  <O>11      -0.3019
  15 C11       9.1480     1.2670    -4.2780  C.3     1  <O>11       0.0567
  16 C12       9.3620     0.2111    -5.3025  C.ar    1  <O>11       0.0863
  17 N3        8.4585     0.0753    -6.3637  N.ar    1  <O>11      -0.1737
  18 N4        8.5796    -0.9445    -7.2431  N.ar    1  <O>11      -0.2424
  19 C13       9.5962    -1.8271    -7.0923  C.ar    1  <O>11       0.2725
  20 O3        9.6081    -2.9189    -7.9817  O.2     1  <O>11      -0.2658
  21 C14      10.5991    -1.7032    -6.1224  C.ar    1  <O>11       0.0496
  22 C15      11.6925    -2.5903    -5.9996  C.ar    1  <O>11      -0.0487
  23 C16      12.6411    -2.4287    -4.9888  C.ar    1  <O>11      -0.0610
  24 C17      12.5127    -1.3850    -4.0791  C.ar    1  <O>11      -0.0611
  25 C18      11.4363    -0.5023    -4.1808  C.ar    1  <O>11      -0.0520
  26 C19      10.4681    -0.6473    -5.2039  C.ar    1  <O>11       0.0118
  27 H1        4.2380     0.4990    -4.9050  H       1  <O>11       0.1492
  28 H2        2.9250     3.0300    -4.6520  H       1  <O>11       0.0465
  29 H3        3.1960     2.7170    -6.3830  H       1  <O>11       0.0465
  30 H4        2.0470     0.5400    -6.1690  H       1  <O>11       0.0325
  31 H5        1.7770     0.8530    -4.4380  H       1  <O>11       0.0325
  32 H6       -0.5184     0.6193    -4.8106  H       1  <O>11       0.0572
  33 H7       -2.5093     1.4468    -6.0712  H       1  <O>11       0.0307
  34 H8       -2.2208     2.6638    -4.8051  H       1  <O>11       0.0307
  35 H9       -1.5712     2.8476    -7.7700  H       1  <O>11       0.0268
  36 H10      -2.6140     3.9133    -6.7975  H       1  <O>11       0.0268
  37 H11      -0.4181     4.9933    -7.2148  H       1  <O>11       0.0268
  38 H12      -0.6284     4.6479    -5.4811  H       1  <O>11       0.0268
  39 H13       1.0837     3.1847    -7.5086  H       1  <O>11       0.0310
  40 H14       1.5890     3.9735    -5.9950  H       1  <O>11       0.0310
  41 H15       7.9940     3.0230    -4.7750  H       1  <O>11       0.1495
  42 H16       9.0356     0.8037    -3.2978  H       1  <O>11       0.0528
  43 H17      10.0032     1.9407    -4.2662  H       1  <O>11       0.0528
  44 H18       7.9215    -1.0455    -8.0031  H       1  <O>11       0.1921
  45 H19      11.7911    -3.3701    -6.6683  H       1  <O>11       0.0625
  46 H20      13.4363    -3.0826    -4.9165  H       1  <O>11       0.0618
  47 H21      13.2120    -1.2632    -3.3301  H       1  <O>11       0.0618
  48 H22      11.3447     0.2678    -3.5000  H       1  <O>11       0.0624
@<TRIPOS>BOND
     1     1     2    2
     2     2     3   am
     3     3     4    1
     4     4     5    1
     5     5     6    1
     6     6     7    2
     7     7     8    1
     8     8     9    1
     9     9    10    1
    10    10    11    1
    11     6    11    1
    12     2    12    1
    13    12    13    2
    14    12    14   am
    15    14    15    1
    16    15    16    1
    17    16    17   ar
    18    17    18   ar
    19    18    19   ar
    20    19    20    2
    21    19    21   ar
    22    21    22   ar
    23    22    23   ar
    24    23    24   ar
    25    24    25   ar
    26    25    26   ar
    27    16    26   ar
    28    21    26   ar
    29     3    27    1
    30     4    28    1
    31     4    29    1
    32     5    30    1
    33     5    31    1
    34     7    32    1
    35     8    33    1
    36     8    34    1
    37     9    35    1
    38     9    36    1
    39    10    37    1
    40    10    38    1
    41    11    39    1
    42    11    40    1
    43    14    41    1
    44    15    42    1
    45    15    43    1
    46    18    44    1
    47    22    45    1
    48    23    46    1
    49    24    47    1
    50    25    48    1
@<TRIPOS>MOLECULE
mol20_1_3
 48 50 0 0 0
SMALL
USER_CHARGES
****
VDW energy = 52.31
@<TRIPOS>ATOM
   1 O1        5.5650     3.3479    -5.2117  O.2     1  <O>11      -0.2652
   2 C1        5.4993     2.1453    -5.0051  C.2     1  <O>11       0.2990
   3 N1        4.2920     1.5030    -5.0780  N.am    1  <O>11      -0.3073
   4 C2        4.2137     0.0668    -4.8312  C.3     1  <O>11       0.0157
   5 C3        2.7720    -0.3945    -4.9735  C.3     1  <O>11      -0.0161
   6 C4        2.6945    -1.8436    -4.7242  C.2     1  <O>11      -0.0720
   7 C5        1.6379    -2.5016    -5.2356  C.2     1  <O>11      -0.0847
   8 C6        1.4298    -3.9805    -4.9847  C.3     1  <O>11      -0.0345
   9 C7        2.2993    -4.5536    -3.8447  C.3     1  <O>11      -0.0493
  10 C8        3.7427    -4.0340    -4.0093  C.3     1  <O>11      -0.0491
  11 C9        3.7854    -2.5053    -3.9220  C.3     1  <O>11      -0.0317
  12 C10       6.7320     1.3780    -4.6740  C.2     1  <O>11       0.2993
  13 O2        6.6660     0.1760    -4.4680  O.2     1  <O>11      -0.2652
  14 N2        7.9390     2.0200    -4.6020  N.am    1  <O>11      -0.3019
  15 C11       9.1480     1.2670    -4.2780  C.3     1  <O>11       0.0567
  16 C12      10.3150     2.1880    -4.2640  C.ar    1  <O>11       0.0863
  17 N3       11.0685     2.3417    -3.0937  N.ar    1  <O>11      -0.1737
  18 N4       12.0660     3.2522    -3.0332  N.ar    1  <O>11      -0.2424
  19 C13      12.3368     4.0061    -4.1258  C.ar    1  <O>11       0.2725
  20 O3       13.3205     5.0011    -3.9658  O.2     1  <O>11      -0.2658
  21 C14      11.7008     3.8430    -5.3629  C.ar    1  <O>11       0.0496
  22 C15      12.0215     4.5887    -6.5199  C.ar    1  <O>11      -0.0487
  23 C16      11.3258     4.3992    -7.7148  C.ar    1  <O>11      -0.0610
  24 C17      10.2945     3.4686    -7.7754  C.ar    1  <O>11      -0.0611
  25 C18       9.9594     2.7269    -6.6416  C.ar    1  <O>11      -0.0520
  26 C19      10.6587     2.9016    -5.4227  C.ar    1  <O>11       0.0118
  27 H1        3.4481     2.0292    -5.3055  H       1  <O>11       0.1492
  28 H2        4.8369    -0.4615    -5.5529  H       1  <O>11       0.0465
  29 H3        4.5656    -0.1480    -3.8221  H       1  <O>11       0.0465
  30 H4        2.1485     0.1317    -4.2519  H       1  <O>11       0.0325
  31 H5        2.4204    -0.1811    -5.9827  H       1  <O>11       0.0325
  32 H6        0.9196    -1.9669    -5.8390  H       1  <O>11       0.0572
  33 H7        0.3816    -4.1393    -4.7305  H       1  <O>11       0.0307
  34 H8        1.6670    -4.5195    -5.9011  H       1  <O>11       0.0307
  35 H9        1.9003    -4.2323    -2.8830  H       1  <O>11       0.0268
  36 H10       2.2949    -5.6432    -3.8941  H       1  <O>11       0.0268
  37 H11       4.3662    -4.4529    -3.2191  H       1  <O>11       0.0268
  38 H12       4.1269    -4.3473    -4.9801  H       1  <O>11       0.0268
  39 H13       3.6754    -2.2126    -2.8772  H       1  <O>11       0.0310
  40 H14       4.7502    -2.1614    -4.2952  H       1  <O>11       0.0310
  41 H15       7.9940     3.0230    -4.7750  H       1  <O>11       0.1495
  42 H16       9.3060     0.4930    -5.0290  H       1  <O>11       0.0528
  43 H17       9.0370     0.8060    -3.2980  H       1  <O>11       0.0528
  44 H18      12.6028     3.3675    -2.1850  H       1  <O>11       0.1921
  45 H19      12.7825     5.2847    -6.4805  H       1  <O>11       0.0625
  46 H20      11.5763     4.9487    -8.5518  H       1  <O>11       0.0618
  47 H21       9.7776     3.3266    -8.6573  H       1  <O>11       0.0618
  48 H22       9.1902     2.0408    -6.6923  H       1  <O>11       0.0624
@<TRIPOS>BOND
     1     1     2    2
     2     2     3   am
     3     3     4    1
     4     4     5    1
     5     5     6    1
     6     6     7    2
     7     7     8    1
     8     8     9    1
     9     9    10    1
    10    10    11    1
    11     6    11    1
    12     2    12    1
    13    12    13    2
    14    12    14   am
    15    14    15    1
    16    15    16    1
    17    16    17   ar
    18    17    18   ar
    19    18    19   ar
    20    19    20    2
    21    19    21   ar
    22    21    22   ar
    23    22    23   ar
    24    23    24   ar
    25    24    25   ar
    26    25    26   ar
    27    16    26   ar
    28    21    26   ar
    29     3    27    1
    30     4    28    1
    31     4    29    1
    32     5    30    1
    33     5    31    1
    34     7    32    1
    35     8    33    1
    36     8    34    1
    37     9    35    1
    38     9    36    1
    39    10    37    1
    40    10    38    1
    41    11    39    1
    42    11    40    1
    43    14    41    1
    44    15    42    1
    45    15    43    1
    46    18    44    1
    47    22    45    1
    48    23    46    1
    49    24    47    1
    50    25    48    1
@<TRIPOS>MOLECULE
mol20_1_4
 48 50 0 0 0
SMALL
USER_CHARGES
****
VDW energy = 54.23
@<TRIPOS>ATOM
   1 O1        5.5650     3.3479    -5.2117  O.2     1  <O>11      -0.2652
   2 C1        5.4993     2.1453    -5.0051  C.2     1  <O>11       0.2990
   3 N1        4.2920     1.5030    -5.0780  N.am    1  <O>11      -0.3073
   4 C2        3.0840     2.2550    -5.4020  C.3     1  <O>11       0.0157
   5 C3        1.8900     1.3140    -5.4190  C.3     1  <O>11      -0.0161
   6 C4        0.6720     2.0740    -5.7460  C.2     1  <O>11      -0.0720
   7 C5        0.8090     3.3950    -5.9630  C.2     1  <O>11      -0.0847
   8 C6       -0.3880     4.2790    -6.2440  C.3     1  <O>11      -0.0345
   9 C7       -1.7460     3.6230    -5.9130  C.3     1  <O>11      -0.0493
  10 C8       -1.7520     2.1830    -6.4670  C.3     1  <O>11      -0.0491
  11 C9       -0.6450     1.3450    -5.8200  C.3     1  <O>11      -0.0317
  12 C10       6.7320     1.3780    -4.6740  C.2     1  <O>11       0.2993
  13 O2        6.6661     0.1759    -4.4688  O.2     1  <O>11      -0.2652
  14 N2        7.9389     2.0202    -4.6011  N.am    1  <O>11      -0.3019
  15 C11       9.1479     1.2672    -4.2771  C.3     1  <O>11       0.0567
  16 C12      10.3147     2.1883    -4.2621  C.ar    1  <O>11       0.0863
  17 N3       10.6783     2.8344    -3.0741  N.ar    1  <O>11      -0.1737
  18 N4       11.6693     3.7540    -3.0675  N.ar    1  <O>11      -0.2424
  19 C13      12.3166     4.0332    -4.2244  C.ar    1  <O>11       0.2725
  20 O3       13.2696     5.0686    -4.1689  O.2     1  <O>11      -0.2658
  21 C14      12.0844     3.3594    -5.4301  C.ar    1  <O>11       0.0496
  22 C15      12.7983     3.6087    -6.6241  C.ar    1  <O>11      -0.0487
  23 C16      12.4947     2.9236    -7.8014  C.ar    1  <O>11      -0.0610
  24 C17      11.4702     1.9835    -7.8108  C.ar    1  <O>11      -0.0611
  25 C18      10.7501     1.7278    -6.6429  C.ar    1  <O>11      -0.0520
  26 C19      11.0488     2.4090    -5.4379  C.ar    1  <O>11       0.0118
  27 H1        4.2380     0.4990    -4.9050  H       1  <O>11       0.1492
  28 H2        2.9250     3.0300    -4.6520  H       1  <O>11       0.0465
  29 H3        3.1960     2.7170    -6.3830  H       1  <O>11       0.0465
  30 H4        2.0470     0.5400    -6.1690  H       1  <O>11       0.0325
  31 H5        1.7770     0.8530    -4.4380  H       1  <O>11       0.0325
  32 H6        1.7930     3.8390    -5.9370  H       1  <O>11       0.0572
  33 H7       -0.2900     5.1860    -5.6470  H       1  <O>11       0.0307
  34 H8       -0.3810     4.5380    -7.3020  H       1  <O>11       0.0307
  35 H9       -1.8890     3.6020    -4.8330  H       1  <O>11       0.0268
  36 H10      -2.5510     4.1960    -6.3750  H       1  <O>11       0.0268
  37 H11      -2.7170     1.7220    -6.2550  H       1  <O>11       0.0268
  38 H12      -1.5930     2.2140    -7.5450  H       1  <O>11       0.0268
  39 H13      -0.9540     1.0810    -4.8080  H       1  <O>11       0.0310
  40 H14      -0.5080     0.4360    -6.4060  H       1  <O>11       0.0310
  41 H15       7.9938     3.0233    -4.7735  H       1  <O>11       0.1495
  42 H16       9.3063     0.4936    -5.0286  H       1  <O>11       0.0528
  43 H17       9.0366     0.8055    -3.2975  H       1  <O>11       0.0528
  44 H18      11.9243     4.2253    -2.2108  H       1  <O>11       0.1921
  45 H19      13.5566     4.3089    -6.6253  H       1  <O>11       0.0625
  46 H20      13.0294     3.1143    -8.6633  H       1  <O>11       0.0618
  47 H21      11.2427     1.4757    -8.6799  H       1  <O>11       0.0618
  48 H22       9.9883     1.0318    -6.6578  H       1  <O>11       0.0624
@<TRIPOS>BOND
     1     1     2    2
     2     2     3   am
     3     3     4    1
     4     4     5    1
     5     5     6    1
     6     6     7    2
     7     7     8    1
     8     8     9    1
     9     9    10    1
    10    10    11    1
    11     6    11    1
    12     2    12    1
    13    12    13    2
    14    12    14   am
    15    14    15    1
    16    15    16    1
    17    16    17   ar
    18    17    18   ar
    19    18    19   ar
    20    19    20    2
    21    19    21   ar
    22    21    22   ar
    23    22    23   ar
    24    23    24   ar
    25    24    25   ar
    26    25    26   ar
    27    16    26   ar
    28    21    26   ar
    29     3    27    1
    30     4    28    1
    31     4    29    1
    32     5    30    1
    33     5    31    1
    34     7    32    1
    35     8    33    1
    36     8    34    1
    37     9    35    1
    38     9    36    1
    39    10    37    1
    40    10    38    1
    41    11    39    1
    42    11    40    1
    43    14    41    1
    44    15    42    1
    45    15    43    1
    46    18    44    1
    47    22    45    1
    48    23    46    1
    49    24    47    1
    50    25    48    1
@<TRIPOS>MOLECULE
mol20_1_5
 48 50 0 0 0
SMALL
USER_CHARGES
****
VDW energy = 55.52
@<TRIPOS>ATOM
   1 O1        5.5650     3.3479    -5.2117  O.2     1  <O>11      -0.2652
   2 C1        5.4993     2.1453    -5.0051  C.2     1  <O>11       0.2990
   3 N1        4.2920     1.5030    -5.0780  N.am    1  <O>11      -0.3073
   4 C2        3.0840     2.2550    -5.4020  C.3     1  <O>11       0.0157
   5 C3        1.8900     1.3140    -5.4190  C.3     1  <O>11      -0.0161
   6 C4        0.6720     2.0740    -5.7460  C.2     1  <O>11      -0.0720
   7 C5        0.8090     3.3950    -5.9630  C.2     1  <O>11      -0.0847
   8 C6       -0.3880     4.2790    -6.2440  C.3     1  <O>11      -0.0345
   9 C7       -1.7460     3.6230    -5.9130  C.3     1  <O>11      -0.0493
  10 C8       -1.7520     2.1830    -6.4670  C.3     1  <O>11      -0.0491
  11 C9       -0.6450     1.3450    -5.8200  C.3     1  <O>11      -0.0317
  12 C10       6.7320     1.3780    -4.6740  C.2     1  <O>11       0.2993
  13 O2        6.6660     0.1760    -4.4680  O.2     1  <O>11      -0.2652
  14 N2        7.9390     2.0200    -4.6020  N.am    1  <O>11      -0.3019
  15 C11       9.1480     1.2670    -4.2780  C.3     1  <O>11       0.0567
  16 C12      10.3150     2.1880    -4.2640  C.ar    1  <O>11       0.0863
  17 N3       10.1330     3.5490    -4.5390  N.ar    1  <O>11      -0.1737
  18 N4       11.1960     4.3790    -4.6340  N.ar    1  <O>11      -0.2424
  19 C13      12.4410     3.8790    -4.4460  C.ar    1  <O>11       0.2725
  20 O3       13.5080     4.7740    -4.6550  O.2     1  <O>11      -0.2658
  21 C14      12.7010     2.5560    -4.0670  C.ar    1  <O>11       0.0496
  22 C15      13.9950     2.0470    -3.8140  C.ar    1  <O>11      -0.0487
  23 C16      14.1880     0.7080    -3.4710  C.ar    1  <O>11      -0.0610
  24 C17      13.0960    -0.1480    -3.3810  C.ar    1  <O>11      -0.0611
  25 C18      11.8110     0.3350    -3.6330  C.ar    1  <O>11      -0.0520
  26 C19      11.5960     1.6920    -3.9760  C.ar    1  <O>11       0.0118
  27 H1        4.2380     0.4990    -4.9050  H       1  <O>11       0.1492
  28 H2        2.9250     3.0300    -4.6520  H       1  <O>11       0.0465
  29 H3        3.1960     2.7170    -6.3830  H       1  <O>11       0.0465
  30 H4        2.0470     0.5400    -6.1690  H       1  <O>11       0.0325
  31 H5        1.7770     0.8530    -4.4380  H       1  <O>11       0.0325
  32 H6        1.7930     3.8390    -5.9370  H       1  <O>11       0.0572
  33 H7       -0.2900     5.1860    -5.6470  H       1  <O>11       0.0307
  34 H8       -0.3810     4.5380    -7.3020  H       1  <O>11       0.0307
  35 H9       -1.8890     3.6020    -4.8330  H       1  <O>11       0.0268
  36 H10      -2.5510     4.1960    -6.3750  H       1  <O>11       0.0268
  37 H11      -2.7170     1.7220    -6.2550  H       1  <O>11       0.0268
  38 H12      -1.5930     2.2140    -7.5450  H       1  <O>11       0.0268
  39 H13      -0.9540     1.0810    -4.8080  H       1  <O>11       0.0310
  40 H14      -0.5080     0.4360    -6.4060  H       1  <O>11       0.0310
  41 H15       7.9940     3.0230    -4.7750  H       1  <O>11       0.1495
  42 H16       9.3060     0.4930    -5.0290  H       1  <O>11       0.0528
  43 H17       9.0370     0.8060    -3.2980  H       1  <O>11       0.0528
  44 H18      11.0630     5.3590    -4.8410  H       1  <O>11       0.1921
  45 H19      14.8104     2.6757    -3.8840  H       1  <O>11       0.0625
  46 H20      15.1393     0.3539    -3.2846  H       1  <O>11       0.0618
  47 H21      13.2354    -1.1388    -3.1283  H       1  <O>11       0.0618
  48 H22      11.0053    -0.3066    -3.5684  H       1  <O>11       0.0624
@<TRIPOS>BOND
     1     1     2    2
     2     2     3   am
     3     3     4    1
     4     4     5    1
     5     5     6    1
     6     6     7    2
     7     7     8    1
     8     8     9    1
     9     9    10    1
    10    10    11    1
    11     6    11    1
    12     2    12    1
    13    12    13    2
    14    12    14   am
    15    14    15    1
    16    15    16    1
    17    16    17   ar
    18    17    18   ar
    19    18    19   ar
    20    19    20    2
    21    19    21   ar
    22    21    22   ar
    23    22    23   ar
    24    23    24   ar
    25    24    25   ar
    26    25    26   ar
    27    16    26   ar
    28    21    26   ar
    29     3    27    1
    30     4    28    1
    31     4    29    1
    32     5    30    1
    33     5    31    1
    34     7    32    1
    35     8    33    1
    36     8    34    1
    37     9    35    1
    38     9    36    1
    39    10    37    1
    40    10    38    1
    41    11    39    1
    42    11    40    1
    43    14    41    1
    44    15    42    1
    45    15    43    1
    46    18    44    1
    47    22    45    1
    48    23    46    1
    49    24    47    1
    50    25    48    1
@<TRIPOS>MOLECULE
mol20_1_6
 48 50 0 0 0
SMALL
USER_CHARGES
****
VDW energy = 55.83
@<TRIPOS>ATOM
   1 O1        5.5650     3.3479    -5.2117  O.2     1  <O>11      -0.2652
   2 C1        5.4993     2.1453    -5.0051  C.2     1  <O>11       0.2990
   3 N1        4.2920     1.5030    -5.0780  N.am    1  <O>11      -0.3073
   4 C2        3.0840     2.2550    -5.4020  C.3     1  <O>11       0.0157
   5 C3        1.8900     1.3140    -5.4191  C.3     1  <O>11      -0.0161
   6 C4        0.6720     2.0740    -5.7461  C.2     1  <O>11      -0.0720
   7 C5        0.8090     3.3950    -5.9630  C.2     1  <O>11      -0.0847
   8 C6       -0.3880     4.2790    -6.2440  C.3     1  <O>11      -0.0345
   9 C7       -1.7460     3.6230    -5.9130  C.3     1  <O>11      -0.0493
  10 C8       -1.7520     2.1830    -6.4671  C.3     1  <O>11      -0.0491
  11 C9       -0.6450     1.3450    -5.8201  C.3     1  <O>11      -0.0317
  12 C10       6.7320     1.3780    -4.6740  C.2     1  <O>11       0.2993
  13 O2        6.6660     0.1760    -4.4680  O.2     1  <O>11      -0.2652
  14 N2        7.9390     2.0200    -4.6020  N.am    1  <O>11      -0.3019
  15 C11       9.1480     1.2670    -4.2780  C.3     1  <O>11       0.0567
  16 C12       8.9944     0.6373    -2.9400  C.ar    1  <O>11       0.0863
  17 N3        7.8125     0.8243    -2.2125  N.ar    1  <O>11      -0.1737
  18 N4        7.6984     0.3473    -0.9526  N.ar    1  <O>11      -0.2424
  19 C13       8.7390    -0.3269    -0.4067  C.ar    1  <O>11       0.2725
  20 O3        8.5923    -0.7110     0.9402  O.2     1  <O>11      -0.2658
  21 C14       9.9126    -0.6450    -1.1016  C.ar    1  <O>11       0.0496
  22 C15      10.9755    -1.3980    -0.5530  C.ar    1  <O>11      -0.0487
  23 C16      12.1332    -1.6525    -1.2896  C.ar    1  <O>11      -0.0610
  24 C17      12.2546    -1.1554    -2.5825  C.ar    1  <O>11      -0.0611
  25 C18      11.2179    -0.4048    -3.1392  C.ar    1  <O>11      -0.0520
  26 C19      10.0336    -0.1422    -2.4087  C.ar    1  <O>11       0.0118
  27 H1        4.2380     0.4990    -4.9050  H       1  <O>11       0.1492
  28 H2        2.9250     3.0300    -4.6520  H       1  <O>11       0.0465
  29 H3        3.1960     2.7170    -6.3830  H       1  <O>11       0.0465
  30 H4        2.0470     0.5400    -6.1691  H       1  <O>11       0.0325
  31 H5        1.7770     0.8530    -4.4381  H       1  <O>11       0.0325
  32 H6        1.7930     3.8390    -5.9370  H       1  <O>11       0.0572
  33 H7       -0.2900     5.1860    -5.6470  H       1  <O>11       0.0307
  34 H8       -0.3810     4.5380    -7.3020  H       1  <O>11       0.0307
  35 H9       -1.8890     3.6019    -4.8331  H       1  <O>11       0.0268
  36 H10      -2.5510     4.1960    -6.3750  H       1  <O>11       0.0268
  37 H11      -2.7170     1.7220    -6.2551  H       1  <O>11       0.0268
  38 H12      -1.5930     2.2140    -7.5451  H       1  <O>11       0.0268
  39 H13      -0.9540     1.0809    -4.8081  H       1  <O>11       0.0310
  40 H14      -0.5080     0.4360    -6.4061  H       1  <O>11       0.0310
  41 H15       7.9940     3.0230    -4.7750  H       1  <O>11       0.1495
  42 H16      10.0037     1.9420    -4.2649  H       1  <O>11       0.0528
  43 H17       9.3060     0.4936    -5.0277  H       1  <O>11       0.0528
  44 H18       6.8479     0.4908    -0.4263  H       1  <O>11       0.1921
  45 H19      10.8941    -1.7656     0.4078  H       1  <O>11       0.0625
  46 H20      12.8978    -2.2084    -0.8756  H       1  <O>11       0.0618
  47 H21      13.1096    -1.3413    -3.1296  H       1  <O>11       0.0618
  48 H22      11.3161    -0.0354    -4.0978  H       1  <O>11       0.0624
@<TRIPOS>BOND
     1     1     2    2
     2     2     3   am
     3     3     4    1
     4     4     5    1
     5     5     6    1
     6     6     7    2
     7     7     8    1
     8     8     9    1
     9     9    10    1
    10    10    11    1
    11     6    11    1
    12     2    12    1
    13    12    13    2
    14    12    14   am
    15    14    15    1
    16    15    16    1
    17    16    17   ar
    18    17    18   ar
    19    18    19   ar
    20    19    20    2
    21    19    21   ar
    22    21    22   ar
    23    22    23   ar
    24    23    24   ar
    25    24    25   ar
    26    25    26   ar
    27    16    26   ar
    28    21    26   ar
    29     3    27    1
    30     4    28    1
    31     4    29    1
    32     5    30    1
    33     5    31    1
    34     7    32    1
    35     8    33    1
    36     8    34    1
    37     9    35    1
    38     9    36    1
    39    10    37    1
    40    10    38    1
    41    11    39    1
    42    11    40    1
    43    14    41    1
    44    15    42    1
    45    15    43    1
    46    18    44    1
    47    22    45    1
    48    23    46    1
    49    24    47    1
    50    25    48    1
@<TRIPOS>MOLECULE
mol20_1_7
 48 50 0 0 0
SMALL
USER_CHARGES
****
VDW energy = 56.24
@<TRIPOS>ATOM
   1 O1        5.5650     3.3479    -5.2117  O.2     1  <O>11      -0.2652
   2 C1        5.4993     2.1453    -5.0051  C.2     1  <O>11       0.2990
   3 N1        4.2920     1.5030    -5.0780  N.am    1  <O>11      -0.3073
   4 C2        3.0840     2.2550    -5.4020  C.3     1  <O>11       0.0157
   5 C3        1.8900     1.3140    -5.4190  C.3     1  <O>11      -0.0161
   6 C4        0.6720     2.0740    -5.7460  C.2     1  <O>11      -0.0720
   7 C5        0.8090     3.3950    -5.9630  C.2     1  <O>11      -0.0847
   8 C6       -0.3880     4.2790    -6.2440  C.3     1  <O>11      -0.0345
   9 C7       -1.7460     3.6230    -5.9130  C.3     1  <O>11      -0.0493
  10 C8       -1.7520     2.1830    -6.4670  C.3     1  <O>11      -0.0491
  11 C9       -0.6450     1.3450    -5.8200  C.3     1  <O>11      -0.0317
  12 C10       6.7320     1.3780    -4.6740  C.2     1  <O>11       0.2993
  13 O2        6.6660     0.1760    -4.4680  O.2     1  <O>11      -0.2652
  14 N2        7.9390     2.0200    -4.6020  N.am    1  <O>11      -0.3019
  15 C11       9.1480     1.2670    -4.2780  C.3     1  <O>11       0.0567
  16 C12      10.3150     2.1880    -4.2640  C.ar    1  <O>11       0.0863
  17 N3       11.3863     1.9700    -5.1391  N.ar    1  <O>11      -0.1737
  18 N4       12.4994     2.7341    -5.0665  N.ar    1  <O>11      -0.2424
  19 C13      12.5597     3.7240    -4.1435  C.ar    1  <O>11       0.2725
  20 O3       13.7822     4.4174    -4.0553  O.2     1  <O>11      -0.2658
  21 C14      11.4948     4.0727    -3.3032  C.ar    1  <O>11       0.0496
  22 C15      11.5352     5.1420    -2.3800  C.ar    1  <O>11      -0.0487
  23 C16      10.4490     5.4164    -1.5476  C.ar    1  <O>11      -0.0610
  24 C17       9.3072     4.6260    -1.6162  C.ar    1  <O>11      -0.0611
  25 C18       9.2509     3.5619    -2.5176  C.ar    1  <O>11      -0.0520
  26 C19      10.3410     3.2730    -3.3741  C.ar    1  <O>11       0.0118
  27 H1        4.2380     0.4990    -4.9050  H       1  <O>11       0.1492
  28 H2        2.9250     3.0300    -4.6520  H       1  <O>11       0.0465
  29 H3        3.1960     2.7170    -6.3830  H       1  <O>11       0.0465
  30 H4        2.0470     0.5400    -6.1690  H       1  <O>11       0.0325
  31 H5        1.7770     0.8530    -4.4380  H       1  <O>11       0.0325
  32 H6        1.7930     3.8390    -5.9370  H       1  <O>11       0.0572
  33 H7       -0.2900     5.1860    -5.6470  H       1  <O>11       0.0307
  34 H8       -0.3810     4.5380    -7.3020  H       1  <O>11       0.0307
  35 H9       -1.8890     3.6020    -4.8330  H       1  <O>11       0.0268
  36 H10      -2.5510     4.1960    -6.3750  H       1  <O>11       0.0268
  37 H11      -2.7170     1.7220    -6.2550  H       1  <O>11       0.0268
  38 H12      -1.5930     2.2140    -7.5450  H       1  <O>11       0.0268
  39 H13      -0.9540     1.0810    -4.8080  H       1  <O>11       0.0310
  40 H14      -0.5080     0.4360    -6.4060  H       1  <O>11       0.0310
  41 H15       7.9940     3.0230    -4.7750  H       1  <O>11       0.1495
  42 H16       9.3060     0.4930    -5.0290  H       1  <O>11       0.0528
  43 H17       9.0370     0.8060    -3.2980  H       1  <O>11       0.0528
  44 H18      13.2747     2.5695    -5.6931  H       1  <O>11       0.1921
  45 H19      12.3816     5.7295    -2.3203  H       1  <O>11       0.0625
  46 H20      10.4933     6.2043    -0.8825  H       1  <O>11       0.0618
  47 H21       8.5026     4.8258    -1.0016  H       1  <O>11       0.0618
  48 H22       8.4020     2.9767    -2.5606  H       1  <O>11       0.0624
@<TRIPOS>BOND
     1     1     2    2
     2     2     3   am
     3     3     4    1
     4     4     5    1
     5     5     6    1
     6     6     7    2
     7     7     8    1
     8     8     9    1
     9     9    10    1
    10    10    11    1
    11     6    11    1
    12     2    12    1
    13    12    13    2
    14    12    14   am
    15    14    15    1
    16    15    16    1
    17    16    17   ar
    18    17    18   ar
    19    18    19   ar
    20    19    20    2
    21    19    21   ar
    22    21    22   ar
    23    22    23   ar
    24    23    24   ar
    25    24    25   ar
    26    25    26   ar
    27    16    26   ar
    28    21    26   ar
    29     3    27    1
    30     4    28    1
    31     4    29    1
    32     5    30    1
    33     5    31    1
    34     7    32    1
    35     8    33    1
    36     8    34    1
    37     9    35    1
    38     9    36    1
    39    10    37    1
    40    10    38    1
    41    11    39    1
    42    11    40    1
    43    14    41    1
    44    15    42    1
    45    15    43    1
    46    18    44    1
    47    22    45    1
    48    23    46    1
    49    24    47    1
    50    25    48    1
@<TRIPOS>MOLECULE
mol20_1_8
 48 50 0 0 0
SMALL
USER_CHARGES
****
VDW energy = 59.68
@<TRIPOS>ATOM
   1 O1        5.5650     3.3479    -5.2117  O.2     1  <O>11      -0.2652
   2 C1        5.4993     2.1453    -5.0051  C.2     1  <O>11       0.2990
   3 N1        4.2920     1.5030    -5.0780  N.am    1  <O>11      -0.3073
   4 C2        4.2137     0.0668    -4.8312  C.3     1  <O>11       0.0157
   5 C3        2.7720    -0.3945    -4.9735  C.3     1  <O>11      -0.0161
   6 C4        2.6945    -1.8436    -4.7242  C.2     1  <O>11      -0.0720
   7 C5        3.8424    -2.4809    -4.4292  C.2     1  <O>11      -0.0847
   8 C6        3.8834    -3.9798    -4.2175  C.3     1  <O>11      -0.0345
   9 C7        2.6192    -4.7190    -4.7069  C.3     1  <O>11      -0.0493
  10 C8        1.3730    -3.9450    -4.2289  C.3     1  <O>11      -0.0491
  11 C9        1.3546    -2.5281    -4.8107  C.3     1  <O>11      -0.0317
  12 C10       6.7320     1.3780    -4.6740  C.2     1  <O>11       0.2993
  13 O2        6.6660     0.1760    -4.4680  O.2     1  <O>11      -0.2652
  14 N2        7.9390     2.0200    -4.6020  N.am    1  <O>11      -0.3019
  15 C11       9.1480     1.2670    -4.2780  C.3     1  <O>11       0.0567
  16 C12      10.3150     2.1880    -4.2640  C.ar    1  <O>11       0.0863
  17 N3       11.0461     2.4056    -5.4384  N.ar    1  <O>11      -0.1737
  18 N4       12.1707     3.1559    -5.4186  N.ar    1  <O>11      -0.2424
  19 C13      12.5745     3.7068    -4.2487  C.ar    1  <O>11       0.2725
  20 O3       13.8035     4.3938    -4.2770  O.2     1  <O>11      -0.2658
  21 C14      11.8466     3.6232    -3.0550  C.ar    1  <O>11       0.0496
  22 C15      12.2364     4.2454    -1.8474  C.ar    1  <O>11      -0.0487
  23 C16      11.4813     4.0952    -0.6833  C.ar    1  <O>11      -0.0610
  24 C17      10.3291     3.3172    -0.7010  C.ar    1  <O>11      -0.0611
  25 C18       9.9314     2.6901    -1.8827  C.ar    1  <O>11      -0.0520
  26 C19      10.6818     2.8367    -3.0746  C.ar    1  <O>11       0.0118
  27 H1        3.4481     2.0292    -5.3055  H       1  <O>11       0.1492
  28 H2        4.8369    -0.4615    -5.5529  H       1  <O>11       0.0465
  29 H3        4.5656    -0.1480    -3.8221  H       1  <O>11       0.0465
  30 H4        2.1485     0.1317    -4.2519  H       1  <O>11       0.0325
  31 H5        2.4204    -0.1811    -5.9827  H       1  <O>11       0.0325
  32 H6        4.7575    -1.9145    -4.3406  H       1  <O>11       0.0572
  33 H7        4.7439    -4.3771    -4.7564  H       1  <O>11       0.0307
  34 H8        4.0020    -4.1715    -3.1519  H       1  <O>11       0.0307
  35 H9        2.6241    -4.7719    -5.7952  H       1  <O>11       0.0268
  36 H10       2.6033    -5.7285    -4.2941  H       1  <O>11       0.0268
  37 H11       0.4768    -4.4743    -4.5533  H       1  <O>11       0.0268
  38 H12       1.3854    -3.8843    -3.1406  H       1  <O>11       0.0268
  39 H13       1.0601    -2.5856    -5.8591  H       1  <O>11       0.0310
  40 H14       0.6238    -1.9348    -4.2608  H       1  <O>11       0.0310
  41 H15       7.9940     3.0230    -4.7750  H       1  <O>11       0.1495
  42 H16       9.3060     0.4930    -5.0290  H       1  <O>11       0.0528
  43 H17       9.0370     0.8060    -3.2980  H       1  <O>11       0.0528
  44 H18      12.7014     3.3046    -6.2655  H       1  <O>11       0.1921
  45 H19      13.0933     4.8202    -1.8260  H       1  <O>11       0.0625
  46 H20      11.7776     4.5607     0.1889  H       1  <O>11       0.0618
  47 H21       9.7690     3.2036     0.1583  H       1  <O>11       0.0618
  48 H22       9.0773     2.1108    -1.8879  H       1  <O>11       0.0624
@<TRIPOS>BOND
     1     1     2    2
     2     2     3   am
     3     3     4    1
     4     4     5    1
     5     5     6    1
     6     6     7    2
     7     7     8    1
     8     8     9    1
     9     9    10    1
    10    10    11    1
    11     6    11    1
    12     2    12    1
    13    12    13    2
    14    12    14   am
    15    14    15    1
    16    15    16    1
    17    16    17   ar
    18    17    18   ar
    19    18    19   ar
    20    19    20    2
    21    19    21   ar
    22    21    22   ar
    23    22    23   ar
    24    23    24   ar
    25    24    25   ar
    26    25    26   ar
    27    16    26   ar
    28    21    26   ar
    29     3    27    1
    30     4    28    1
    31     4    29    1
    32     5    30    1
    33     5    31    1
    34     7    32    1
    35     8    33    1
    36     8    34    1
    37     9    35    1
    38     9    36    1
    39    10    37    1
    40    10    38    1
    41    11    39    1
    42    11    40    1
    43    14    41    1
    44    15    42    1
    45    15    43    1
    46    18    44    1
    47    22    45    1
    48    23    46    1
    49    24    47    1
    50    25    48    1
@<TRIPOS>MOLECULE
mol20_1_9
 48 50 0 0 0
SMALL
USER_CHARGES
****
VDW energy = 61.06
@<TRIPOS>ATOM
   1 O1        5.5650     3.3479    -5.2117  O.2     1  <O>11      -0.2652
   2 C1        5.4993     2.1453    -5.0051  C.2     1  <O>11       0.2990
   3 N1        4.2920     1.5030    -5.0780  N.am    1  <O>11      -0.3073
   4 C2        4.2137     0.0668    -4.8312  C.3     1  <O>11       0.0157
   5 C3        2.7720    -0.3945    -4.9735  C.3     1  <O>11      -0.0161
   6 C4        2.6945    -1.8436    -4.7242  C.2     1  <O>11      -0.0720
   7 C5        3.8424    -2.4809    -4.4292  C.2     1  <O>11      -0.0847
   8 C6        3.8834    -3.9798    -4.2175  C.3     1  <O>11      -0.0345
   9 C7        2.6192    -4.7190    -4.7069  C.3     1  <O>11      -0.0493
  10 C8        1.3730    -3.9450    -4.2289  C.3     1  <O>11      -0.0491
  11 C9        1.3546    -2.5281    -4.8107  C.3     1  <O>11      -0.0317
  12 C10       6.7320     1.3780    -4.6740  C.2     1  <O>11       0.2993
  13 O2        6.6660     0.1760    -4.4680  O.2     1  <O>11      -0.2652
  14 N2        7.9390     2.0200    -4.6020  N.am    1  <O>11      -0.3019
  15 C11       9.1480     1.2670    -4.2780  C.3     1  <O>11       0.0567
  16 C12      10.3150     2.1880    -4.2640  C.ar    1  <O>11       0.0863
  17 N3       11.0685     2.3417    -3.0937  N.ar    1  <O>11      -0.1737
  18 N4       12.0660     3.2522    -3.0332  N.ar    1  <O>11      -0.2424
  19 C13      12.3368     4.0061    -4.1258  C.ar    1  <O>11       0.2725
  20 O3       13.3205     5.0011    -3.9658  O.2     1  <O>11      -0.2658
  21 C14      11.7008     3.8430    -5.3629  C.ar    1  <O>11       0.0496
  22 C15      12.0215     4.5887    -6.5199  C.ar    1  <O>11      -0.0487
  23 C16      11.3258     4.3992    -7.7148  C.ar    1  <O>11      -0.0610
  24 C17      10.2945     3.4686    -7.7754  C.ar    1  <O>11      -0.0611
  25 C18       9.9594     2.7269    -6.6416  C.ar    1  <O>11      -0.0520
  26 C19      10.6587     2.9016    -5.4227  C.ar    1  <O>11       0.0118
  27 H1        3.4481     2.0292    -5.3055  H       1  <O>11       0.1492
  28 H2        4.8369    -0.4615    -5.5529  H       1  <O>11       0.0465
  29 H3        4.5656    -0.1480    -3.8221  H       1  <O>11       0.0465
  30 H4        2.1485     0.1317    -4.2519  H       1  <O>11       0.0325
  31 H5        2.4204    -0.1811    -5.9827  H       1  <O>11       0.0325
  32 H6        4.7575    -1.9145    -4.3406  H       1  <O>11       0.0572
  33 H7        4.7439    -4.3771    -4.7564  H       1  <O>11       0.0307
  34 H8        4.0020    -4.1715    -3.1519  H       1  <O>11       0.0307
  35 H9        2.6241    -4.7719    -5.7952  H       1  <O>11       0.0268
  36 H10       2.6033    -5.7285    -4.2941  H       1  <O>11       0.0268
  37 H11       0.4768    -4.4743    -4.5533  H       1  <O>11       0.0268
  38 H12       1.3854    -3.8843    -3.1406  H       1  <O>11       0.0268
  39 H13       1.0601    -2.5856    -5.8591  H       1  <O>11       0.0310
  40 H14       0.6238    -1.9348    -4.2608  H       1  <O>11       0.0310
  41 H15       7.9940     3.0230    -4.7750  H       1  <O>11       0.1495
  42 H16       9.3060     0.4930    -5.0290  H       1  <O>11       0.0528
  43 H17       9.0370     0.8060    -3.2980  H       1  <O>11       0.0528
  44 H18      12.6028     3.3675    -2.1850  H       1  <O>11       0.1921
  45 H19      12.7825     5.2847    -6.4805  H       1  <O>11       0.0625
  46 H20      11.5763     4.9487    -8.5518  H       1  <O>11       0.0618
  47 H21       9.7776     3.3266    -8.6573  H       1  <O>11       0.0618
  48 H22       9.1902     2.0408    -6.6923  H       1  <O>11       0.0624
@<TRIPOS>BOND
     1     1     2    2
     2     2     3   am
     3     3     4    1
     4     4     5    1
     5     5     6    1
     6     6     7    2
     7     7     8    1
     8     8     9    1
     9     9    10    1
    10    10    11    1
    11     6    11    1
    12     2    12    1
    13    12    13    2
    14    12    14   am
    15    14    15    1
    16    15    16    1
    17    16    17   ar
    18    17    18   ar
    19    18    19   ar
    20    19    20    2
    21    19    21   ar
    22    21    22   ar
    23    22    23   ar
    24    23    24   ar
    25    24    25   ar
    26    25    26   ar
    27    16    26   ar
    28    21    26   ar
    29     3    27    1
    30     4    28    1
    31     4    29    1
    32     5    30    1
    33     5    31    1
    34     7    32    1
    35     8    33    1
    36     8    34    1
    37     9    35    1
    38     9    36    1
    39    10    37    1
    40    10    38    1
    41    11    39    1
    42    11    40    1
    43    14    41    1
    44    15    42    1
    45    15    43    1
    46    18    44    1
    47    22    45    1
    48    23    46    1
    49    24    47    1
    50    25    48    1
@<TRIPOS>MOLECULE
mol20_1_10
 48 50 0 0 0
SMALL
USER_CHARGES
****
VDW energy = 61.73
@<TRIPOS>ATOM
   1 O1        5.5650     3.3479    -5.2117  O.2     1  <O>11      -0.2652
   2 C1        5.4993     2.1453    -5.0051  C.2     1  <O>11       0.2990
   3 N1        4.2920     1.5030    -5.0780  N.am    1  <O>11      -0.3073
   4 C2        4.2137     0.0668    -4.8312  C.3     1  <O>11       0.0157
   5 C3        2.7720    -0.3945    -4.9735  C.3     1  <O>11      -0.0161
   6 C4        2.6945    -1.8436    -4.7242  C.2     1  <O>11      -0.0720
   7 C5        3.8424    -2.4809    -4.4292  C.2     1  <O>11      -0.0847
   8 C6        3.8834    -3.9798    -4.2175  C.3     1  <O>11      -0.0345
   9 C7        2.6192    -4.7190    -4.7069  C.3     1  <O>11      -0.0493
  10 C8        1.3730    -3.9450    -4.2289  C.3     1  <O>11      -0.0491
  11 C9        1.3546    -2.5281    -4.8107  C.3     1  <O>11      -0.0317
  12 C10       6.7320     1.3780    -4.6740  C.2     1  <O>11       0.2993
  13 O2        6.6660     0.1760    -4.4680  O.2     1  <O>11      -0.2652
  14 N2        7.9390     2.0200    -4.6020  N.am    1  <O>11      -0.3019
  15 C11       9.1480     1.2670    -4.2780  C.3     1  <O>11       0.0567
  16 C12      10.3150     2.1880    -4.2640  C.ar    1  <O>11       0.0863
  17 N3       10.1330     3.5490    -4.5390  N.ar    1  <O>11      -0.1737
  18 N4       11.1960     4.3790    -4.6340  N.ar    1  <O>11      -0.2424
  19 C13      12.4410     3.8790    -4.4460  C.ar    1  <O>11       0.2725
  20 O3       13.5080     4.7740    -4.6550  O.2     1  <O>11      -0.2658
  21 C14      12.7010     2.5560    -4.0670  C.ar    1  <O>11       0.0496
  22 C15      13.9950     2.0470    -3.8140  C.ar    1  <O>11      -0.0487
  23 C16      14.1880     0.7080    -3.4710  C.ar    1  <O>11      -0.0610
  24 C17      13.0960    -0.1480    -3.3810  C.ar    1  <O>11      -0.0611
  25 C18      11.8110     0.3350    -3.6330  C.ar    1  <O>11      -0.0520
  26 C19      11.5960     1.6920    -3.9760  C.ar    1  <O>11       0.0118
  27 H1        3.4481     2.0292    -5.3055  H       1  <O>11       0.1492
  28 H2        4.8369    -0.4615    -5.5529  H       1  <O>11       0.0465
  29 H3        4.5656    -0.1480    -3.8221  H       1  <O>11       0.0465
  30 H4        2.1485     0.1317    -4.2519  H       1  <O>11       0.0325
  31 H5        2.4204    -0.1811    -5.9827  H       1  <O>11       0.0325
  32 H6        4.7575    -1.9145    -4.3406  H       1  <O>11       0.0572
  33 H7        4.7439    -4.3771    -4.7564  H       1  <O>11       0.0307
  34 H8        4.0020    -4.1715    -3.1519  H       1  <O>11       0.0307
  35 H9        2.6241    -4.7719    -5.7952  H       1  <O>11       0.0268
  36 H10       2.6033    -5.7285    -4.2941  H       1  <O>11       0.0268
  37 H11       0.4768    -4.4743    -4.5533  H       1  <O>11       0.0268
  38 H12       1.3854    -3.8843    -3.1406  H       1  <O>11       0.0268
  39 H13       1.0601    -2.5856    -5.8591  H       1  <O>11       0.0310
  40 H14       0.6238    -1.9348    -4.2608  H       1  <O>11       0.0310
  41 H15       7.9940     3.0230    -4.7750  H       1  <O>11       0.1495
  42 H16       9.3060     0.4930    -5.0290  H       1  <O>11       0.0528
  43 H17       9.0370     0.8060    -3.2980  H       1  <O>11       0.0528
  44 H18      11.0630     5.3590    -4.8410  H       1  <O>11       0.1921
  45 H19      14.8104     2.6757    -3.8840  H       1  <O>11       0.0625
  46 H20      15.1393     0.3539    -3.2846  H       1  <O>11       0.0618
  47 H21      13.2354    -1.1388    -3.1283  H       1  <O>11       0.0618
  48 H22      11.0053    -0.3066    -3.5684  H       1  <O>11       0.0624
@<TRIPOS>BOND
     1     1     2    2
     2     2     3   am
     3     3     4    1
     4     4     5    1
     5     5     6    1
     6     6     7    2
     7     7     8    1
     8     8     9    1
     9     9    10    1
    10    10    11    1
    11     6    11    1
    12     2    12    1
    13    12    13    2
    14    12    14   am
    15    14    15    1
    16    15    16    1
    17    16    17   ar
    18    17    18   ar
    19    18    19   ar
    20    19    20    2
    21    19    21   ar
    22    21    22   ar
    23    22    23   ar
    24    23    24   ar
    25    24    25   ar
    26    25    26   ar
    27    16    26   ar
    28    21    26   ar
    29     3    27    1
    30     4    28    1
    31     4    29    1
    32     5    30    1
    33     5    31    1
    34     7    32    1
    35     8    33    1
    36     8    34    1
    37     9    35    1
    38     9    36    1
    39    10    37    1
    40    10    38    1
    41    11    39    1
    42    11    40    1
    43    14    41    1
    44    15    42    1
    45    15    43    1
    46    18    44    1
    47    22    45    1
    48    23    46    1
    49    24    47    1
    50    25    48    1
@<TRIPOS>MOLECULE
mol20_1_11
 48 50 0 0 0
SMALL
USER_CHARGES
****
VDW energy = 61.80
@<TRIPOS>ATOM
   1 O1        5.5650     3.3479    -5.2117  O.2     1  <O>11      -0.2652
   2 C1        5.4993     2.1453    -5.0051  C.2     1  <O>11       0.2990
   3 N1        4.2920     1.5030    -5.0780  N.am    1  <O>11      -0.3073
   4 C2        3.0840     2.2550    -5.4020  C.3     1  <O>11       0.0157
   5 C3        1.8900     1.3140    -5.4190  C.3     1  <O>11      -0.0161
   6 C4        0.6720     2.0740    -5.7460  C.2     1  <O>11      -0.0720
   7 C5       -0.5059     1.5431    -5.3695  C.2     1  <O>11      -0.0847
   8 C6       -1.8207     2.2119    -5.7119  C.3     1  <O>11      -0.0345
   9 C7       -1.7058     3.3091    -6.7922  C.3     1  <O>11      -0.0493
  10 C8       -0.4913     4.2034    -6.4669  C.3     1  <O>11      -0.0491
  11 C9        0.8047     3.3870    -6.4739  C.3     1  <O>11      -0.0317
  12 C10       6.7320     1.3780    -4.6740  C.2     1  <O>11       0.2993
  13 O2        7.8085     1.9511    -4.6078  O.2     1  <O>11      -0.2652
  14 N2        6.6579     0.0307    -4.4426  N.am    1  <O>11      -0.3019
  15 C11       7.8671    -0.7214    -4.1171  C.3     1  <O>11       0.0567
  16 C12       7.5189    -2.1522    -3.9122  C.ar    1  <O>11       0.0863
  17 N3        6.1896    -2.5726    -4.0439  N.ar    1  <O>11      -0.1737
  18 N4        5.8404    -3.8471    -3.7582  N.ar    1  <O>11      -0.2424
  19 C13       6.7970    -4.7175    -3.3550  C.ar    1  <O>11       0.2725
  20 O3        6.3518    -5.9999    -2.9799  O.2     1  <O>11      -0.2658
  21 C14       8.1611    -4.4053    -3.2970  C.ar    1  <O>11       0.0496
  22 C15       9.1674    -5.3282    -2.9323  C.ar    1  <O>11      -0.0487
  23 C16      10.5071    -4.9431    -2.8629  C.ar    1  <O>11      -0.0610
  24 C17      10.8659    -3.6306    -3.1489  C.ar    1  <O>11      -0.0611
  25 C18       9.8854    -2.7034    -3.5052  C.ar    1  <O>11      -0.0520
  26 C19       8.5223    -3.0782    -3.5868  C.ar    1  <O>11       0.0118
  27 H1        4.2380     0.4990    -4.9050  H       1  <O>11       0.1492
  28 H2        2.9250     3.0300    -4.6520  H       1  <O>11       0.0465
  29 H3        3.1960     2.7170    -6.3830  H       1  <O>11       0.0465
  30 H4        2.0470     0.5400    -6.1690  H       1  <O>11       0.0325
  31 H5        1.7770     0.8530    -4.4380  H       1  <O>11       0.0325
  32 H6       -0.5184     0.6193    -4.8106  H       1  <O>11       0.0572
  33 H7       -2.5093     1.4468    -6.0712  H       1  <O>11       0.0307
  34 H8       -2.2208     2.6638    -4.8051  H       1  <O>11       0.0307
  35 H9       -1.5712     2.8476    -7.7700  H       1  <O>11       0.0268
  36 H10      -2.6140     3.9133    -6.7975  H       1  <O>11       0.0268
  37 H11      -0.4181     4.9933    -7.2148  H       1  <O>11       0.0268
  38 H12      -0.6284     4.6479    -5.4811  H       1  <O>11       0.0268
  39 H13       1.0837     3.1847    -7.5086  H       1  <O>11       0.0310
  40 H14       1.5890     3.9735    -5.9950  H       1  <O>11       0.0310
  41 H15       5.7593    -0.4472    -4.4969  H       1  <O>11       0.1495
  42 H16       8.3089    -0.3216    -3.2044  H       1  <O>11       0.0528
  43 H17       8.5801    -0.6344    -4.9351  H       1  <O>11       0.0528
  44 H18       4.8792    -4.1460    -3.8456  H       1  <O>11       0.1921
  45 H19       8.9074    -6.3028    -2.7139  H       1  <O>11       0.0625
  46 H20      11.2299    -5.6311    -2.5998  H       1  <O>11       0.0618
  47 H21      11.8555    -3.3424    -3.0977  H       1  <O>11       0.0618
  48 H22      10.1580    -1.7298    -3.7122  H       1  <O>11       0.0624
@<TRIPOS>BOND
     1     1     2    2
     2     2     3   am
     3     3     4    1
     4     4     5    1
     5     5     6    1
     6     6     7    2
     7     7     8    1
     8     8     9    1
     9     9    10    1
    10    10    11    1
    11     6    11    1
    12     2    12    1
    13    12    13    2
    14    12    14   am
    15    14    15    1
    16    15    16    1
    17    16    17   ar
    18    17    18   ar
    19    18    19   ar
    20    19    20    2
    21    19    21   ar
    22    21    22   ar
    23    22    23   ar
    24    23    24   ar
    25    24    25   ar
    26    25    26   ar
    27    16    26   ar
    28    21    26   ar
    29     3    27    1
    30     4    28    1
    31     4    29    1
    32     5    30    1
    33     5    31    1
    34     7    32    1
    35     8    33    1
    36     8    34    1
    37     9    35    1
    38     9    36    1
    39    10    37    1
    40    10    38    1
    41    11    39    1
    42    11    40    1
    43    14    41    1
    44    15    42    1
    45    15    43    1
    46    18    44    1
    47    22    45    1
    48    23    46    1
    49    24    47    1
    50    25    48    1
@<TRIPOS>MOLECULE
mol20_1_12
 48 50 0 0 0
SMALL
USER_CHARGES
****
VDW energy = 62.46
@<TRIPOS>ATOM
   1 O1        5.5650     3.3479    -5.2117  O.2     1  <O>11      -0.2652
   2 C1        5.4993     2.1453    -5.0051  C.2     1  <O>11       0.2990
   3 N1        4.2920     1.5030    -5.0780  N.am    1  <O>11      -0.3073
   4 C2        4.2137     0.0668    -4.8312  C.3     1  <O>11       0.0157
   5 C3        2.7720    -0.3945    -4.9735  C.3     1  <O>11      -0.0161
   6 C4        2.6945    -1.8436    -4.7242  C.2     1  <O>11      -0.0720
   7 C5        3.8424    -2.4809    -4.4292  C.2     1  <O>11      -0.0847
   8 C6        3.8834    -3.9798    -4.2175  C.3     1  <O>11      -0.0345
   9 C7        2.6192    -4.7190    -4.7069  C.3     1  <O>11      -0.0493
  10 C8        1.3730    -3.9450    -4.2289  C.3     1  <O>11      -0.0491
  11 C9        1.3546    -2.5281    -4.8107  C.3     1  <O>11      -0.0317
  12 C10       6.7320     1.3780    -4.6740  C.2     1  <O>11       0.2993
  13 O2        6.6660     0.1760    -4.4680  O.2     1  <O>11      -0.2652
  14 N2        7.9390     2.0200    -4.6020  N.am    1  <O>11      -0.3019
  15 C11       9.1480     1.2670    -4.2780  C.3     1  <O>11       0.0567
  16 C12      10.3150     2.1880    -4.2640  C.ar    1  <O>11       0.0863
  17 N3       11.3863     1.9700    -5.1391  N.ar    1  <O>11      -0.1737
  18 N4       12.4994     2.7341    -5.0665  N.ar    1  <O>11      -0.2424
  19 C13      12.5597     3.7240    -4.1435  C.ar    1  <O>11       0.2725
  20 O3       13.7822     4.4174    -4.0553  O.2     1  <O>11      -0.2658
  21 C14      11.4948     4.0727    -3.3032  C.ar    1  <O>11       0.0496
  22 C15      11.5352     5.1420    -2.3800  C.ar    1  <O>11      -0.0487
  23 C16      10.4490     5.4164    -1.5476  C.ar    1  <O>11      -0.0610
  24 C17       9.3072     4.6260    -1.6162  C.ar    1  <O>11      -0.0611
  25 C18       9.2509     3.5619    -2.5176  C.ar    1  <O>11      -0.0520
  26 C19      10.3410     3.2730    -3.3741  C.ar    1  <O>11       0.0118
  27 H1        3.4481     2.0292    -5.3055  H       1  <O>11       0.1492
  28 H2        4.8369    -0.4615    -5.5529  H       1  <O>11       0.0465
  29 H3        4.5656    -0.1480    -3.8221  H       1  <O>11       0.0465
  30 H4        2.1485     0.1317    -4.2519  H       1  <O>11       0.0325
  31 H5        2.4204    -0.1811    -5.9827  H       1  <O>11       0.0325
  32 H6        4.7575    -1.9145    -4.3406  H       1  <O>11       0.0572
  33 H7        4.7439    -4.3771    -4.7564  H       1  <O>11       0.0307
  34 H8        4.0020    -4.1715    -3.1519  H       1  <O>11       0.0307
  35 H9        2.6241    -4.7719    -5.7952  H       1  <O>11       0.0268
  36 H10       2.6033    -5.7285    -4.2941  H       1  <O>11       0.0268
  37 H11       0.4768    -4.4743    -4.5533  H       1  <O>11       0.0268
  38 H12       1.3854    -3.8843    -3.1406  H       1  <O>11       0.0268
  39 H13       1.0601    -2.5856    -5.8591  H       1  <O>11       0.0310
  40 H14       0.6238    -1.9348    -4.2608  H       1  <O>11       0.0310
  41 H15       7.9940     3.0230    -4.7750  H       1  <O>11       0.1495
  42 H16       9.3060     0.4930    -5.0290  H       1  <O>11       0.0528
  43 H17       9.0370     0.8060    -3.2980  H       1  <O>11       0.0528
  44 H18      13.2747     2.5695    -5.6931  H       1  <O>11       0.1921
  45 H19      12.3816     5.7295    -2.3203  H       1  <O>11       0.0625
  46 H20      10.4933     6.2043    -0.8825  H       1  <O>11       0.0618
  47 H21       8.5026     4.8258    -1.0016  H       1  <O>11       0.0618
  48 H22       8.4020     2.9767    -2.5606  H       1  <O>11       0.0624
@<TRIPOS>BOND
     1     1     2    2
     2     2     3   am
     3     3     4    1
     4     4     5    1
     5     5     6    1
     6     6     7    2
     7     7     8    1
     8     8     9    1
     9     9    10    1
    10    10    11    1
    11     6    11    1
    12     2    12    1
    13    12    13    2
    14    12    14   am
    15    14    15    1
    16    15    16    1
    17    16    17   ar
    18    17    18   ar
    19    18    19   ar
    20    19    20    2
    21    19    21   ar
    22    21    22   ar
    23    22    23   ar
    24    23    24   ar
    25    24    25   ar
    26    25    26   ar
    27    16    26   ar
    28    21    26   ar
    29     3    27    1
    30     4    28    1
    31     4    29    1
    32     5    30    1
    33     5    31    1
    34     7    32    1
    35     8    33    1
    36     8    34    1
    37     9    35    1
    38     9    36    1
    39    10    37    1
    40    10    38    1
    41    11    39    1
    42    11    40    1
    43    14    41    1
    44    15    42    1
    45    15    43    1
    46    18    44    1
    47    22    45    1
    48    23    46    1
    49    24    47    1
    50    25    48    1
@<TRIPOS>MOLECULE
mol20_1_13
 48 50 0 0 0
SMALL
USER_CHARGES
****
VDW energy = 66.37
@<TRIPOS>ATOM
   1 O1        5.5650     3.3479    -5.2117  O.2     1  <O>11      -0.2652
   2 C1        5.4993     2.1453    -5.0051  C.2     1  <O>11       0.2990
   3 N1        4.2920     1.5030    -5.0780  N.am    1  <O>11      -0.3073
   4 C2        3.0840     2.2550    -5.4020  C.3     1  <O>11       0.0157
   5 C3        1.8900     1.3140    -5.4190  C.3     1  <O>11      -0.0161
   6 C4        2.1046     0.2686    -6.4335  C.2     1  <O>11      -0.0720
   7 C5        1.0148    -0.3585    -6.9130  C.2     1  <O>11      -0.0847
   8 C6        1.1288    -1.4909    -7.9119  C.3     1  <O>11      -0.0345
   9 C7        2.5531    -2.0723    -8.0437  C.3     1  <O>11      -0.0493
  10 C8        3.5602    -0.9072    -8.1382  C.3     1  <O>11      -0.0491
  11 C9        3.5117    -0.0405    -6.8762  C.3     1  <O>11      -0.0317
  12 C10       6.7320     1.3780    -4.6740  C.2     1  <O>11       0.2993
  13 O2        6.6660     0.1760    -4.4680  O.2     1  <O>11      -0.2652
  14 N2        7.9390     2.0200    -4.6020  N.am    1  <O>11      -0.3019
  15 C11       9.1480     1.2670    -4.2780  C.3     1  <O>11       0.0567
  16 C12       9.3620     0.2111    -5.3025  C.ar    1  <O>11       0.0863
  17 N3        8.4585     0.0753    -6.3637  N.ar    1  <O>11      -0.1737
  18 N4        8.5796    -0.9445    -7.2431  N.ar    1  <O>11      -0.2424
  19 C13       9.5962    -1.8271    -7.0923  C.ar    1  <O>11       0.2725
  20 O3        9.6081    -2.9189    -7.9817  O.2     1  <O>11      -0.2658
  21 C14      10.5991    -1.7032    -6.1224  C.ar    1  <O>11       0.0496
  22 C15      11.6925    -2.5903    -5.9996  C.ar    1  <O>11      -0.0487
  23 C16      12.6411    -2.4287    -4.9888  C.ar    1  <O>11      -0.0610
  24 C17      12.5127    -1.3850    -4.0791  C.ar    1  <O>11      -0.0611
  25 C18      11.4363    -0.5023    -4.1808  C.ar    1  <O>11      -0.0520
  26 C19      10.4681    -0.6473    -5.2039  C.ar    1  <O>11       0.0118
  27 H1        4.2380     0.4990    -4.9050  H       1  <O>11       0.1492
  28 H2        2.9250     3.0300    -4.6520  H       1  <O>11       0.0465
  29 H3        3.1960     2.7170    -6.3830  H       1  <O>11       0.0465
  30 H4        1.7770     0.8513    -4.4395  H       1  <O>11       0.0325
  31 H5        0.9884     1.8757    -5.6626  H       1  <O>11       0.0325
  32 H6        0.0346    -0.0505    -6.5805  H       1  <O>11       0.0572
  33 H7        0.4586    -2.2915    -7.5980  H       1  <O>11       0.0307
  34 H8        0.8185    -1.1189    -8.8875  H       1  <O>11       0.0307
  35 H9        2.7807    -2.6851    -7.1720  H       1  <O>11       0.0268
  36 H10       2.6162    -2.6843    -8.9445  H       1  <O>11       0.0268
  37 H11       4.5660    -1.3120    -8.2533  H       1  <O>11       0.0268
  38 H12       3.3148    -0.2919    -9.0040  H       1  <O>11       0.0268
  39 H13       4.0218    -0.5694    -6.0703  H       1  <O>11       0.0310
  40 H14       4.0281     0.8982    -7.0776  H       1  <O>11       0.0310
  41 H15       7.9940     3.0230    -4.7750  H       1  <O>11       0.1495
  42 H16       9.0356     0.8037    -3.2978  H       1  <O>11       0.0528
  43 H17      10.0032     1.9407    -4.2662  H       1  <O>11       0.0528
  44 H18       7.9215    -1.0455    -8.0031  H       1  <O>11       0.1921
  45 H19      11.7911    -3.3701    -6.6683  H       1  <O>11       0.0625
  46 H20      13.4363    -3.0826    -4.9165  H       1  <O>11       0.0618
  47 H21      13.2120    -1.2632    -3.3301  H       1  <O>11       0.0618
  48 H22      11.3447     0.2678    -3.5000  H       1  <O>11       0.0624
@<TRIPOS>BOND
     1     1     2    2
     2     2     3   am
     3     3     4    1
     4     4     5    1
     5     5     6    1
     6     6     7    2
     7     7     8    1
     8     8     9    1
     9     9    10    1
    10    10    11    1
    11     6    11    1
    12     2    12    1
    13    12    13    2
    14    12    14   am
    15    14    15    1
    16    15    16    1
    17    16    17   ar
    18    17    18   ar
    19    18    19   ar
    20    19    20    2
    21    19    21   ar
    22    21    22   ar
    23    22    23   ar
    24    23    24   ar
    25    24    25   ar
    26    25    26   ar
    27    16    26   ar
    28    21    26   ar
    29     3    27    1
    30     4    28    1
    31     4    29    1
    32     5    30    1
    33     5    31    1
    34     7    32    1
    35     8    33    1
    36     8    34    1
    37     9    35    1
    38     9    36    1
    39    10    37    1
    40    10    38    1
    41    11    39    1
    42    11    40    1
    43    14    41    1
    44    15    42    1
    45    15    43    1
    46    18    44    1
    47    22    45    1
    48    23    46    1
    49    24    47    1
    50    25    48    1
@<TRIPOS>MOLECULE
mol20_1_14
 48 50 0 0 0
SMALL
USER_CHARGES
****
VDW energy = 67.09
@<TRIPOS>ATOM
   1 O1        5.5650     3.3479    -5.2117  O.2     1  <O>11      -0.2652
   2 C1        5.4993     2.1453    -5.0051  C.2     1  <O>11       0.2990
   3 N1        4.2920     1.5030    -5.0780  N.am    1  <O>11      -0.3073
   4 C2        3.0840     2.2550    -5.4020  C.3     1  <O>11       0.0157
   5 C3        3.0686     3.5545    -4.6130  C.3     1  <O>11      -0.0161
   6 C4        1.8493     4.3121    -4.9409  C.2     1  <O>11      -0.0720
   7 C5        1.0019     3.7622    -5.8299  C.2     1  <O>11      -0.0847
   8 C6       -0.2484     4.4862    -6.2836  C.3     1  <O>11      -0.0345
   9 C7       -0.2693     5.9887    -5.9282  C.3     1  <O>11      -0.0493
  10 C8        0.1872     6.1609    -4.4645  C.3     1  <O>11      -0.0491
  11 C9        1.6164     5.6436    -4.2743  C.3     1  <O>11      -0.0317
  12 C10       6.7320     1.3780    -4.6740  C.2     1  <O>11       0.2993
  13 O2        6.6660     0.1760    -4.4680  O.2     1  <O>11      -0.2652
  14 N2        7.9390     2.0200    -4.6020  N.am    1  <O>11      -0.3019
  15 C11       9.1480     1.2670    -4.2780  C.3     1  <O>11       0.0567
  16 C12       8.9944     0.6373    -2.9400  C.ar    1  <O>11       0.0863
  17 N3        9.0641    -0.7555    -2.8122  N.ar    1  <O>11      -0.1737
  18 N4        8.8219    -1.3493    -1.6220  N.ar    1  <O>11      -0.2424
  19 C13       8.5236    -0.5775    -0.5494  C.ar    1  <O>11       0.2725
  20 O3        8.1868    -1.2621     0.6343  O.2     1  <O>11      -0.2658
  21 C14       8.5351     0.8229    -0.5690  C.ar    1  <O>11       0.0496
  22 C15       8.2809     1.6304     0.5628  C.ar    1  <O>11      -0.0487
  23 C16       8.2757     3.0228     0.4677  C.ar    1  <O>11      -0.0610
  24 C17       8.5168     3.6340    -0.7577  C.ar    1  <O>11      -0.0611
  25 C18       8.7640     2.8531    -1.8878  C.ar    1  <O>11      -0.0520
  26 C19       8.7794     1.4393    -1.8084  C.ar    1  <O>11       0.0118
  27 H1        4.2380     0.4990    -4.9050  H       1  <O>11       0.1492
  28 H2        3.0686     2.4778    -6.4690  H       1  <O>11       0.0465
  29 H3        2.2067     1.6623    -5.1424  H       1  <O>11       0.0465
  30 H4        3.0825     3.3332    -3.5467  H       1  <O>11       0.0325
  31 H5        3.9448     4.1478    -4.8734  H       1  <O>11       0.0325
  32 H6        1.2144     2.7827    -6.2316  H       1  <O>11       0.0572
  33 H7       -0.3253     4.3883    -7.3667  H       1  <O>11       0.0307
  34 H8       -1.1084     4.0107    -5.8139  H       1  <O>11       0.0307
  35 H9        0.4055     6.5309    -6.5899  H       1  <O>11       0.0268
  36 H10      -1.2818     6.3776    -6.0438  H       1  <O>11       0.0268
  37 H11       0.1537     7.2183    -4.2012  H       1  <O>11       0.0268
  38 H12      -0.4847     5.6025    -3.8124  H       1  <O>11       0.0268
  39 H13       2.3096     6.3710    -4.6981  H       1  <O>11       0.0310
  40 H14       1.8098     5.5377    -3.2067  H       1  <O>11       0.0310
  41 H15       7.9940     3.0230    -4.7750  H       1  <O>11       0.1495
  42 H16      10.0037     1.9420    -4.2649  H       1  <O>11       0.0528
  43 H17       9.3060     0.4936    -5.0277  H       1  <O>11       0.0528
  44 H18       8.8643    -2.3550    -1.5340  H       1  <O>11       0.1921
  45 H19       8.0962     1.1832     1.4743  H       1  <O>11       0.0625
  46 H20       8.0932     3.5976     1.3052  H       1  <O>11       0.0618
  47 H21       8.5129     4.6633    -0.8315  H       1  <O>11       0.0618
  48 H22       8.9382     3.3130    -2.7951  H       1  <O>11       0.0624
@<TRIPOS>BOND
     1     1     2    2
     2     2     3   am
     3     3     4    1
     4     4     5    1
     5     5     6    1
     6     6     7    2
     7     7     8    1
     8     8     9    1
     9     9    10    1
    10    10    11    1
    11     6    11    1
    12     2    12    1
    13    12    13    2
    14    12    14   am
    15    14    15    1
    16    15    16    1
    17    16    17   ar
    18    17    18   ar
    19    18    19   ar
    20    19    20    2
    21    19    21   ar
    22    21    22   ar
    23    22    23   ar
    24    23    24   ar
    25    24    25   ar
    26    25    26   ar
    27    16    26   ar
    28    21    26   ar
    29     3    27    1
    30     4    28    1
    31     4    29    1
    32     5    30    1
    33     5    31    1
    34     7    32    1
    35     8    33    1
    36     8    34    1
    37     9    35    1
    38     9    36    1
    39    10    37    1
    40    10    38    1
    41    11    39    1
    42    11    40    1
    43    14    41    1
    44    15    42    1
    45    15    43    1
    46    18    44    1
    47    22    45    1
    48    23    46    1
    49    24    47    1
    50    25    48    1
@<TRIPOS>MOLECULE
mol20_1_15
 48 50 0 0 0
SMALL
USER_CHARGES
****
VDW energy = 68.12
@<TRIPOS>ATOM
   1 O1        5.5650     3.3479    -5.2117  O.2     1  <O>11      -0.2652
   2 C1        5.4993     2.1453    -5.0051  C.2     1  <O>11       0.2990
   3 N1        4.2920     1.5030    -5.0780  N.am    1  <O>11      -0.3073
   4 C2        3.0840     2.2550    -5.4020  C.3     1  <O>11       0.0157
   5 C3        1.8900     1.3140    -5.4190  C.3     1  <O>11      -0.0161
   6 C4        0.6720     2.0740    -5.7460  C.2     1  <O>11      -0.0720
   7 C5        0.8090     3.3950    -5.9630  C.2     1  <O>11      -0.0847
   8 C6       -0.3880     4.2790    -6.2440  C.3     1  <O>11      -0.0345
   9 C7       -1.7460     3.6230    -5.9130  C.3     1  <O>11      -0.0493
  10 C8       -1.7520     2.1830    -6.4670  C.3     1  <O>11      -0.0491
  11 C9       -0.6450     1.3450    -5.8200  C.3     1  <O>11      -0.0317
  12 C10       6.7320     1.3780    -4.6740  C.2     1  <O>11       0.2993
  13 O2        7.8085     1.9511    -4.6078  O.2     1  <O>11      -0.2652
  14 N2        6.6579     0.0307    -4.4426  N.am    1  <O>11      -0.3019
  15 C11       7.8671    -0.7214    -4.1171  C.3     1  <O>11       0.0567
  16 C12       7.5189    -2.1522    -3.9122  C.ar    1  <O>11       0.0863
  17 N3        7.5397    -3.0376    -4.9970  N.ar    1  <O>11      -0.1737
  18 N4        7.1247    -4.3157    -4.8489  N.ar    1  <O>11      -0.2424
  19 C13       6.7004    -4.7337    -3.6320  C.ar    1  <O>11       0.2725
  20 O3        6.1907    -6.0449    -3.5685  O.2     1  <O>11      -0.2658
  21 C14       6.7455    -3.9434    -2.4767  C.ar    1  <O>11       0.0496
  22 C15       6.3577    -4.3958    -1.1951  C.ar    1  <O>11      -0.0487
  23 C16       6.3963    -3.5456    -0.0889  C.ar    1  <O>11      -0.0610
  24 C17       6.8154    -2.2287    -0.2421  C.ar    1  <O>11      -0.0611
  25 C18       7.1967    -1.7621    -1.5010  C.ar    1  <O>11      -0.0520
  26 C19       7.1698    -2.6125    -2.6331  C.ar    1  <O>11       0.0118
  27 H1        4.2380     0.4990    -4.9050  H       1  <O>11       0.1492
  28 H2        2.9250     3.0300    -4.6520  H       1  <O>11       0.0465
  29 H3        3.1960     2.7170    -6.3830  H       1  <O>11       0.0465
  30 H4        2.0470     0.5400    -6.1690  H       1  <O>11       0.0325
  31 H5        1.7770     0.8530    -4.4380  H       1  <O>11       0.0325
  32 H6        1.7930     3.8390    -5.9370  H       1  <O>11       0.0572
  33 H7       -0.2900     5.1860    -5.6470  H       1  <O>11       0.0307
  34 H8       -0.3810     4.5380    -7.3020  H       1  <O>11       0.0307
  35 H9       -1.8890     3.6020    -4.8330  H       1  <O>11       0.0268
  36 H10      -2.5510     4.1960    -6.3750  H       1  <O>11       0.0268
  37 H11      -2.7170     1.7220    -6.2550  H       1  <O>11       0.0268
  38 H12      -1.5930     2.2140    -7.5450  H       1  <O>11       0.0268
  39 H13      -0.9540     1.0810    -4.8080  H       1  <O>11       0.0310
  40 H14      -0.5080     0.4360    -6.4060  H       1  <O>11       0.0310
  41 H15       5.7593    -0.4472    -4.4969  H       1  <O>11       0.1495
  42 H16       8.3089    -0.3216    -3.2044  H       1  <O>11       0.0528
  43 H17       8.5801    -0.6344    -4.9351  H       1  <O>11       0.0528
  44 H18       7.1324    -4.9505    -5.6350  H       1  <O>11       0.1921
  45 H19       6.0408    -5.3706    -1.0753  H       1  <O>11       0.0625
  46 H20       6.1144    -3.8937     0.8409  H       1  <O>11       0.0618
  47 H21       6.8444    -1.5974     0.5737  H       1  <O>11       0.0618
  48 H22       7.5028    -0.7825    -1.6085  H       1  <O>11       0.0624
@<TRIPOS>BOND
     1     1     2    2
     2     2     3   am
     3     3     4    1
     4     4     5    1
     5     5     6    1
     6     6     7    2
     7     7     8    1
     8     8     9    1
     9     9    10    1
    10    10    11    1
    11     6    11    1
    12     2    12    1
    13    12    13    2
    14    12    14   am
    15    14    15    1
    16    15    16    1
    17    16    17   ar
    18    17    18   ar
    19    18    19   ar
    20    19    20    2
    21    19    21   ar
    22    21    22   ar
    23    22    23   ar
    24    23    24   ar
    25    24    25   ar
    26    25    26   ar
    27    16    26   ar
    28    21    26   ar
    29     3    27    1
    30     4    28    1
    31     4    29    1
    32     5    30    1
    33     5    31    1
    34     7    32    1
    35     8    33    1
    36     8    34    1
    37     9    35    1
    38     9    36    1
    39    10    37    1
    40    10    38    1
    41    11    39    1
    42    11    40    1
    43    14    41    1
    44    15    42    1
    45    15    43    1
    46    18    44    1
    47    22    45    1
    48    23    46    1
    49    24    47    1
    50    25    48    1
@<TRIPOS>MOLECULE
mol20_1_16
 48 50 0 0 0
SMALL
USER_CHARGES
****
VDW energy = 68.29
@<TRIPOS>ATOM
   1 O1        5.5650     3.3479    -5.2117  O.2     1  <O>11      -0.2652
   2 C1        5.4993     2.1453    -5.0051  C.2     1  <O>11       0.2990
   3 N1        4.2920     1.5030    -5.0780  N.am    1  <O>11      -0.3073
   4 C2        3.0840     2.2550    -5.4020  C.3     1  <O>11       0.0157
   5 C3        1.8900     1.3140    -5.4191  C.3     1  <O>11      -0.0161
   6 C4        2.1046     0.2687    -6.4336  C.2     1  <O>11      -0.0720
   7 C5        3.2524     0.3160    -7.1346  C.2     1  <O>11      -0.0847
   8 C6        3.5435    -0.6732    -8.2436  C.3     1  <O>11      -0.0345
   9 C7        2.3084    -1.4706    -8.7156  C.3     1  <O>11      -0.0493
  10 C8        1.5316    -1.9650    -7.4775  C.3     1  <O>11      -0.0491
  11 C9        1.0448    -0.7844    -6.6317  C.3     1  <O>11      -0.0317
  12 C10       6.7320     1.3780    -4.6740  C.2     1  <O>11       0.2993
  13 O2        6.6660     0.1760    -4.4680  O.2     1  <O>11      -0.2652
  14 N2        7.9390     2.0200    -4.6020  N.am    1  <O>11      -0.3019
  15 C11       9.1480     1.2670    -4.2780  C.3     1  <O>11       0.0567
  16 C12       8.9944     0.6373    -2.9400  C.ar    1  <O>11       0.0863
  17 N3        9.0641    -0.7555    -2.8122  N.ar    1  <O>11      -0.1737
  18 N4        8.8219    -1.3493    -1.6220  N.ar    1  <O>11      -0.2424
  19 C13       8.5236    -0.5775    -0.5494  C.ar    1  <O>11       0.2725
  20 O3        8.1868    -1.2621     0.6343  O.2     1  <O>11      -0.2658
  21 C14       8.5351     0.8229    -0.5690  C.ar    1  <O>11       0.0496
  22 C15       8.2809     1.6304     0.5628  C.ar    1  <O>11      -0.0487
  23 C16       8.2757     3.0228     0.4677  C.ar    1  <O>11      -0.0610
  24 C17       8.5168     3.6340    -0.7577  C.ar    1  <O>11      -0.0611
  25 C18       8.7640     2.8531    -1.8878  C.ar    1  <O>11      -0.0520
  26 C19       8.7794     1.4393    -1.8084  C.ar    1  <O>11       0.0118
  27 H1        4.2380     0.4990    -4.9050  H       1  <O>11       0.1492
  28 H2        2.9250     3.0300    -4.6520  H       1  <O>11       0.0465
  29 H3        3.1960     2.7170    -6.3830  H       1  <O>11       0.0465
  30 H4        1.7770     0.8513    -4.4396  H       1  <O>11       0.0325
  31 H5        0.9885     1.8757    -5.6627  H       1  <O>11       0.0325
  32 H6        3.9852     1.0750    -6.9045  H       1  <O>11       0.0572
  33 H7        3.9431    -0.1227    -9.0956  H       1  <O>11       0.0307
  34 H8        4.2910    -1.3794    -7.8844  H       1  <O>11       0.0307
  35 H9        1.6674    -0.8293    -9.3198  H       1  <O>11       0.0268
  36 H10       2.6310    -2.3260    -9.3105  H       1  <O>11       0.0268
  37 H11       0.6698    -2.5473    -7.8047  H       1  <O>11       0.0268
  38 H12       2.1857    -2.5927    -6.8722  H       1  <O>11       0.0268
  39 H13       0.1893    -0.3276    -7.1304  H       1  <O>11       0.0310
  40 H14       0.7378    -1.1583    -5.6548  H       1  <O>11       0.0310
  41 H15       7.9940     3.0230    -4.7750  H       1  <O>11       0.1495
  42 H16      10.0037     1.9420    -4.2649  H       1  <O>11       0.0528
  43 H17       9.3060     0.4936    -5.0277  H       1  <O>11       0.0528
  44 H18       8.8643    -2.3550    -1.5340  H       1  <O>11       0.1921
  45 H19       8.0962     1.1832     1.4743  H       1  <O>11       0.0625
  46 H20       8.0932     3.5976     1.3052  H       1  <O>11       0.0618
  47 H21       8.5129     4.6633    -0.8315  H       1  <O>11       0.0618
  48 H22       8.9382     3.3130    -2.7951  H       1  <O>11       0.0624
@<TRIPOS>BOND
     1     1     2    2
     2     2     3   am
     3     3     4    1
     4     4     5    1
     5     5     6    1
     6     6     7    2
     7     7     8    1
     8     8     9    1
     9     9    10    1
    10    10    11    1
    11     6    11    1
    12     2    12    1
    13    12    13    2
    14    12    14   am
    15    14    15    1
    16    15    16    1
    17    16    17   ar
    18    17    18   ar
    19    18    19   ar
    20    19    20    2
    21    19    21   ar
    22    21    22   ar
    23    22    23   ar
    24    23    24   ar
    25    24    25   ar
    26    25    26   ar
    27    16    26   ar
    28    21    26   ar
    29     3    27    1
    30     4    28    1
    31     4    29    1
    32     5    30    1
    33     5    31    1
    34     7    32    1
    35     8    33    1
    36     8    34    1
    37     9    35    1
    38     9    36    1
    39    10    37    1
    40    10    38    1
    41    11    39    1
    42    11    40    1
    43    14    41    1
    44    15    42    1
    45    15    43    1
    46    18    44    1
    47    22    45    1
    48    23    46    1
    49    24    47    1
    50    25    48    1
@<TRIPOS>MOLECULE
mol20_1_17
 48 50 0 0 0
SMALL
USER_CHARGES
****
VDW energy = 68.32
@<TRIPOS>ATOM
   1 O1        5.5650     3.3479    -5.2117  O.2     1  <O>11      -0.2652
   2 C1        5.4993     2.1453    -5.0051  C.2     1  <O>11       0.2990
   3 N1        4.2920     1.5030    -5.0780  N.am    1  <O>11      -0.3073
   4 C2        4.2137     0.0668    -4.8312  C.3     1  <O>11       0.0157
   5 C3        2.7720    -0.3945    -4.9735  C.3     1  <O>11      -0.0161
   6 C4        2.6945    -1.8436    -4.7242  C.2     1  <O>11      -0.0720
   7 C5        3.8424    -2.4809    -4.4292  C.2     1  <O>11      -0.0847
   8 C6        3.8834    -3.9798    -4.2175  C.3     1  <O>11      -0.0345
   9 C7        2.6192    -4.7190    -4.7069  C.3     1  <O>11      -0.0493
  10 C8        1.3730    -3.9450    -4.2289  C.3     1  <O>11      -0.0491
  11 C9        1.3546    -2.5281    -4.8107  C.3     1  <O>11      -0.0317
  12 C10       6.7320     1.3780    -4.6740  C.2     1  <O>11       0.2993
  13 O2        6.6660     0.1760    -4.4680  O.2     1  <O>11      -0.2652
  14 N2        7.9390     2.0200    -4.6020  N.am    1  <O>11      -0.3019
  15 C11       8.0171     3.4574    -4.8500  C.3     1  <O>11       0.0567
  16 C12       9.4272     3.9072    -4.7101  C.ar    1  <O>11       0.0863
  17 N3       10.4260     2.9809    -4.3856  N.ar    1  <O>11      -0.1737
  18 N4       11.6931     3.3903    -4.1514  N.ar    1  <O>11      -0.2424
  19 C13      11.9877     4.7091    -4.2482  C.ar    1  <O>11       0.2725
  20 O3       13.3001     5.0799    -3.8971  O.2     1  <O>11      -0.2658
  21 C14      11.0732     5.6837    -4.6671  C.ar    1  <O>11       0.0496
  22 C15      11.3935     7.0513    -4.8245  C.ar    1  <O>11      -0.0487
  23 C16      10.4253     7.9777    -5.2145  C.ar    1  <O>11      -0.0610
  24 C17       9.1202     7.5585    -5.4477  C.ar    1  <O>11      -0.0611
  25 C18       8.7834     6.2131    -5.2917  C.ar    1  <O>11      -0.0520
  26 C19       9.7543     5.2584    -4.9028  C.ar    1  <O>11       0.0118
  27 H1        3.4481     2.0292    -5.3055  H       1  <O>11       0.1492
  28 H2        4.8369    -0.4615    -5.5529  H       1  <O>11       0.0465
  29 H3        4.5656    -0.1480    -3.8221  H       1  <O>11       0.0465
  30 H4        2.1485     0.1317    -4.2519  H       1  <O>11       0.0325
  31 H5        2.4204    -0.1811    -5.9827  H       1  <O>11       0.0325
  32 H6        4.7575    -1.9145    -4.3406  H       1  <O>11       0.0572
  33 H7        4.7439    -4.3771    -4.7564  H       1  <O>11       0.0307
  34 H8        4.0020    -4.1715    -3.1519  H       1  <O>11       0.0307
  35 H9        2.6241    -4.7719    -5.7952  H       1  <O>11       0.0268
  36 H10       2.6033    -5.7285    -4.2941  H       1  <O>11       0.0268
  37 H11       0.4768    -4.4743    -4.5533  H       1  <O>11       0.0268
  38 H12       1.3854    -3.8843    -3.1406  H       1  <O>11       0.0268
  39 H13       1.0601    -2.5856    -5.8591  H       1  <O>11       0.0310
  40 H14       0.6238    -1.9348    -4.2608  H       1  <O>11       0.0310
  41 H15       8.7828     1.4952    -4.3748  H       1  <O>11       0.1495
  42 H16       7.3948     3.9850    -4.1272  H       1  <O>11       0.0528
  43 H17       7.6655     3.6716    -5.8578  H       1  <O>11       0.0528
  44 H18      12.4104     2.7213    -3.9090  H       1  <O>11       0.1921
  45 H19      12.3591     7.3700    -4.6481  H       1  <O>11       0.0625
  46 H20      10.6775     8.9718    -5.3296  H       1  <O>11       0.0618
  47 H21       8.4018     8.2412    -5.7355  H       1  <O>11       0.0618
  48 H22       7.8120     5.9094    -5.4625  H       1  <O>11       0.0624
@<TRIPOS>BOND
     1     1     2    2
     2     2     3   am
     3     3     4    1
     4     4     5    1
     5     5     6    1
     6     6     7    2
     7     7     8    1
     8     8     9    1
     9     9    10    1
    10    10    11    1
    11     6    11    1
    12     2    12    1
    13    12    13    2
    14    12    14   am
    15    14    15    1
    16    15    16    1
    17    16    17   ar
    18    17    18   ar
    19    18    19   ar
    20    19    20    2
    21    19    21   ar
    22    21    22   ar
    23    22    23   ar
    24    23    24   ar
    25    24    25   ar
    26    25    26   ar
    27    16    26   ar
    28    21    26   ar
    29     3    27    1
    30     4    28    1
    31     4    29    1
    32     5    30    1
    33     5    31    1
    34     7    32    1
    35     8    33    1
    36     8    34    1
    37     9    35    1
    38     9    36    1
    39    10    37    1
    40    10    38    1
    41    11    39    1
    42    11    40    1
    43    14    41    1
    44    15    42    1
    45    15    43    1
    46    18    44    1
    47    22    45    1
    48    23    46    1
    49    24    47    1
    50    25    48    1
@<TRIPOS>MOLECULE
mol20_1_18
 48 50 0 0 0
SMALL
USER_CHARGES
****
VDW energy = 68.88
@<TRIPOS>ATOM
   1 O1        5.5650     3.3479    -5.2117  O.2     1  <O>11      -0.2652
   2 C1        5.4993     2.1453    -5.0051  C.2     1  <O>11       0.2990
   3 N1        4.2920     1.5030    -5.0780  N.am    1  <O>11      -0.3073
   4 C2        3.0840     2.2550    -5.4020  C.3     1  <O>11       0.0157
   5 C3        3.0686     3.5545    -4.6130  C.3     1  <O>11      -0.0161
   6 C4        1.8493     4.3121    -4.9409  C.2     1  <O>11      -0.0720
   7 C5        1.0019     3.7622    -5.8299  C.2     1  <O>11      -0.0847
   8 C6       -0.2484     4.4862    -6.2836  C.3     1  <O>11      -0.0345
   9 C7       -0.2693     5.9887    -5.9282  C.3     1  <O>11      -0.0493
  10 C8        0.1872     6.1609    -4.4645  C.3     1  <O>11      -0.0491
  11 C9        1.6164     5.6436    -4.2743  C.3     1  <O>11      -0.0317
  12 C10       6.7320     1.3780    -4.6740  C.2     1  <O>11       0.2993
  13 O2        6.6660     0.1760    -4.4680  O.2     1  <O>11      -0.2652
  14 N2        7.9390     2.0200    -4.6020  N.am    1  <O>11      -0.3019
  15 C11       9.1480     1.2670    -4.2780  C.3     1  <O>11       0.0567
  16 C12      10.3150     2.1880    -4.2640  C.ar    1  <O>11       0.0863
  17 N3       10.1330     3.5490    -4.5390  N.ar    1  <O>11      -0.1737
  18 N4       11.1960     4.3790    -4.6340  N.ar    1  <O>11      -0.2424
  19 C13      12.4410     3.8790    -4.4460  C.ar    1  <O>11       0.2725
  20 O3       13.5080     4.7740    -4.6550  O.2     1  <O>11      -0.2658
  21 C14      12.7010     2.5560    -4.0670  C.ar    1  <O>11       0.0496
  22 C15      13.9950     2.0470    -3.8140  C.ar    1  <O>11      -0.0487
  23 C16      14.1880     0.7080    -3.4710  C.ar    1  <O>11      -0.0610
  24 C17      13.0960    -0.1480    -3.3810  C.ar    1  <O>11      -0.0611
  25 C18      11.8110     0.3350    -3.6330  C.ar    1  <O>11      -0.0520
  26 C19      11.5960     1.6920    -3.9760  C.ar    1  <O>11       0.0118
  27 H1        4.2380     0.4990    -4.9050  H       1  <O>11       0.1492
  28 H2        3.0686     2.4778    -6.4690  H       1  <O>11       0.0465
  29 H3        2.2067     1.6623    -5.1424  H       1  <O>11       0.0465
  30 H4        3.0825     3.3332    -3.5467  H       1  <O>11       0.0325
  31 H5        3.9448     4.1478    -4.8734  H       1  <O>11       0.0325
  32 H6        1.2144     2.7827    -6.2316  H       1  <O>11       0.0572
  33 H7       -0.3253     4.3883    -7.3667  H       1  <O>11       0.0307
  34 H8       -1.1084     4.0107    -5.8139  H       1  <O>11       0.0307
  35 H9        0.4055     6.5309    -6.5899  H       1  <O>11       0.0268
  36 H10      -1.2818     6.3776    -6.0438  H       1  <O>11       0.0268
  37 H11       0.1537     7.2183    -4.2012  H       1  <O>11       0.0268
  38 H12      -0.4847     5.6025    -3.8124  H       1  <O>11       0.0268
  39 H13       2.3096     6.3710    -4.6981  H       1  <O>11       0.0310
  40 H14       1.8098     5.5377    -3.2067  H       1  <O>11       0.0310
  41 H15       7.9940     3.0230    -4.7750  H       1  <O>11       0.1495
  42 H16       9.3060     0.4930    -5.0290  H       1  <O>11       0.0528
  43 H17       9.0370     0.8060    -3.2980  H       1  <O>11       0.0528
  44 H18      11.0630     5.3590    -4.8410  H       1  <O>11       0.1921
  45 H19      14.8104     2.6757    -3.8840  H       1  <O>11       0.0625
  46 H20      15.1393     0.3539    -3.2846  H       1  <O>11       0.0618
  47 H21      13.2354    -1.1388    -3.1283  H       1  <O>11       0.0618
  48 H22      11.0053    -0.3066    -3.5684  H       1  <O>11       0.0624
@<TRIPOS>BOND
     1     1     2    2
     2     2     3   am
     3     3     4    1
     4     4     5    1
     5     5     6    1
     6     6     7    2
     7     7     8    1
     8     8     9    1
     9     9    10    1
    10    10    11    1
    11     6    11    1
    12     2    12    1
    13    12    13    2
    14    12    14   am
    15    14    15    1
    16    15    16    1
    17    16    17   ar
    18    17    18   ar
    19    18    19   ar
    20    19    20    2
    21    19    21   ar
    22    21    22   ar
    23    22    23   ar
    24    23    24   ar
    25    24    25   ar
    26    25    26   ar
    27    16    26   ar
    28    21    26   ar
    29     3    27    1
    30     4    28    1
    31     4    29    1
    32     5    30    1
    33     5    31    1
    34     7    32    1
    35     8    33    1
    36     8    34    1
    37     9    35    1
    38     9    36    1
    39    10    37    1
    40    10    38    1
    41    11    39    1
    42    11    40    1
    43    14    41    1
    44    15    42    1
    45    15    43    1
    46    18    44    1
    47    22    45    1
    48    23    46    1
    49    24    47    1
    50    25    48    1
@<TRIPOS>MOLECULE
mol20_1_19
 48 50 0 0 0
SMALL
USER_CHARGES
****
VDW energy = 69.19
@<TRIPOS>ATOM
   1 O1        5.5650     3.3479    -5.2117  O.2     1  <O>11      -0.2652
   2 C1        5.4993     2.1453    -5.0051  C.2     1  <O>11       0.2990
   3 N1        4.2920     1.5030    -5.0780  N.am    1  <O>11      -0.3073
   4 C2        3.0840     2.2550    -5.4020  C.3     1  <O>11       0.0157
   5 C3        3.3716     3.2052    -6.5535  C.3     1  <O>11      -0.0161
   6 C4        2.1520     3.9632    -6.8793  C.2     1  <O>11      -0.0720
   7 C5        1.0520     3.7056    -6.1482  C.2     1  <O>11      -0.0847
   8 C6       -0.2699     4.3834    -6.4419  C.3     1  <O>11      -0.0345
   9 C7       -0.3254     5.0849    -7.8162  C.3     1  <O>11      -0.0493
  10 C8        0.9733     5.8936    -8.0158  C.3     1  <O>11      -0.0491
  11 C9        2.1974     4.9730    -7.9971  C.3     1  <O>11      -0.0317
  12 C10       6.7320     1.3780    -4.6740  C.2     1  <O>11       0.2993
  13 O2        6.6660     0.1760    -4.4680  O.2     1  <O>11      -0.2652
  14 N2        7.9390     2.0200    -4.6020  N.am    1  <O>11      -0.3019
  15 C11       9.1480     1.2670    -4.2780  C.3     1  <O>11       0.0567
  16 C12       8.9944     0.6373    -2.9400  C.ar    1  <O>11       0.0863
  17 N3        7.8125     0.8243    -2.2125  N.ar    1  <O>11      -0.1737
  18 N4        7.6984     0.3473    -0.9526  N.ar    1  <O>11      -0.2424
  19 C13       8.7390    -0.3269    -0.4067  C.ar    1  <O>11       0.2725
  20 O3        8.5923    -0.7110     0.9402  O.2     1  <O>11      -0.2658
  21 C14       9.9126    -0.6450    -1.1016  C.ar    1  <O>11       0.0496
  22 C15      10.9755    -1.3980    -0.5530  C.ar    1  <O>11      -0.0487
  23 C16      12.1332    -1.6525    -1.2896  C.ar    1  <O>11      -0.0610
  24 C17      12.2546    -1.1554    -2.5825  C.ar    1  <O>11      -0.0611
  25 C18      11.2179    -0.4048    -3.1392  C.ar    1  <O>11      -0.0520
  26 C19      10.0336    -0.1422    -2.4087  C.ar    1  <O>11       0.0118
  27 H1        4.2380     0.4990    -4.9050  H       1  <O>11       0.1492
  28 H2        2.2912     1.5645    -5.6902  H       1  <O>11       0.0465
  29 H3        2.7675     2.8271    -4.5297  H       1  <O>11       0.0465
  30 H4        4.1626     3.8966    -6.2662  H       1  <O>11       0.0325
  31 H5        3.6867     2.6334    -7.4260  H       1  <O>11       0.0325
  32 H6        1.1087     3.0001    -5.3326  H       1  <O>11       0.0572
  33 H7       -1.0553     3.6279    -6.4098  H       1  <O>11       0.0307
  34 H8       -0.4512     5.1289    -5.6687  H       1  <O>11       0.0307
  35 H9       -0.4187     4.3388    -8.6048  H       1  <O>11       0.0268
  36 H10      -1.1837     5.7574    -7.8490  H       1  <O>11       0.0268
  37 H11       0.9303     6.4087    -8.9757  H       1  <O>11       0.0268
  38 H12       1.0650     6.6264    -7.2139  H       1  <O>11       0.0268
  39 H13       2.2465     4.4390    -8.9467  H       1  <O>11       0.0310
  40 H14       3.0920     5.5846    -7.8785  H       1  <O>11       0.0310
  41 H15       7.9940     3.0230    -4.7750  H       1  <O>11       0.1495
  42 H16      10.0037     1.9420    -4.2649  H       1  <O>11       0.0528
  43 H17       9.3060     0.4936    -5.0277  H       1  <O>11       0.0528
  44 H18       6.8479     0.4908    -0.4263  H       1  <O>11       0.1921
  45 H19      10.8941    -1.7656     0.4078  H       1  <O>11       0.0625
  46 H20      12.8978    -2.2084    -0.8756  H       1  <O>11       0.0618
  47 H21      13.1096    -1.3413    -3.1296  H       1  <O>11       0.0618
  48 H22      11.3161    -0.0354    -4.0978  H       1  <O>11       0.0624
@<TRIPOS>BOND
     1     1     2    2
     2     2     3   am
     3     3     4    1
     4     4     5    1
     5     5     6    1
     6     6     7    2
     7     7     8    1
     8     8     9    1
     9     9    10    1
    10    10    11    1
    11     6    11    1
    12     2    12    1
    13    12    13    2
    14    12    14   am
    15    14    15    1
    16    15    16    1
    17    16    17   ar
    18    17    18   ar
    19    18    19   ar
    20    19    20    2
    21    19    21   ar
    22    21    22   ar
    23    22    23   ar
    24    23    24   ar
    25    24    25   ar
    26    25    26   ar
    27    16    26   ar
    28    21    26   ar
    29     3    27    1
    30     4    28    1
    31     4    29    1
    32     5    30    1
    33     5    31    1
    34     7    32    1
    35     8    33    1
    36     8    34    1
    37     9    35    1
    38     9    36    1
    39    10    37    1
    40    10    38    1
    41    11    39    1
    42    11    40    1
    43    14    41    1
    44    15    42    1
    45    15    43    1
    46    18    44    1
    47    22    45    1
    48    23    46    1
    49    24    47    1
    50    25    48    1
@<TRIPOS>MOLECULE
mol20_1_20
 48 50 0 0 0
SMALL
USER_CHARGES
****
VDW energy = 69.19
@<TRIPOS>ATOM
   1 O1        5.5650     3.3479    -5.2117  O.2     1  <O>11      -0.2652
   2 C1        5.4993     2.1453    -5.0051  C.2     1  <O>11       0.2990
   3 N1        4.2920     1.5030    -5.0780  N.am    1  <O>11      -0.3073
   4 C2        3.0840     2.2550    -5.4020  C.3     1  <O>11       0.0157
   5 C3        3.0686     3.5545    -4.6130  C.3     1  <O>11      -0.0161
   6 C4        1.8493     4.3121    -4.9409  C.2     1  <O>11      -0.0720
   7 C5        1.0019     3.7622    -5.8299  C.2     1  <O>11      -0.0847
   8 C6       -0.2484     4.4862    -6.2836  C.3     1  <O>11      -0.0345
   9 C7       -0.2693     5.9887    -5.9282  C.3     1  <O>11      -0.0493
  10 C8        0.1872     6.1609    -4.4645  C.3     1  <O>11      -0.0491
  11 C9        1.6164     5.6436    -4.2743  C.3     1  <O>11      -0.0317
  12 C10       6.7320     1.3780    -4.6740  C.2     1  <O>11       0.2993
  13 O2        6.6660     0.1760    -4.4680  O.2     1  <O>11      -0.2652
  14 N2        7.9390     2.0200    -4.6020  N.am    1  <O>11      -0.3019
  15 C11       9.1480     1.2670    -4.2780  C.3     1  <O>11       0.0567
  16 C12       8.9944     0.6373    -2.9400  C.ar    1  <O>11       0.0863
  17 N3        7.8125     0.8243    -2.2125  N.ar    1  <O>11      -0.1737
  18 N4        7.6984     0.3473    -0.9526  N.ar    1  <O>11      -0.2424
  19 C13       8.7390    -0.3269    -0.4067  C.ar    1  <O>11       0.2725
  20 O3        8.5923    -0.7110     0.9402  O.2     1  <O>11      -0.2658
  21 C14       9.9126    -0.6450    -1.1016  C.ar    1  <O>11       0.0496
  22 C15      10.9755    -1.3980    -0.5530  C.ar    1  <O>11      -0.0487
  23 C16      12.1332    -1.6525    -1.2896  C.ar    1  <O>11      -0.0610
  24 C17      12.2546    -1.1554    -2.5825  C.ar    1  <O>11      -0.0611
  25 C18      11.2179    -0.4048    -3.1392  C.ar    1  <O>11      -0.0520
  26 C19      10.0336    -0.1422    -2.4087  C.ar    1  <O>11       0.0118
  27 H1        4.2380     0.4990    -4.9050  H       1  <O>11       0.1492
  28 H2        3.0686     2.4778    -6.4690  H       1  <O>11       0.0465
  29 H3        2.2067     1.6623    -5.1424  H       1  <O>11       0.0465
  30 H4        3.0825     3.3332    -3.5467  H       1  <O>11       0.0325
  31 H5        3.9448     4.1478    -4.8734  H       1  <O>11       0.0325
  32 H6        1.2144     2.7827    -6.2316  H       1  <O>11       0.0572
  33 H7       -0.3253     4.3883    -7.3667  H       1  <O>11       0.0307
  34 H8       -1.1084     4.0107    -5.8139  H       1  <O>11       0.0307
  35 H9        0.4055     6.5309    -6.5899  H       1  <O>11       0.0268
  36 H10      -1.2818     6.3776    -6.0438  H       1  <O>11       0.0268
  37 H11       0.1537     7.2183    -4.2012  H       1  <O>11       0.0268
  38 H12      -0.4847     5.6025    -3.8124  H       1  <O>11       0.0268
  39 H13       2.3096     6.3710    -4.6981  H       1  <O>11       0.0310
  40 H14       1.8098     5.5377    -3.2067  H       1  <O>11       0.0310
  41 H15       7.9940     3.0230    -4.7750  H       1  <O>11       0.1495
  42 H16      10.0037     1.9420    -4.2649  H       1  <O>11       0.0528
  43 H17       9.3060     0.4936    -5.0277  H       1  <O>11       0.0528
  44 H18       6.8479     0.4908    -0.4263  H       1  <O>11       0.1921
  45 H19      10.8941    -1.7656     0.4078  H       1  <O>11       0.0625
  46 H20      12.8978    -2.2084    -0.8756  H       1  <O>11       0.0618
  47 H21      13.1096    -1.3413    -3.1296  H       1  <O>11       0.0618
  48 H22      11.3161    -0.0354    -4.0978  H       1  <O>11       0.0624
@<TRIPOS>BOND
     1     1     2    2
     2     2     3   am
     3     3     4    1
     4     4     5    1
     5     5     6    1
     6     6     7    2
     7     7     8    1
     8     8     9    1
     9     9    10    1
    10    10    11    1
    11     6    11    1
    12     2    12    1
    13    12    13    2
    14    12    14   am
    15    14    15    1
    16    15    16    1
    17    16    17   ar
    18    17    18   ar
    19    18    19   ar
    20    19    20    2
    21    19    21   ar
    22    21    22   ar
    23    22    23   ar
    24    23    24   ar
    25    24    25   ar
    26    25    26   ar
    27    16    26   ar
    28    21    26   ar
    29     3    27    1
    30     4    28    1
    31     4    29    1
    32     5    30    1
    33     5    31    1
    34     7    32    1
    35     8    33    1
    36     8    34    1
    37     9    35    1
    38     9    36    1
    39    10    37    1
    40    10    38    1
    41    11    39    1
    42    11    40    1
    43    14    41    1
    44    15    42    1
    45    15    43    1
    46    18    44    1
    47    22    45    1
    48    23    46    1
    49    24    47    1
    50    25    48    1
@<TRIPOS>MOLECULE
mol20_1_21
 48 50 0 0 0
SMALL
USER_CHARGES
****
VDW energy = 69.20
@<TRIPOS>ATOM
   1 O1        5.5650     3.3479    -5.2117  O.2     1  <O>11      -0.2652
   2 C1        5.4993     2.1453    -5.0051  C.2     1  <O>11       0.2990
   3 N1        4.2920     1.5030    -5.0780  N.am    1  <O>11      -0.3073
   4 C2        3.0840     2.2550    -5.4020  C.3     1  <O>11       0.0157
   5 C3        1.8900     1.3140    -5.4190  C.3     1  <O>11      -0.0161
   6 C4        0.6720     2.0740    -5.7460  C.2     1  <O>11      -0.0720
   7 C5        0.8090     3.3950    -5.9630  C.2     1  <O>11      -0.0847
   8 C6       -0.3880     4.2790    -6.2440  C.3     1  <O>11      -0.0345
   9 C7       -1.7460     3.6230    -5.9130  C.3     1  <O>11      -0.0493
  10 C8       -1.7520     2.1830    -6.4670  C.3     1  <O>11      -0.0491
  11 C9       -0.6450     1.3450    -5.8200  C.3     1  <O>11      -0.0317
  12 C10       6.7320     1.3780    -4.6740  C.2     1  <O>11       0.2993
  13 O2        7.8085     1.9511    -4.6078  O.2     1  <O>11      -0.2652
  14 N2        6.6579     0.0307    -4.4426  N.am    1  <O>11      -0.3019
  15 C11       7.8671    -0.7214    -4.1171  C.3     1  <O>11       0.0567
  16 C12       8.8401    -0.6007    -5.2347  C.ar    1  <O>11       0.0863
  17 N3        9.7714     0.4451    -5.2390  N.ar    1  <O>11      -0.1737
  18 N4       10.5916     0.6304    -6.2976  N.ar    1  <O>11      -0.2424
  19 C13      10.5104    -0.2183    -7.3504  C.ar    1  <O>11       0.2725
  20 O3       11.3225     0.0880    -8.4594  O.2     1  <O>11      -0.2658
  21 C14       9.6810    -1.3465    -7.3803  C.ar    1  <O>11       0.0496
  22 C15       9.6367    -2.2656    -8.4531  C.ar    1  <O>11      -0.0487
  23 C16       8.7625    -3.3533    -8.4341  C.ar    1  <O>11      -0.0610
  24 C17       7.9130    -3.5400    -7.3493  C.ar    1  <O>11      -0.0611
  25 C18       7.9382    -2.6396    -6.2832  C.ar    1  <O>11      -0.0520
  26 C19       8.8231    -1.5341    -6.2828  C.ar    1  <O>11       0.0118
  27 H1        4.2380     0.4990    -4.9050  H       1  <O>11       0.1492
  28 H2        2.9250     3.0300    -4.6520  H       1  <O>11       0.0465
  29 H3        3.1960     2.7170    -6.3830  H       1  <O>11       0.0465
  30 H4        2.0470     0.5400    -6.1690  H       1  <O>11       0.0325
  31 H5        1.7770     0.8530    -4.4380  H       1  <O>11       0.0325
  32 H6        1.7930     3.8390    -5.9370  H       1  <O>11       0.0572
  33 H7       -0.2900     5.1860    -5.6470  H       1  <O>11       0.0307
  34 H8       -0.3810     4.5380    -7.3020  H       1  <O>11       0.0307
  35 H9       -1.8890     3.6020    -4.8330  H       1  <O>11       0.0268
  36 H10      -2.5510     4.1960    -6.3750  H       1  <O>11       0.0268
  37 H11      -2.7170     1.7220    -6.2550  H       1  <O>11       0.0268
  38 H12      -1.5930     2.2140    -7.5450  H       1  <O>11       0.0268
  39 H13      -0.9540     1.0810    -4.8080  H       1  <O>11       0.0310
  40 H14      -0.5080     0.4360    -6.4060  H       1  <O>11       0.0310
  41 H15       5.7593    -0.4472    -4.4969  H       1  <O>11       0.1495
  42 H16       7.6131    -1.7711    -3.9693  H       1  <O>11       0.0528
  43 H17       8.3089    -0.3221    -3.2057  H       1  <O>11       0.0528
  44 H18      11.2570     1.3909    -6.3023  H       1  <O>11       0.1921
  45 H19      10.2610    -2.1301    -9.2637  H       1  <O>11       0.0625
  46 H20       8.7466    -4.0178    -9.2236  H       1  <O>11       0.0618
  47 H21       7.2649    -4.3429    -7.3325  H       1  <O>11       0.0618
  48 H22       7.3022    -2.7817    -5.4830  H       1  <O>11       0.0624
@<TRIPOS>BOND
     1     1     2    2
     2     2     3   am
     3     3     4    1
     4     4     5    1
     5     5     6    1
     6     6     7    2
     7     7     8    1
     8     8     9    1
     9     9    10    1
    10    10    11    1
    11     6    11    1
    12     2    12    1
    13    12    13    2
    14    12    14   am
    15    14    15    1
    16    15    16    1
    17    16    17   ar
    18    17    18   ar
    19    18    19   ar
    20    19    20    2
    21    19    21   ar
    22    21    22   ar
    23    22    23   ar
    24    23    24   ar
    25    24    25   ar
    26    25    26   ar
    27    16    26   ar
    28    21    26   ar
    29     3    27    1
    30     4    28    1
    31     4    29    1
    32     5    30    1
    33     5    31    1
    34     7    32    1
    35     8    33    1
    36     8    34    1
    37     9    35    1
    38     9    36    1
    39    10    37    1
    40    10    38    1
    41    11    39    1
    42    11    40    1
    43    14    41    1
    44    15    42    1
    45    15    43    1
    46    18    44    1
    47    22    45    1
    48    23    46    1
    49    24    47    1
    50    25    48    1
@<TRIPOS>MOLECULE
mol20_1_22
 48 50 0 0 0
SMALL
USER_CHARGES
****
VDW energy = 69.65
@<TRIPOS>ATOM
   1 O1        5.5650     3.3479    -5.2117  O.2     1  <O>11      -0.2652
   2 C1        5.4993     2.1453    -5.0051  C.2     1  <O>11       0.2990
   3 N1        4.2920     1.5030    -5.0780  N.am    1  <O>11      -0.3073
   4 C2        3.0840     2.2550    -5.4020  C.3     1  <O>11       0.0157
   5 C3        3.0686     3.5545    -4.6130  C.3     1  <O>11      -0.0161
   6 C4        1.8493     4.3121    -4.9409  C.2     1  <O>11      -0.0720
   7 C5        1.0019     3.7622    -5.8299  C.2     1  <O>11      -0.0847
   8 C6       -0.2484     4.4862    -6.2836  C.3     1  <O>11      -0.0345
   9 C7       -0.2693     5.9887    -5.9282  C.3     1  <O>11      -0.0493
  10 C8        0.1872     6.1609    -4.4645  C.3     1  <O>11      -0.0491
  11 C9        1.6164     5.6436    -4.2743  C.3     1  <O>11      -0.0317
  12 C10       6.7320     1.3780    -4.6740  C.2     1  <O>11       0.2993
  13 O2        6.6660     0.1760    -4.4680  O.2     1  <O>11      -0.2652
  14 N2        7.9390     2.0200    -4.6020  N.am    1  <O>11      -0.3019
  15 C11       9.1480     1.2670    -4.2780  C.3     1  <O>11       0.0567
  16 C12       9.3620     0.2111    -5.3025  C.ar    1  <O>11       0.0863
  17 N3        8.4585     0.0753    -6.3637  N.ar    1  <O>11      -0.1737
  18 N4        8.5796    -0.9445    -7.2431  N.ar    1  <O>11      -0.2424
  19 C13       9.5962    -1.8271    -7.0923  C.ar    1  <O>11       0.2725
  20 O3        9.6081    -2.9189    -7.9817  O.2     1  <O>11      -0.2658
  21 C14      10.5991    -1.7032    -6.1224  C.ar    1  <O>11       0.0496
  22 C15      11.6925    -2.5903    -5.9996  C.ar    1  <O>11      -0.0487
  23 C16      12.6411    -2.4287    -4.9888  C.ar    1  <O>11      -0.0610
  24 C17      12.5127    -1.3850    -4.0791  C.ar    1  <O>11      -0.0611
  25 C18      11.4363    -0.5023    -4.1808  C.ar    1  <O>11      -0.0520
  26 C19      10.4681    -0.6473    -5.2039  C.ar    1  <O>11       0.0118
  27 H1        4.2380     0.4990    -4.9050  H       1  <O>11       0.1492
  28 H2        3.0686     2.4778    -6.4690  H       1  <O>11       0.0465
  29 H3        2.2067     1.6623    -5.1424  H       1  <O>11       0.0465
  30 H4        3.0825     3.3332    -3.5467  H       1  <O>11       0.0325
  31 H5        3.9448     4.1478    -4.8734  H       1  <O>11       0.0325
  32 H6        1.2144     2.7827    -6.2316  H       1  <O>11       0.0572
  33 H7       -0.3253     4.3883    -7.3667  H       1  <O>11       0.0307
  34 H8       -1.1084     4.0107    -5.8139  H       1  <O>11       0.0307
  35 H9        0.4055     6.5309    -6.5899  H       1  <O>11       0.0268
  36 H10      -1.2818     6.3776    -6.0438  H       1  <O>11       0.0268
  37 H11       0.1537     7.2183    -4.2012  H       1  <O>11       0.0268
  38 H12      -0.4847     5.6025    -3.8124  H       1  <O>11       0.0268
  39 H13       2.3096     6.3710    -4.6981  H       1  <O>11       0.0310
  40 H14       1.8098     5.5377    -3.2067  H       1  <O>11       0.0310
  41 H15       7.9940     3.0230    -4.7750  H       1  <O>11       0.1495
  42 H16       9.0356     0.8037    -3.2978  H       1  <O>11       0.0528
  43 H17      10.0032     1.9407    -4.2662  H       1  <O>11       0.0528
  44 H18       7.9215    -1.0455    -8.0031  H       1  <O>11       0.1921
  45 H19      11.7911    -3.3701    -6.6683  H       1  <O>11       0.0625
  46 H20      13.4363    -3.0826    -4.9165  H       1  <O>11       0.0618
  47 H21      13.2120    -1.2632    -3.3301  H       1  <O>11       0.0618
  48 H22      11.3447     0.2678    -3.5000  H       1  <O>11       0.0624
@<TRIPOS>BOND
     1     1     2    2
     2     2     3   am
     3     3     4    1
     4     4     5    1
     5     5     6    1
     6     6     7    2
     7     7     8    1
     8     8     9    1
     9     9    10    1
    10    10    11    1
    11     6    11    1
    12     2    12    1
    13    12    13    2
    14    12    14   am
    15    14    15    1
    16    15    16    1
    17    16    17   ar
    18    17    18   ar
    19    18    19   ar
    20    19    20    2
    21    19    21   ar
    22    21    22   ar
    23    22    23   ar
    24    23    24   ar
    25    24    25   ar
    26    25    26   ar
    27    16    26   ar
    28    21    26   ar
    29     3    27    1
    30     4    28    1
    31     4    29    1
    32     5    30    1
    33     5    31    1
    34     7    32    1
    35     8    33    1
    36     8    34    1
    37     9    35    1
    38     9    36    1
    39    10    37    1
    40    10    38    1
    41    11    39    1
    42    11    40    1
    43    14    41    1
    44    15    42    1
    45    15    43    1
    46    18    44    1
    47    22    45    1
    48    23    46    1
    49    24    47    1
    50    25    48    1
@<TRIPOS>MOLECULE
mol20_1_23
 48 50 0 0 0
SMALL
USER_CHARGES
****
VDW energy = 70.71
@<TRIPOS>ATOM
   1 O1        5.5650     3.3479    -5.2117  O.2     1  <O>11      -0.2652
   2 C1        5.4993     2.1453    -5.0051  C.2     1  <O>11       0.2990
   3 N1        4.2920     1.5030    -5.0780  N.am    1  <O>11      -0.3073
   4 C2        3.0840     2.2550    -5.4020  C.3     1  <O>11       0.0157
   5 C3        1.8900     1.3140    -5.4190  C.3     1  <O>11      -0.0161
   6 C4        0.6720     2.0740    -5.7460  C.2     1  <O>11      -0.0720
   7 C5        0.8090     3.3950    -5.9630  C.2     1  <O>11      -0.0847
   8 C6       -0.3880     4.2790    -6.2440  C.3     1  <O>11      -0.0345
   9 C7       -1.7460     3.6230    -5.9130  C.3     1  <O>11      -0.0493
  10 C8       -1.7520     2.1830    -6.4670  C.3     1  <O>11      -0.0491
  11 C9       -0.6450     1.3450    -5.8200  C.3     1  <O>11      -0.0317
  12 C10       6.7320     1.3780    -4.6740  C.2     1  <O>11       0.2993
  13 O2        7.8085     1.9511    -4.6078  O.2     1  <O>11      -0.2652
  14 N2        6.6579     0.0307    -4.4426  N.am    1  <O>11      -0.3019
  15 C11       7.8671    -0.7214    -4.1171  C.3     1  <O>11       0.0567
  16 C12       7.5189    -2.1522    -3.9122  C.ar    1  <O>11       0.0863
  17 N3        6.1896    -2.5726    -4.0439  N.ar    1  <O>11      -0.1737
  18 N4        5.8404    -3.8471    -3.7582  N.ar    1  <O>11      -0.2424
  19 C13       6.7970    -4.7175    -3.3550  C.ar    1  <O>11       0.2725
  20 O3        6.3518    -5.9999    -2.9799  O.2     1  <O>11      -0.2658
  21 C14       8.1611    -4.4053    -3.2970  C.ar    1  <O>11       0.0496
  22 C15       9.1674    -5.3282    -2.9323  C.ar    1  <O>11      -0.0487
  23 C16      10.5071    -4.9431    -2.8629  C.ar    1  <O>11      -0.0610
  24 C17      10.8659    -3.6306    -3.1489  C.ar    1  <O>11      -0.0611
  25 C18       9.8854    -2.7034    -3.5052  C.ar    1  <O>11      -0.0520
  26 C19       8.5223    -3.0782    -3.5868  C.ar    1  <O>11       0.0118
  27 H1        4.2380     0.4990    -4.9050  H       1  <O>11       0.1492
  28 H2        2.9250     3.0300    -4.6520  H       1  <O>11       0.0465
  29 H3        3.1960     2.7170    -6.3830  H       1  <O>11       0.0465
  30 H4        2.0470     0.5400    -6.1690  H       1  <O>11       0.0325
  31 H5        1.7770     0.8530    -4.4380  H       1  <O>11       0.0325
  32 H6        1.7930     3.8390    -5.9370  H       1  <O>11       0.0572
  33 H7       -0.2900     5.1860    -5.6470  H       1  <O>11       0.0307
  34 H8       -0.3810     4.5380    -7.3020  H       1  <O>11       0.0307
  35 H9       -1.8890     3.6020    -4.8330  H       1  <O>11       0.0268
  36 H10      -2.5510     4.1960    -6.3750  H       1  <O>11       0.0268
  37 H11      -2.7170     1.7220    -6.2550  H       1  <O>11       0.0268
  38 H12      -1.5930     2.2140    -7.5450  H       1  <O>11       0.0268
  39 H13      -0.9540     1.0810    -4.8080  H       1  <O>11       0.0310
  40 H14      -0.5080     0.4360    -6.4060  H       1  <O>11       0.0310
  41 H15       5.7593    -0.4472    -4.4969  H       1  <O>11       0.1495
  42 H16       8.3089    -0.3216    -3.2044  H       1  <O>11       0.0528
  43 H17       8.5801    -0.6344    -4.9351  H       1  <O>11       0.0528
  44 H18       4.8792    -4.1460    -3.8456  H       1  <O>11       0.1921
  45 H19       8.9074    -6.3028    -2.7139  H       1  <O>11       0.0625
  46 H20      11.2299    -5.6311    -2.5998  H       1  <O>11       0.0618
  47 H21      11.8555    -3.3424    -3.0977  H       1  <O>11       0.0618
  48 H22      10.1580    -1.7298    -3.7122  H       1  <O>11       0.0624
@<TRIPOS>BOND
     1     1     2    2
     2     2     3   am
     3     3     4    1
     4     4     5    1
     5     5     6    1
     6     6     7    2
     7     7     8    1
     8     8     9    1
     9     9    10    1
    10    10    11    1
    11     6    11    1
    12     2    12    1
    13    12    13    2
    14    12    14   am
    15    14    15    1
    16    15    16    1
    17    16    17   ar
    18    17    18   ar
    19    18    19   ar
    20    19    20    2
    21    19    21   ar
    22    21    22   ar
    23    22    23   ar
    24    23    24   ar
    25    24    25   ar
    26    25    26   ar
    27    16    26   ar
    28    21    26   ar
    29     3    27    1
    30     4    28    1
    31     4    29    1
    32     5    30    1
    33     5    31    1
    34     7    32    1
    35     8    33    1
    36     8    34    1
    37     9    35    1
    38     9    36    1
    39    10    37    1
    40    10    38    1
    41    11    39    1
    42    11    40    1
    43    14    41    1
    44    15    42    1
    45    15    43    1
    46    18    44    1
    47    22    45    1
    48    23    46    1
    49    24    47    1
    50    25    48    1
@<TRIPOS>MOLECULE
mol20_1_24
 48 50 0 0 0
SMALL
USER_CHARGES
****
VDW energy = 74.99
@<TRIPOS>ATOM
   1 O1        5.5650     3.3479    -5.2117  O.2     1  <O>11      -0.2652
   2 C1        5.4993     2.1453    -5.0051  C.2     1  <O>11       0.2990
   3 N1        4.2920     1.5030    -5.0780  N.am    1  <O>11      -0.3073
   4 C2        4.2137     0.0668    -4.8312  C.3     1  <O>11       0.0157
   5 C3        2.7720    -0.3945    -4.9735  C.3     1  <O>11      -0.0161
   6 C4        2.2970    -0.1038    -6.3365  C.2     1  <O>11      -0.0720
   7 C5        3.1647     0.4856    -7.1794  C.2     1  <O>11      -0.0847
   8 C6        2.7579     0.8843    -8.5826  C.3     1  <O>11      -0.0345
   9 C7        1.2321     0.8848    -8.8190  C.3     1  <O>11      -0.0493
  10 C8        0.6348    -0.4062    -8.2215  C.3     1  <O>11      -0.0491
  11 C9        0.8855    -0.4755    -6.7120  C.3     1  <O>11      -0.0317
  12 C10       6.7320     1.3780    -4.6740  C.2     1  <O>11       0.2993
  13 O2        6.6660     0.1760    -4.4680  O.2     1  <O>11      -0.2652
  14 N2        7.9390     2.0200    -4.6020  N.am    1  <O>11      -0.3019
  15 C11       9.1480     1.2670    -4.2780  C.3     1  <O>11       0.0567
  16 C12      10.3150     2.1880    -4.2640  C.ar    1  <O>11       0.0863
  17 N3       10.1330     3.5490    -4.5390  N.ar    1  <O>11      -0.1737
  18 N4       11.1960     4.3790    -4.6340  N.ar    1  <O>11      -0.2424
  19 C13      12.4410     3.8790    -4.4460  C.ar    1  <O>11       0.2725
  20 O3       13.5080     4.7740    -4.6550  O.2     1  <O>11      -0.2658
  21 C14      12.7010     2.5560    -4.0670  C.ar    1  <O>11       0.0496
  22 C15      13.9950     2.0470    -3.8140  C.ar    1  <O>11      -0.0487
  23 C16      14.1880     0.7080    -3.4710  C.ar    1  <O>11      -0.0610
  24 C17      13.0960    -0.1480    -3.3810  C.ar    1  <O>11      -0.0611
  25 C18      11.8110     0.3350    -3.6330  C.ar    1  <O>11      -0.0520
  26 C19      11.5960     1.6920    -3.9760  C.ar    1  <O>11       0.0118
  27 H1        3.4481     2.0292    -5.3055  H       1  <O>11       0.1492
  28 H2        4.8369    -0.4615    -5.5529  H       1  <O>11       0.0465
  29 H3        4.5656    -0.1480    -3.8221  H       1  <O>11       0.0465
  30 H4        2.7128    -1.4663    -4.7895  H       1  <O>11       0.0325
  31 H5        2.1489     0.1339    -4.2522  H       1  <O>11       0.0325
  32 H6        4.1751     0.6806    -6.8520  H       1  <O>11       0.0572
  33 H7        3.1358     1.8887    -8.7750  H       1  <O>11       0.0307
  34 H8        3.2132     0.1847    -9.2824  H       1  <O>11       0.0307
  35 H9        0.7869     1.7539    -8.3355  H       1  <O>11       0.0268
  36 H10       1.0282     0.9207    -9.8899  H       1  <O>11       0.0268
  37 H11      -0.4399    -0.4214    -8.4046  H       1  <O>11       0.0268
  38 H12       1.0974    -1.2692    -8.7006  H       1  <O>11       0.0268
  39 H13       0.2004     0.2108    -6.2130  H       1  <O>11       0.0310
  40 H14       0.6907    -1.4929    -6.3724  H       1  <O>11       0.0310
  41 H15       7.9940     3.0230    -4.7750  H       1  <O>11       0.1495
  42 H16       9.3060     0.4930    -5.0290  H       1  <O>11       0.0528
  43 H17       9.0370     0.8060    -3.2980  H       1  <O>11       0.0528
  44 H18      11.0630     5.3590    -4.8410  H       1  <O>11       0.1921
  45 H19      14.8104     2.6757    -3.8840  H       1  <O>11       0.0625
  46 H20      15.1393     0.3539    -3.2846  H       1  <O>11       0.0618
  47 H21      13.2354    -1.1388    -3.1283  H       1  <O>11       0.0618
  48 H22      11.0053    -0.3066    -3.5684  H       1  <O>11       0.0624
@<TRIPOS>BOND
     1     1     2    2
     2     2     3   am
     3     3     4    1
     4     4     5    1
     5     5     6    1
     6     6     7    2
     7     7     8    1
     8     8     9    1
     9     9    10    1
    10    10    11    1
    11     6    11    1
    12     2    12    1
    13    12    13    2
    14    12    14   am
    15    14    15    1
    16    15    16    1
    17    16    17   ar
    18    17    18   ar
    19    18    19   ar
    20    19    20    2
    21    19    21   ar
    22    21    22   ar
    23    22    23   ar
    24    23    24   ar
    25    24    25   ar
    26    25    26   ar
    27    16    26   ar
    28    21    26   ar
    29     3    27    1
    30     4    28    1
    31     4    29    1
    32     5    30    1
    33     5    31    1
    34     7    32    1
    35     8    33    1
    36     8    34    1
    37     9    35    1
    38     9    36    1
    39    10    37    1
    40    10    38    1
    41    11    39    1
    42    11    40    1
    43    14    41    1
    44    15    42    1
    45    15    43    1
    46    18    44    1
    47    22    45    1
    48    23    46    1
    49    24    47    1
    50    25    48    1
@<TRIPOS>MOLECULE
mol20_1_25
 48 50 0 0 0
SMALL
USER_CHARGES
****
VDW energy = 81.53
@<TRIPOS>ATOM
   1 O1        5.5650     3.3479    -5.2117  O.2     1  <O>11      -0.2652
   2 C1        5.4993     2.1453    -5.0051  C.2     1  <O>11       0.2990
   3 N1        4.2920     1.5030    -5.0780  N.am    1  <O>11      -0.3073
   4 C2        4.2137     0.0668    -4.8312  C.3     1  <O>11       0.0157
   5 C3        2.7720    -0.3945    -4.9735  C.3     1  <O>11      -0.0161
   6 C4        2.2970    -0.1038    -6.3365  C.2     1  <O>11      -0.0720
   7 C5        3.1647     0.4856    -7.1794  C.2     1  <O>11      -0.0847
   8 C6        2.7579     0.8843    -8.5826  C.3     1  <O>11      -0.0345
   9 C7        1.2321     0.8848    -8.8190  C.3     1  <O>11      -0.0493
  10 C8        0.6348    -0.4062    -8.2215  C.3     1  <O>11      -0.0491
  11 C9        0.8855    -0.4755    -6.7120  C.3     1  <O>11      -0.0317
  12 C10       6.7320     1.3780    -4.6740  C.2     1  <O>11       0.2993
  13 O2        6.6660     0.1760    -4.4680  O.2     1  <O>11      -0.2652
  14 N2        7.9390     2.0200    -4.6020  N.am    1  <O>11      -0.3019
  15 C11       8.0171     3.4574    -4.8500  C.3     1  <O>11       0.0567
  16 C12       9.4272     3.9072    -4.7101  C.ar    1  <O>11       0.0863
  17 N3       10.4260     2.9809    -4.3856  N.ar    1  <O>11      -0.1737
  18 N4       11.6931     3.3903    -4.1514  N.ar    1  <O>11      -0.2424
  19 C13      11.9877     4.7091    -4.2482  C.ar    1  <O>11       0.2725
  20 O3       13.3001     5.0799    -3.8971  O.2     1  <O>11      -0.2658
  21 C14      11.0732     5.6837    -4.6671  C.ar    1  <O>11       0.0496
  22 C15      11.3935     7.0513    -4.8245  C.ar    1  <O>11      -0.0487
  23 C16      10.4253     7.9777    -5.2145  C.ar    1  <O>11      -0.0610
  24 C17       9.1202     7.5585    -5.4477  C.ar    1  <O>11      -0.0611
  25 C18       8.7834     6.2131    -5.2917  C.ar    1  <O>11      -0.0520
  26 C19       9.7543     5.2584    -4.9028  C.ar    1  <O>11       0.0118
  27 H1        3.4481     2.0292    -5.3055  H       1  <O>11       0.1492
  28 H2        4.8369    -0.4615    -5.5529  H       1  <O>11       0.0465
  29 H3        4.5656    -0.1480    -3.8221  H       1  <O>11       0.0465
  30 H4        2.7128    -1.4663    -4.7895  H       1  <O>11       0.0325
  31 H5        2.1489     0.1339    -4.2522  H       1  <O>11       0.0325
  32 H6        4.1751     0.6806    -6.8520  H       1  <O>11       0.0572
  33 H7        3.1358     1.8887    -8.7750  H       1  <O>11       0.0307
  34 H8        3.2132     0.1847    -9.2824  H       1  <O>11       0.0307
  35 H9        0.7869     1.7539    -8.3355  H       1  <O>11       0.0268
  36 H10       1.0282     0.9207    -9.8899  H       1  <O>11       0.0268
  37 H11      -0.4399    -0.4214    -8.4046  H       1  <O>11       0.0268
  38 H12       1.0974    -1.2692    -8.7006  H       1  <O>11       0.0268
  39 H13       0.2004     0.2108    -6.2130  H       1  <O>11       0.0310
  40 H14       0.6907    -1.4929    -6.3724  H       1  <O>11       0.0310
  41 H15       8.7828     1.4952    -4.3748  H       1  <O>11       0.1495
  42 H16       7.3948     3.9850    -4.1272  H       1  <O>11       0.0528
  43 H17       7.6655     3.6716    -5.8578  H       1  <O>11       0.0528
  44 H18      12.4104     2.7213    -3.9090  H       1  <O>11       0.1921
  45 H19      12.3591     7.3700    -4.6481  H       1  <O>11       0.0625
  46 H20      10.6775     8.9718    -5.3296  H       1  <O>11       0.0618
  47 H21       8.4018     8.2412    -5.7355  H       1  <O>11       0.0618
  48 H22       7.8120     5.9094    -5.4625  H       1  <O>11       0.0624
@<TRIPOS>BOND
     1     1     2    2
     2     2     3   am
     3     3     4    1
     4     4     5    1
     5     5     6    1
     6     6     7    2
     7     7     8    1
     8     8     9    1
     9     9    10    1
    10    10    11    1
    11     6    11    1
    12     2    12    1
    13    12    13    2
    14    12    14   am
    15    14    15    1
    16    15    16    1
    17    16    17   ar
    18    17    18   ar
    19    18    19   ar
    20    19    20    2
    21    19    21   ar
    22    21    22   ar
    23    22    23   ar
    24    23    24   ar
    25    24    25   ar
    26    25    26   ar
    27    16    26   ar
    28    21    26   ar
    29     3    27    1
    30     4    28    1
    31     4    29    1
    32     5    30    1
    33     5    31    1
    34     7    32    1
    35     8    33    1
    36     8    34    1
    37     9    35    1
    38     9    36    1
    39    10    37    1
    40    10    38    1
    41    11    39    1
    42    11    40    1
    43    14    41    1
    44    15    42    1
    45    15    43    1
    46    18    44    1
    47    22    45    1
    48    23    46    1
    49    24    47    1
    50    25    48    1
@<TRIPOS>MOLECULE
mol20_1_26
 48 50 0 0 0
SMALL
USER_CHARGES
****
VDW energy = 81.62
@<TRIPOS>ATOM
   1 O1        5.5650     3.3479    -5.2117  O.2     1  <O>11      -0.2652
   2 C1        5.4993     2.1453    -5.0051  C.2     1  <O>11       0.2990
   3 N1        4.2920     1.5030    -5.0780  N.am    1  <O>11      -0.3073
   4 C2        3.0840     2.2550    -5.4020  C.3     1  <O>11       0.0157
   5 C3        3.0686     3.5545    -4.6130  C.3     1  <O>11      -0.0161
   6 C4        3.0875     3.2528    -3.1719  C.2     1  <O>11      -0.0720
   7 C5        3.1143     1.9560    -2.8136  C.2     1  <O>11      -0.0847
   8 C6        3.0722     1.5359    -1.3593  C.3     1  <O>11      -0.0345
   9 C7        2.6481     2.6616    -0.3914  C.3     1  <O>11      -0.0493
  10 C8        3.4123     3.9502    -0.7604  C.3     1  <O>11      -0.0491
  11 C9        3.0764     4.3939    -2.1875  C.3     1  <O>11      -0.0317
  12 C10       6.7320     1.3780    -4.6740  C.2     1  <O>11       0.2993
  13 O2        6.6660     0.1760    -4.4680  O.2     1  <O>11      -0.2652
  14 N2        7.9390     2.0200    -4.6020  N.am    1  <O>11      -0.3019
  15 C11       9.1480     1.2670    -4.2780  C.3     1  <O>11       0.0567
  16 C12       8.9944     0.6373    -2.9400  C.ar    1  <O>11       0.0863
  17 N3        9.0641    -0.7555    -2.8122  N.ar    1  <O>11      -0.1737
  18 N4        8.8219    -1.3493    -1.6220  N.ar    1  <O>11      -0.2424
  19 C13       8.5236    -0.5775    -0.5494  C.ar    1  <O>11       0.2725
  20 O3        8.1868    -1.2621     0.6343  O.2     1  <O>11      -0.2658
  21 C14       8.5351     0.8229    -0.5690  C.ar    1  <O>11       0.0496
  22 C15       8.2809     1.6304     0.5628  C.ar    1  <O>11      -0.0487
  23 C16       8.2757     3.0228     0.4677  C.ar    1  <O>11      -0.0610
  24 C17       8.5168     3.6340    -0.7577  C.ar    1  <O>11      -0.0611
  25 C18       8.7640     2.8531    -1.8878  C.ar    1  <O>11      -0.0520
  26 C19       8.7794     1.4393    -1.8084  C.ar    1  <O>11       0.0118
  27 H1        4.2380     0.4990    -4.9050  H       1  <O>11       0.1492
  28 H2        3.0686     2.4778    -6.4690  H       1  <O>11       0.0465
  29 H3        2.2067     1.6623    -5.1424  H       1  <O>11       0.0465
  30 H4        3.9448     4.1476    -4.8711  H       1  <O>11       0.0325
  31 H5        2.1655     4.1149    -4.8540  H       1  <O>11       0.0325
  32 H6        3.1669     1.1942    -3.5772  H       1  <O>11       0.0572
  33 H7        2.3628     0.7137    -1.2621  H       1  <O>11       0.0307
  34 H8        4.0660     1.1938    -1.0733  H       1  <O>11       0.0307
  35 H9        1.5754     2.8331    -0.4767  H       1  <O>11       0.0268
  36 H10       2.8897     2.3735     0.6325  H       1  <O>11       0.0268
  37 H11       3.1327     4.7432    -0.0663  H       1  <O>11       0.0268
  38 H12       4.4838     3.7639    -0.6869  H       1  <O>11       0.0268
  39 H13       2.0831     4.8442    -2.1878  H       1  <O>11       0.0310
  40 H14       3.8105     5.1350    -2.5042  H       1  <O>11       0.0310
  41 H15       7.9940     3.0230    -4.7750  H       1  <O>11       0.1495
  42 H16      10.0037     1.9420    -4.2649  H       1  <O>11       0.0528
  43 H17       9.3060     0.4936    -5.0277  H       1  <O>11       0.0528
  44 H18       8.8643    -2.3550    -1.5340  H       1  <O>11       0.1921
  45 H19       8.0962     1.1832     1.4743  H       1  <O>11       0.0625
  46 H20       8.0932     3.5976     1.3052  H       1  <O>11       0.0618
  47 H21       8.5129     4.6633    -0.8315  H       1  <O>11       0.0618
  48 H22       8.9382     3.3130    -2.7951  H       1  <O>11       0.0624
@<TRIPOS>BOND
     1     1     2    2
     2     2     3   am
     3     3     4    1
     4     4     5    1
     5     5     6    1
     6     6     7    2
     7     7     8    1
     8     8     9    1
     9     9    10    1
    10    10    11    1
    11     6    11    1
    12     2    12    1
    13    12    13    2
    14    12    14   am
    15    14    15    1
    16    15    16    1
    17    16    17   ar
    18    17    18   ar
    19    18    19   ar
    20    19    20    2
    21    19    21   ar
    22    21    22   ar
    23    22    23   ar
    24    23    24   ar
    25    24    25   ar
    26    25    26   ar
    27    16    26   ar
    28    21    26   ar
    29     3    27    1
    30     4    28    1
    31     4    29    1
    32     5    30    1
    33     5    31    1
    34     7    32    1
    35     8    33    1
    36     8    34    1
    37     9    35    1
    38     9    36    1
    39    10    37    1
    40    10    38    1
    41    11    39    1
    42    11    40    1
    43    14    41    1
    44    15    42    1
    45    15    43    1
    46    18    44    1
    47    22    45    1
    48    23    46    1
    49    24    47    1
    50    25    48    1
@<TRIPOS>MOLECULE
mol20_1_27
 48 50 0 0 0
SMALL
USER_CHARGES
****
VDW energy = 82.23
@<TRIPOS>ATOM
   1 O1        5.5650     3.3479    -5.2117  O.2     1  <O>11      -0.2652
   2 C1        5.4993     2.1453    -5.0051  C.2     1  <O>11       0.2990
   3 N1        4.2920     1.5030    -5.0780  N.am    1  <O>11      -0.3073
   4 C2        3.0840     2.2550    -5.4020  C.3     1  <O>11       0.0157
   5 C3        1.8900     1.3140    -5.4190  C.3     1  <O>11      -0.0161
   6 C4        1.7393     0.6899    -4.0939  C.2     1  <O>11      -0.0720
   7 C5        2.6288     1.0350    -3.1449  C.2     1  <O>11      -0.0847
   8 C6        2.6015     0.4048    -1.7682  C.3     1  <O>11      -0.0345
   9 C7        1.7340    -0.8691    -1.6766  C.3     1  <O>11      -0.0493
  10 C8        0.3912    -0.6100    -2.3909  C.3     1  <O>11      -0.0491
  11 C9        0.6143    -0.2880    -3.8717  C.3     1  <O>11      -0.0317
  12 C10       6.7320     1.3780    -4.6740  C.2     1  <O>11       0.2993
  13 O2        7.8085     1.9511    -4.6078  O.2     1  <O>11      -0.2652
  14 N2        6.6579     0.0307    -4.4426  N.am    1  <O>11      -0.3019
  15 C11       7.8671    -0.7214    -4.1171  C.3     1  <O>11       0.0567
  16 C12       7.5189    -2.1522    -3.9122  C.ar    1  <O>11       0.0863
  17 N3        6.1896    -2.5726    -4.0439  N.ar    1  <O>11      -0.1737
  18 N4        5.8404    -3.8471    -3.7582  N.ar    1  <O>11      -0.2424
  19 C13       6.7970    -4.7175    -3.3550  C.ar    1  <O>11       0.2725
  20 O3        6.3518    -5.9999    -2.9799  O.2     1  <O>11      -0.2658
  21 C14       8.1611    -4.4053    -3.2970  C.ar    1  <O>11       0.0496
  22 C15       9.1674    -5.3282    -2.9323  C.ar    1  <O>11      -0.0487
  23 C16      10.5071    -4.9431    -2.8629  C.ar    1  <O>11      -0.0610
  24 C17      10.8659    -3.6306    -3.1489  C.ar    1  <O>11      -0.0611
  25 C18       9.8854    -2.7034    -3.5052  C.ar    1  <O>11      -0.0520
  26 C19       8.5223    -3.0782    -3.5868  C.ar    1  <O>11       0.0118
  27 H1        4.2380     0.4990    -4.9050  H       1  <O>11       0.1492
  28 H2        2.9250     3.0300    -4.6520  H       1  <O>11       0.0465
  29 H3        3.1960     2.7170    -6.3830  H       1  <O>11       0.0465
  30 H4        0.9880     1.8745    -5.6607  H       1  <O>11       0.0325
  31 H5        2.0490     0.5391    -6.1686  H       1  <O>11       0.0325
  32 H6        3.3809     1.7777    -3.3658  H       1  <O>11       0.0572
  33 H7        3.6236     0.1451    -1.4915  H       1  <O>11       0.0307
  34 H8        2.2098     1.1379    -1.0642  H       1  <O>11       0.0307
  35 H9        2.2512    -1.6997    -2.1561  H       1  <O>11       0.0268
  36 H10       1.5502    -1.1117    -0.6291  H       1  <O>11       0.0268
  37 H11      -0.2344    -1.4994    -2.3107  H       1  <O>11       0.0268
  38 H12      -0.1110     0.2318    -1.9138  H       1  <O>11       0.0268
  39 H13       0.8487    -1.2138    -4.3983  H       1  <O>11       0.0310
  40 H14      -0.3033     0.1378    -4.2782  H       1  <O>11       0.0310
  41 H15       5.7593    -0.4472    -4.4969  H       1  <O>11       0.1495
  42 H16       8.3089    -0.3216    -3.2044  H       1  <O>11       0.0528
  43 H17       8.5801    -0.6344    -4.9351  H       1  <O>11       0.0528
  44 H18       4.8792    -4.1460    -3.8456  H       1  <O>11       0.1921
  45 H19       8.9074    -6.3028    -2.7139  H       1  <O>11       0.0625
  46 H20      11.2299    -5.6311    -2.5998  H       1  <O>11       0.0618
  47 H21      11.8555    -3.3424    -3.0977  H       1  <O>11       0.0618
  48 H22      10.1580    -1.7298    -3.7122  H       1  <O>11       0.0624
@<TRIPOS>BOND
     1     1     2    2
     2     2     3   am
     3     3     4    1
     4     4     5    1
     5     5     6    1
     6     6     7    2
     7     7     8    1
     8     8     9    1
     9     9    10    1
    10    10    11    1
    11     6    11    1
    12     2    12    1
    13    12    13    2
    14    12    14   am
    15    14    15    1
    16    15    16    1
    17    16    17   ar
    18    17    18   ar
    19    18    19   ar
    20    19    20    2
    21    19    21   ar
    22    21    22   ar
    23    22    23   ar
    24    23    24   ar
    25    24    25   ar
    26    25    26   ar
    27    16    26   ar
    28    21    26   ar
    29     3    27    1
    30     4    28    1
    31     4    29    1
    32     5    30    1
    33     5    31    1
    34     7    32    1
    35     8    33    1
    36     8    34    1
    37     9    35    1
    38     9    36    1
    39    10    37    1
    40    10    38    1
    41    11    39    1
    42    11    40    1
    43    14    41    1
    44    15    42    1
    45    15    43    1
    46    18    44    1
    47    22    45    1
    48    23    46    1
    49    24    47    1
    50    25    48    1
@<TRIPOS>MOLECULE
mol20_1_28
 48 50 0 0 0
SMALL
USER_CHARGES
****
VDW energy = 82.50
@<TRIPOS>ATOM
   1 O1        5.5650     3.3479    -5.2117  O.2     1  <O>11      -0.2652
   2 C1        5.4993     2.1453    -5.0051  C.2     1  <O>11       0.2990
   3 N1        4.2920     1.5030    -5.0780  N.am    1  <O>11      -0.3073
   4 C2        3.0840     2.2550    -5.4020  C.3     1  <O>11       0.0157
   5 C3        1.8900     1.3140    -5.4190  C.3     1  <O>11      -0.0161
   6 C4        1.7393     0.6899    -4.0939  C.2     1  <O>11      -0.0720
   7 C5        2.6288     1.0350    -3.1449  C.2     1  <O>11      -0.0847
   8 C6        2.6015     0.4048    -1.7682  C.3     1  <O>11      -0.0345
   9 C7        1.7340    -0.8691    -1.6766  C.3     1  <O>11      -0.0493
  10 C8        0.3912    -0.6100    -2.3909  C.3     1  <O>11      -0.0491
  11 C9        0.6143    -0.2880    -3.8717  C.3     1  <O>11      -0.0317
  12 C10       6.7320     1.3780    -4.6740  C.2     1  <O>11       0.2993
  13 O2        7.8085     1.9511    -4.6078  O.2     1  <O>11      -0.2652
  14 N2        6.6579     0.0307    -4.4426  N.am    1  <O>11      -0.3019
  15 C11       7.8671    -0.7214    -4.1171  C.3     1  <O>11       0.0567
  16 C12       8.4693    -0.1746    -2.8726  C.ar    1  <O>11       0.0863
  17 N3        7.8596     0.9024    -2.2173  N.ar    1  <O>11      -0.1737
  18 N4        8.4500     1.4783    -1.1461  N.ar    1  <O>11      -0.2424
  19 C13       9.6347     0.9906    -0.7055  C.ar    1  <O>11       0.2725
  20 O3       10.2424     1.6958     0.3511  O.2     1  <O>11      -0.2658
  21 C14      10.2576    -0.1446    -1.2392  C.ar    1  <O>11       0.0496
  22 C15      11.4641    -0.6893    -0.7441  C.ar    1  <O>11      -0.0487
  23 C16      12.0500    -1.8053    -1.3434  C.ar    1  <O>11      -0.0610
  24 C17      11.4476    -2.3932    -2.4501  C.ar    1  <O>11      -0.0611
  25 C18      10.2589    -1.8658    -2.9569  C.ar    1  <O>11      -0.0520
  26 C19       9.6471    -0.7380    -2.3577  C.ar    1  <O>11       0.0118
  27 H1        4.2380     0.4990    -4.9050  H       1  <O>11       0.1492
  28 H2        2.9250     3.0300    -4.6520  H       1  <O>11       0.0465
  29 H3        3.1960     2.7170    -6.3830  H       1  <O>11       0.0465
  30 H4        0.9880     1.8745    -5.6607  H       1  <O>11       0.0325
  31 H5        2.0490     0.5391    -6.1686  H       1  <O>11       0.0325
  32 H6        3.3809     1.7777    -3.3658  H       1  <O>11       0.0572
  33 H7        3.6236     0.1451    -1.4915  H       1  <O>11       0.0307
  34 H8        2.2098     1.1379    -1.0642  H       1  <O>11       0.0307
  35 H9        2.2512    -1.6997    -2.1561  H       1  <O>11       0.0268
  36 H10       1.5502    -1.1117    -0.6291  H       1  <O>11       0.0268
  37 H11      -0.2344    -1.4994    -2.3107  H       1  <O>11       0.0268
  38 H12      -0.1110     0.2318    -1.9138  H       1  <O>11       0.0268
  39 H13       0.8487    -1.2138    -4.3983  H       1  <O>11       0.0310
  40 H14      -0.3033     0.1378    -4.2782  H       1  <O>11       0.0310
  41 H15       5.7593    -0.4472    -4.4969  H       1  <O>11       0.1495
  42 H16       8.5817    -0.6321    -4.9353  H       1  <O>11       0.0528
  43 H17       7.6136    -1.7697    -3.9681  H       1  <O>11       0.0528
  44 H18       8.0125     2.2608    -0.6799  H       1  <O>11       0.1921
  45 H19      11.9193    -0.2548     0.0739  H       1  <O>11       0.0625
  46 H20      12.9287    -2.1934    -0.9659  H       1  <O>11       0.0618
  47 H21      11.8786    -3.2180    -2.8959  H       1  <O>11       0.0618
  48 H22       9.8191    -2.3045    -3.7810  H       1  <O>11       0.0624
@<TRIPOS>BOND
     1     1     2    2
     2     2     3   am
     3     3     4    1
     4     4     5    1
     5     5     6    1
     6     6     7    2
     7     7     8    1
     8     8     9    1
     9     9    10    1
    10    10    11    1
    11     6    11    1
    12     2    12    1
    13    12    13    2
    14    12    14   am
    15    14    15    1
    16    15    16    1
    17    16    17   ar
    18    17    18   ar
    19    18    19   ar
    20    19    20    2
    21    19    21   ar
    22    21    22   ar
    23    22    23   ar
    24    23    24   ar
    25    24    25   ar
    26    25    26   ar
    27    16    26   ar
    28    21    26   ar
    29     3    27    1
    30     4    28    1
    31     4    29    1
    32     5    30    1
    33     5    31    1
    34     7    32    1
    35     8    33    1
    36     8    34    1
    37     9    35    1
    38     9    36    1
    39    10    37    1
    40    10    38    1
    41    11    39    1
    42    11    40    1
    43    14    41    1
    44    15    42    1
    45    15    43    1
    46    18    44    1
    47    22    45    1
    48    23    46    1
    49    24    47    1
    50    25    48    1
@<TRIPOS>MOLECULE
mol20_1_29
 48 50 0 0 0
SMALL
USER_CHARGES
****
VDW energy = 83.35
@<TRIPOS>ATOM
   1 O1        5.5650     3.3479    -5.2117  O.2     1  <O>11      -0.2652
   2 C1        5.4993     2.1453    -5.0051  C.2     1  <O>11       0.2990
   3 N1        4.2920     1.5030    -5.0780  N.am    1  <O>11      -0.3073
   4 C2        4.2137     0.0668    -4.8312  C.3     1  <O>11       0.0157
   5 C3        2.7720    -0.3945    -4.9735  C.3     1  <O>11      -0.0161
   6 C4        2.6945    -1.8436    -4.7242  C.2     1  <O>11      -0.0720
   7 C5        3.8424    -2.4809    -4.4292  C.2     1  <O>11      -0.0847
   8 C6        3.8834    -3.9798    -4.2175  C.3     1  <O>11      -0.0345
   9 C7        2.6192    -4.7190    -4.7069  C.3     1  <O>11      -0.0493
  10 C8        1.3730    -3.9450    -4.2289  C.3     1  <O>11      -0.0491
  11 C9        1.3546    -2.5281    -4.8107  C.3     1  <O>11      -0.0317
  12 C10       6.7320     1.3780    -4.6740  C.2     1  <O>11       0.2993
  13 O2        6.6660     0.1760    -4.4680  O.2     1  <O>11      -0.2652
  14 N2        7.9390     2.0200    -4.6020  N.am    1  <O>11      -0.3019
  15 C11       8.0171     3.4574    -4.8500  C.3     1  <O>11       0.0567
  16 C12       7.1674     4.1759    -3.8641  C.ar    1  <O>11       0.0863
  17 N3        6.4552     3.4530    -2.8990  N.ar    1  <O>11      -0.1737
  18 N4        5.5974     4.0815    -2.0641  N.ar    1  <O>11      -0.2424
  19 C13       5.4454     5.4240    -2.1642  C.ar    1  <O>11       0.2725
  20 O3        4.4665     6.0021    -1.3331  O.2     1  <O>11      -0.2658
  21 C14       6.1943     6.2312    -3.0298  C.ar    1  <O>11       0.0496
  22 C15       6.0787     7.6383    -3.0951  C.ar    1  <O>11      -0.0487
  23 C16       6.8324     8.3815    -4.0046  C.ar    1  <O>11      -0.0610
  24 C17       7.7089     7.7350    -4.8690  C.ar    1  <O>11      -0.0611
  25 C18       7.8323     6.3455    -4.8234  C.ar    1  <O>11      -0.0520
  26 C19       7.0802     5.5762    -3.9027  C.ar    1  <O>11       0.0118
  27 H1        3.4481     2.0292    -5.3055  H       1  <O>11       0.1492
  28 H2        4.8369    -0.4615    -5.5529  H       1  <O>11       0.0465
  29 H3        4.5656    -0.1480    -3.8221  H       1  <O>11       0.0465
  30 H4        2.1485     0.1317    -4.2519  H       1  <O>11       0.0325
  31 H5        2.4204    -0.1811    -5.9827  H       1  <O>11       0.0325
  32 H6        4.7575    -1.9145    -4.3406  H       1  <O>11       0.0572
  33 H7        4.7439    -4.3771    -4.7564  H       1  <O>11       0.0307
  34 H8        4.0020    -4.1715    -3.1519  H       1  <O>11       0.0307
  35 H9        2.6241    -4.7719    -5.7952  H       1  <O>11       0.0268
  36 H10       2.6033    -5.7285    -4.2941  H       1  <O>11       0.0268
  37 H11       0.4768    -4.4743    -4.5533  H       1  <O>11       0.0268
  38 H12       1.3854    -3.8843    -3.1406  H       1  <O>11       0.0268
  39 H13       1.0601    -2.5856    -5.8591  H       1  <O>11       0.0310
  40 H14       0.6238    -1.9348    -4.2608  H       1  <O>11       0.0310
  41 H15       8.7828     1.4952    -4.3748  H       1  <O>11       0.1495
  42 H16       7.6628     3.6718    -5.8582  H       1  <O>11       0.0528
  43 H17       9.0495     3.7878    -4.7491  H       1  <O>11       0.0528
  44 H18       5.0781     3.5569    -1.3742  H       1  <O>11       0.1921
  45 H19       5.4263     8.1240    -2.4598  H       1  <O>11       0.0625
  46 H20       6.7395     9.4089    -4.0356  H       1  <O>11       0.0618
  47 H21       8.2671     8.2816    -5.5432  H       1  <O>11       0.0618
  48 H22       8.4817     5.8716    -5.4705  H       1  <O>11       0.0624
@<TRIPOS>BOND
     1     1     2    2
     2     2     3   am
     3     3     4    1
     4     4     5    1
     5     5     6    1
     6     6     7    2
     7     7     8    1
     8     8     9    1
     9     9    10    1
    10    10    11    1
    11     6    11    1
    12     2    12    1
    13    12    13    2
    14    12    14   am
    15    14    15    1
    16    15    16    1
    17    16    17   ar
    18    17    18   ar
    19    18    19   ar
    20    19    20    2
    21    19    21   ar
    22    21    22   ar
    23    22    23   ar
    24    23    24   ar
    25    24    25   ar
    26    25    26   ar
    27    16    26   ar
    28    21    26   ar
    29     3    27    1
    30     4    28    1
    31     4    29    1
    32     5    30    1
    33     5    31    1
    34     7    32    1
    35     8    33    1
    36     8    34    1
    37     9    35    1
    38     9    36    1
    39    10    37    1
    40    10    38    1
    41    11    39    1
    42    11    40    1
    43    14    41    1
    44    15    42    1
    45    15    43    1
    46    18    44    1
    47    22    45    1
    48    23    46    1
    49    24    47    1
    50    25    48    1
@<TRIPOS>MOLECULE
mol20_1_30
 48 50 0 0 0
SMALL
USER_CHARGES
****
VDW energy = 83.35
@<TRIPOS>ATOM
   1 O1        5.5650     3.3479    -5.2117  O.2     1  <O>11      -0.2652
   2 C1        5.4993     2.1453    -5.0051  C.2     1  <O>11       0.2990
   3 N1        4.2920     1.5030    -5.0780  N.am    1  <O>11      -0.3073
   4 C2        3.0840     2.2550    -5.4020  C.3     1  <O>11       0.0157
   5 C3        3.0686     3.5545    -4.6130  C.3     1  <O>11      -0.0161
   6 C4        1.8493     4.3121    -4.9409  C.2     1  <O>11      -0.0720
   7 C5        1.0019     3.7622    -5.8299  C.2     1  <O>11      -0.0847
   8 C6       -0.2484     4.4862    -6.2836  C.3     1  <O>11      -0.0345
   9 C7       -0.2693     5.9887    -5.9282  C.3     1  <O>11      -0.0493
  10 C8        0.1872     6.1609    -4.4645  C.3     1  <O>11      -0.0491
  11 C9        1.6164     5.6436    -4.2743  C.3     1  <O>11      -0.0317
  12 C10       6.7320     1.3780    -4.6740  C.2     1  <O>11       0.2993
  13 O2        7.8085     1.9511    -4.6078  O.2     1  <O>11      -0.2652
  14 N2        6.6579     0.0307    -4.4426  N.am    1  <O>11      -0.3019
  15 C11       7.8671    -0.7214    -4.1171  C.3     1  <O>11       0.0567
  16 C12       8.8401    -0.6007    -5.2347  C.ar    1  <O>11       0.0863
  17 N3        8.5111     0.1536    -6.3677  N.ar    1  <O>11      -0.1737
  18 N4        9.3398     0.1868    -7.4355  N.ar    1  <O>11      -0.2424
  19 C13      10.5011    -0.5093    -7.3899  C.ar    1  <O>11       0.2725
  20 O3       11.2706    -0.5118    -8.5694  O.2     1  <O>11      -0.2658
  21 C14      10.9509    -1.2025    -6.2591  C.ar    1  <O>11       0.0496
  22 C15      12.1886    -1.8813    -6.1898  C.ar    1  <O>11      -0.0487
  23 C16      12.5629    -2.5813    -5.0418  C.ar    1  <O>11      -0.0610
  24 C17      11.7076    -2.6226    -3.9464  C.ar    1  <O>11      -0.0611
  25 C18      10.4786    -1.9632    -3.9983  C.ar    1  <O>11      -0.0520
  26 C19      10.0854    -1.2430    -5.1523  C.ar    1  <O>11       0.0118
  27 H1        4.2380     0.4990    -4.9050  H       1  <O>11       0.1492
  28 H2        3.0686     2.4778    -6.4690  H       1  <O>11       0.0465
  29 H3        2.2067     1.6623    -5.1424  H       1  <O>11       0.0465
  30 H4        3.0825     3.3332    -3.5467  H       1  <O>11       0.0325
  31 H5        3.9448     4.1478    -4.8734  H       1  <O>11       0.0325
  32 H6        1.2144     2.7827    -6.2316  H       1  <O>11       0.0572
  33 H7       -0.3253     4.3883    -7.3667  H       1  <O>11       0.0307
  34 H8       -1.1084     4.0107    -5.8139  H       1  <O>11       0.0307
  35 H9        0.4055     6.5309    -6.5899  H       1  <O>11       0.0268
  36 H10      -1.2818     6.3776    -6.0438  H       1  <O>11       0.0268
  37 H11       0.1537     7.2183    -4.2012  H       1  <O>11       0.0268
  38 H12      -0.4847     5.6025    -3.8124  H       1  <O>11       0.0268
  39 H13       2.3096     6.3710    -4.6981  H       1  <O>11       0.0310
  40 H14       1.8098     5.5377    -3.2067  H       1  <O>11       0.0310
  41 H15       5.7593    -0.4472    -4.4969  H       1  <O>11       0.1495
  42 H16       7.6131    -1.7711    -3.9693  H       1  <O>11       0.0528
  43 H17       8.3089    -0.3221    -3.2057  H       1  <O>11       0.0528
  44 H18       9.0964     0.7249    -8.2554  H       1  <O>11       0.1921
  45 H19      12.8260    -1.8590    -7.0011  H       1  <O>11       0.0625
  46 H20      13.4726    -3.0674    -5.0062  H       1  <O>11       0.0618
  47 H21      11.9811    -3.1399    -3.0963  H       1  <O>11       0.0618
  48 H22       9.8468    -2.0012    -3.1832  H       1  <O>11       0.0624
@<TRIPOS>BOND
     1     1     2    2
     2     2     3   am
     3     3     4    1
     4     4     5    1
     5     5     6    1
     6     6     7    2
     7     7     8    1
     8     8     9    1
     9     9    10    1
    10    10    11    1
    11     6    11    1
    12     2    12    1
    13    12    13    2
    14    12    14   am
    15    14    15    1
    16    15    16    1
    17    16    17   ar
    18    17    18   ar
    19    18    19   ar
    20    19    20    2
    21    19    21   ar
    22    21    22   ar
    23    22    23   ar
    24    23    24   ar
    25    24    25   ar
    26    25    26   ar
    27    16    26   ar
    28    21    26   ar
    29     3    27    1
    30     4    28    1
    31     4    29    1
    32     5    30    1
    33     5    31    1
    34     7    32    1
    35     8    33    1
    36     8    34    1
    37     9    35    1
    38     9    36    1
    39    10    37    1
    40    10    38    1
    41    11    39    1
    42    11    40    1
    43    14    41    1
    44    15    42    1
    45    15    43    1
    46    18    44    1
    47    22    45    1
    48    23    46    1
    49    24    47    1
    50    25    48    1
