@<TRIPOS>MOLECULE
mol21_1_1
 51 54 0 0 0
SMALL
USER_CHARGES
****
VDW energy = -9.49
@<TRIPOS>ATOM
   1 C1       -6.4677    -2.4869    -8.1037  C.3     1  <O>11       0.0368
   2 O1       -6.4969    -1.0912    -8.3528  O.3     1  <O>11      -0.3797
   3 C2       -7.2210    -0.4410    -7.3210  C.3     1  <O>11       0.0612
   4 C3       -8.6930    -0.3725    -7.7120  C.3     1  <O>11      -0.0107
   5 C4       -8.8937     0.5213    -8.9294  C.3     1  <O>11       0.0173
   6 N1       -8.3432     1.8801    -8.6983  N.am    1  <O>11      -0.2973
   7 C5       -9.0240     3.0512    -8.8086  C.2     1  <O>11       0.2494
   8 O2       -8.4556     4.1106    -8.5926  O.2     1  <O>11      -0.2699
   9 C6      -10.4309     3.0427    -9.1859  C.ar    1  <O>11       0.0723
  10 C7      -10.8036     3.1107   -10.5392  C.ar    1  <O>11      -0.0433
  11 C8      -12.1560     3.1141   -10.8997  C.ar    1  <O>11      -0.0406
  12 C9      -12.5345     3.1894   -12.3239  C.3     1  <O>11       0.0171
  13 C10     -12.6441     1.8153   -12.8807  C.ar    1  <O>11       0.0736
  14 N2      -12.7320     0.7168   -12.0176  N.ar    1  <O>11      -0.1750
  15 N3      -12.7280    -0.5443   -12.5053  N.ar    1  <O>11      -0.2425
  16 C11     -12.6486    -0.7319   -13.8452  C.ar    1  <O>11       0.2725
  17 O3      -12.5488    -2.0673   -14.2795  O.2     1  <O>11      -0.2658
  18 C12     -12.6612     0.3109   -14.7808  C.ar    1  <O>11       0.0496
  19 C13     -12.6382     0.1182   -16.1811  C.ar    1  <O>11      -0.0487
  20 C14     -12.6202     1.2034   -17.0571  C.ar    1  <O>11      -0.0610
  21 C15     -12.6186     2.4988   -16.5546  C.ar    1  <O>11      -0.0611
  22 C16     -12.6341     2.7103   -15.1747  C.ar    1  <O>11      -0.0521
  23 C17     -12.6601     1.6226   -14.2720  C.ar    1  <O>11       0.0106
  24 C18     -13.1462     3.0463    -9.9155  C.ar    1  <O>11      -0.0555
  25 C19     -12.7753     2.9723    -8.5691  C.ar    1  <O>11      -0.0254
  26 C20     -11.4292     2.9665    -8.1993  C.ar    1  <O>11       0.1355
  27 F1      -11.0659     2.8876    -6.8796  F       1  <O>11      -0.2047
  28 C21      -6.9081     1.8608    -8.3137  C.3     1  <O>11       0.0173
  29 C22      -6.6463     0.9562    -7.1138  C.3     1  <O>11      -0.0107
  30 H1       -5.9113    -2.9860    -8.8970  H       1  <O>11       0.0524
  31 H2       -7.4868    -2.8725    -8.0766  H       1  <O>11       0.0524
  32 H3       -5.9825    -2.6749    -7.1459  H       1  <O>11       0.0524
  33 H4       -7.1229    -1.0075    -6.3955  H       1  <O>11       0.0597
  34 H5       -9.0474    -1.3773    -7.9446  H       1  <O>11       0.0305
  35 H6       -9.2653     0.0308    -6.8759  H       1  <O>11       0.0305
  36 H7       -8.3868     0.0740    -9.7845  H       1  <O>11       0.0465
  37 H8       -9.9598     0.6006    -9.1396  H       1  <O>11       0.0465
  38 H9      -11.7751     3.7445   -12.8736  H       1  <O>11       0.0377
  39 H10     -13.4955     3.6969   -12.4187  H       1  <O>11       0.0377
  40 H11     -12.7823    -1.3355   -11.8779  H       1  <O>11       0.1921
  41 H12      -6.3238     1.5002    -9.1593  H       1  <O>11       0.0465
  42 H13      -6.5986     2.8754    -8.0629  H       1  <O>11       0.0465
  43 H14      -5.5698     0.8763    -6.9608  H       1  <O>11       0.0305
  44 H15      -7.1072     1.3993    -6.2310  H       1  <O>11       0.0305
  45 H16     -10.0769     3.1585   -11.2704  H       1  <O>11       0.0629
  46 H17     -12.6348    -0.8411   -16.5614  H       1  <O>11       0.0625
  47 H18     -12.6081     1.0445   -18.0767  H       1  <O>11       0.0618
  48 H19     -12.6059     3.3035   -17.2006  H       1  <O>11       0.0618
  49 H20     -12.6265     3.6750   -14.8081  H       1  <O>11       0.0624
  50 H21     -14.1437     3.0508   -10.1804  H       1  <O>11       0.0621
  51 H22     -13.5048     2.9213    -7.8409  H       1  <O>11       0.0646
@<TRIPOS>BOND
     1     1     2    1
     2     2     3    1
     3     3     4    1
     4     4     5    1
     5     5     6    1
     6     6     7   am
     7     7     8    2
     8     7     9    1
     9     9    10   ar
    10    10    11   ar
    11    11    12    1
    12    12    13    1
    13    13    14   ar
    14    14    15   ar
    15    15    16   ar
    16    16    17    2
    17    16    18   ar
    18    18    19   ar
    19    19    20   ar
    20    20    21   ar
    21    21    22   ar
    22    22    23   ar
    23    13    23   ar
    24    18    23   ar
    25    11    24   ar
    26    24    25   ar
    27    25    26   ar
    28     9    26   ar
    29    26    27    1
    30     6    28    1
    31    28    29    1
    32     3    29    1
    33     1    30    1
    34     1    31    1
    35     1    32    1
    36     3    33    1
    37     4    34    1
    38     4    35    1
    39     5    36    1
    40     5    37    1
    41    12    38    1
    42    12    39    1
    43    15    40    1
    44    28    41    1
    45    28    42    1
    46    29    43    1
    47    29    44    1
    48    10    45    1
    49    19    46    1
    50    20    47    1
    51    21    48    1
    52    22    49    1
    53    24    50    1
    54    25    51    1
@<TRIPOS>MOLECULE
mol21_1_2
 51 54 0 0 0
SMALL
USER_CHARGES
****
VDW energy = -8.09
@<TRIPOS>ATOM
   1 C1       -6.4677    -2.4869    -8.1037  C.3     1  <O>11       0.0368
   2 O1       -6.4969    -1.0912    -8.3528  O.3     1  <O>11      -0.3797
   3 C2       -7.2210    -0.4410    -7.3210  C.3     1  <O>11       0.0612
   4 C3       -8.6930    -0.3725    -7.7120  C.3     1  <O>11      -0.0107
   5 C4       -8.8937     0.5213    -8.9294  C.3     1  <O>11       0.0173
   6 N1       -8.3432     1.8801    -8.6983  N.am    1  <O>11      -0.2973
   7 C5       -9.0240     3.0512    -8.8086  C.2     1  <O>11       0.2494
   8 O2       -8.4556     4.1106    -8.5926  O.2     1  <O>11      -0.2699
   9 C6      -10.4309     3.0427    -9.1859  C.ar    1  <O>11       0.0723
  10 C7      -10.8036     3.1107   -10.5392  C.ar    1  <O>11      -0.0433
  11 C8      -12.1560     3.1141   -10.8997  C.ar    1  <O>11      -0.0406
  12 C9      -12.5345     3.1894   -12.3239  C.3     1  <O>11       0.0171
  13 C10     -11.9994     4.4450   -12.9131  C.ar    1  <O>11       0.0736
  14 N2      -10.7255     4.4570   -13.4930  N.ar    1  <O>11      -0.1750
  15 N3      -10.1830     5.6122   -13.9396  N.ar    1  <O>11      -0.2425
  16 C11     -10.8947     6.7601   -13.8285  C.ar    1  <O>11       0.2725
  17 O3      -10.2340     7.9398   -14.2207  O.2     1  <O>11      -0.2658
  18 C12     -12.2126     6.8182   -13.3565  C.ar    1  <O>11       0.0496
  19 C13     -12.9795     8.0040   -13.2941  C.ar    1  <O>11      -0.0487
  20 C14     -14.2770     7.9964   -12.7824  C.ar    1  <O>11      -0.0610
  21 C15     -14.8313     6.8099   -12.3185  C.ar    1  <O>11      -0.0611
  22 C16     -14.0877     5.6291   -12.3650  C.ar    1  <O>11      -0.0521
  23 C17     -12.7740     5.6165   -12.8871  C.ar    1  <O>11       0.0106
  24 C18     -13.1462     3.0463    -9.9155  C.ar    1  <O>11      -0.0555
  25 C19     -12.7753     2.9723    -8.5691  C.ar    1  <O>11      -0.0254
  26 C20     -11.4292     2.9665    -8.1993  C.ar    1  <O>11       0.1355
  27 F1      -11.0659     2.8876    -6.8796  F       1  <O>11      -0.2047
  28 C21      -6.9081     1.8608    -8.3137  C.3     1  <O>11       0.0173
  29 C22      -6.6463     0.9562    -7.1138  C.3     1  <O>11      -0.0107
  30 H1       -5.9113    -2.9860    -8.8970  H       1  <O>11       0.0524
  31 H2       -7.4868    -2.8725    -8.0766  H       1  <O>11       0.0524
  32 H3       -5.9825    -2.6749    -7.1459  H       1  <O>11       0.0524
  33 H4       -7.1229    -1.0075    -6.3955  H       1  <O>11       0.0597
  34 H5       -9.0474    -1.3773    -7.9446  H       1  <O>11       0.0305
  35 H6       -9.2653     0.0308    -6.8759  H       1  <O>11       0.0305
  36 H7       -8.3868     0.0740    -9.7845  H       1  <O>11       0.0465
  37 H8       -9.9598     0.6006    -9.1396  H       1  <O>11       0.0465
  38 H9      -13.6204     3.1803   -12.4131  H       1  <O>11       0.0377
  39 H10     -12.1190     2.3328   -12.8565  H       1  <O>11       0.0377
  40 H11      -9.2586     5.6183   -14.3495  H       1  <O>11       0.1921
  41 H12      -6.3238     1.5002    -9.1593  H       1  <O>11       0.0465
  42 H13      -6.5986     2.8754    -8.0629  H       1  <O>11       0.0465
  43 H14      -5.5698     0.8763    -6.9608  H       1  <O>11       0.0305
  44 H15      -7.1072     1.3993    -6.2310  H       1  <O>11       0.0305
  45 H16     -10.0769     3.1585   -11.2704  H       1  <O>11       0.0629
  46 H17     -12.5728     8.8899   -13.6328  H       1  <O>11       0.0625
  47 H18     -14.8244     8.8706   -12.7485  H       1  <O>11       0.0618
  48 H19     -15.7913     6.8013   -11.9400  H       1  <O>11       0.0618
  49 H20     -14.5032     4.7525   -12.0129  H       1  <O>11       0.0624
  50 H21     -14.1437     3.0508   -10.1804  H       1  <O>11       0.0621
  51 H22     -13.5048     2.9213    -7.8409  H       1  <O>11       0.0646
@<TRIPOS>BOND
     1     1     2    1
     2     2     3    1
     3     3     4    1
     4     4     5    1
     5     5     6    1
     6     6     7   am
     7     7     8    2
     8     7     9    1
     9     9    10   ar
    10    10    11   ar
    11    11    12    1
    12    12    13    1
    13    13    14   ar
    14    14    15   ar
    15    15    16   ar
    16    16    17    2
    17    16    18   ar
    18    18    19   ar
    19    19    20   ar
    20    20    21   ar
    21    21    22   ar
    22    22    23   ar
    23    13    23   ar
    24    18    23   ar
    25    11    24   ar
    26    24    25   ar
    27    25    26   ar
    28     9    26   ar
    29    26    27    1
    30     6    28    1
    31    28    29    1
    32     3    29    1
    33     1    30    1
    34     1    31    1
    35     1    32    1
    36     3    33    1
    37     4    34    1
    38     4    35    1
    39     5    36    1
    40     5    37    1
    41    12    38    1
    42    12    39    1
    43    15    40    1
    44    28    41    1
    45    28    42    1
    46    29    43    1
    47    29    44    1
    48    10    45    1
    49    19    46    1
    50    20    47    1
    51    21    48    1
    52    22    49    1
    53    24    50    1
    54    25    51    1
@<TRIPOS>MOLECULE
mol21_1_3
 51 54 0 0 0
SMALL
USER_CHARGES
****
VDW energy = -7.15
@<TRIPOS>ATOM
   1 C1       -6.4677    -2.4869    -8.1037  C.3     1  <O>11       0.0368
   2 O1       -6.4969    -1.0912    -8.3528  O.3     1  <O>11      -0.3797
   3 C2       -7.2210    -0.4410    -7.3210  C.3     1  <O>11       0.0612
   4 C3       -7.6334     0.9465    -7.7996  C.3     1  <O>11      -0.0107
   5 C4       -6.4144     1.8341    -8.0167  C.3     1  <O>11       0.0173
   6 N1       -5.5849     1.9221    -6.7891  N.am    1  <O>11      -0.2973
   7 C5       -5.2205     3.0631    -6.1470  C.2     1  <O>11       0.2494
   8 O2       -4.5307     3.0037    -5.1406  O.2     1  <O>11      -0.2699
   9 C6       -5.6515     4.3566    -6.6598  C.ar    1  <O>11       0.0723
  10 C7       -4.8602     5.0508    -7.5908  C.ar    1  <O>11      -0.0433
  11 C8       -5.2698     6.2989    -8.0740  C.ar    1  <O>11      -0.0406
  12 C9       -4.4284     7.0194    -9.0487  C.3     1  <O>11       0.0171
  13 C10      -4.8247     6.6312   -10.4279  C.ar    1  <O>11       0.0736
  14 N2       -6.0480     5.9874   -10.6481  N.ar    1  <O>11      -0.1750
  15 N3       -6.3767     5.5358   -11.8795  N.ar    1  <O>11      -0.2425
  16 C11      -5.5091     5.7246   -12.9034  C.ar    1  <O>11       0.2725
  17 O3       -5.8674     5.1439   -14.1348  O.2     1  <O>11      -0.2658
  18 C12      -4.3143     6.4474   -12.7901  C.ar    1  <O>11       0.0496
  19 C13      -3.4352     6.6975   -13.8685  C.ar    1  <O>11      -0.0487
  20 C14      -2.2442     7.3982   -13.6790  C.ar    1  <O>11      -0.0610
  21 C15      -1.9047     7.8567   -12.4122  C.ar    1  <O>11      -0.0611
  22 C16      -2.7561     7.6141   -11.3327  C.ar    1  <O>11      -0.0521
  23 C17      -3.9708     6.9122   -11.5073  C.ar    1  <O>11       0.0106
  24 C18      -6.4717     6.8624    -7.6362  C.ar    1  <O>11      -0.0555
  25 C19      -7.2624     6.1688    -6.7145  C.ar    1  <O>11      -0.0254
  26 C20      -6.8634     4.9226    -6.2278  C.ar    1  <O>11       0.1355
  27 F1       -7.6420     4.2400    -5.3290  F       1  <O>11      -0.2047
  28 C21      -5.1600     0.5901    -6.2862  C.3     1  <O>11       0.0173
  29 C22      -6.3429    -0.3502    -6.0776  C.3     1  <O>11      -0.0107
  30 H1       -5.9113    -2.9860    -8.8970  H       1  <O>11       0.0524
  31 H2       -7.4868    -2.8725    -8.0766  H       1  <O>11       0.0524
  32 H3       -5.9825    -2.6749    -7.1459  H       1  <O>11       0.0524
  33 H4       -8.1145    -1.0180    -7.0848  H       1  <O>11       0.0597
  34 H5       -8.1783     0.8522    -8.7396  H       1  <O>11       0.0305
  35 H6       -8.2787     1.4049    -7.0495  H       1  <O>11       0.0305
  36 H7       -5.8113     1.4164    -8.8230  H       1  <O>11       0.0465
  37 H8       -6.7479     2.8339    -8.2929  H       1  <O>11       0.0465
  38 H9       -3.3820     6.7633    -8.8859  H       1  <O>11       0.0377
  39 H10      -4.5634     8.0944    -8.9215  H       1  <O>11       0.0377
  40 H11      -7.2574     5.0629   -12.0326  H       1  <O>11       0.1921
  41 H12      -4.4797     0.1432    -7.0100  H       1  <O>11       0.0465
  42 H13      -4.6446     0.7226    -5.3349  H       1  <O>11       0.0465
  43 H14      -5.9649    -1.3445    -5.8387  H       1  <O>11       0.0305
  44 H15      -6.9448     0.0193    -5.2475  H       1  <O>11       0.0305
  45 H16      -3.9730     4.6386    -7.9195  H       1  <O>11       0.0629
  46 H17      -3.6786     6.3560   -14.8114  H       1  <O>11       0.0625
  47 H18      -1.6162     7.5757   -14.4785  H       1  <O>11       0.0618
  48 H19      -1.0244     8.3761   -12.2694  H       1  <O>11       0.0618
  49 H20      -2.4949     7.9521   -10.3932  H       1  <O>11       0.0624
  50 H21      -6.7734     7.7836    -7.9905  H       1  <O>11       0.0621
  51 H22      -8.1505     6.5827    -6.3905  H       1  <O>11       0.0646
@<TRIPOS>BOND
     1     1     2    1
     2     2     3    1
     3     3     4    1
     4     4     5    1
     5     5     6    1
     6     6     7   am
     7     7     8    2
     8     7     9    1
     9     9    10   ar
    10    10    11   ar
    11    11    12    1
    12    12    13    1
    13    13    14   ar
    14    14    15   ar
    15    15    16   ar
    16    16    17    2
    17    16    18   ar
    18    18    19   ar
    19    19    20   ar
    20    20    21   ar
    21    21    22   ar
    22    22    23   ar
    23    13    23   ar
    24    18    23   ar
    25    11    24   ar
    26    24    25   ar
    27    25    26   ar
    28     9    26   ar
    29    26    27    1
    30     6    28    1
    31    28    29    1
    32     3    29    1
    33     1    30    1
    34     1    31    1
    35     1    32    1
    36     3    33    1
    37     4    34    1
    38     4    35    1
    39     5    36    1
    40     5    37    1
    41    12    38    1
    42    12    39    1
    43    15    40    1
    44    28    41    1
    45    28    42    1
    46    29    43    1
    47    29    44    1
    48    10    45    1
    49    19    46    1
    50    20    47    1
    51    21    48    1
    52    22    49    1
    53    24    50    1
    54    25    51    1
@<TRIPOS>MOLECULE
mol21_1_4
 51 54 0 0 0
SMALL
USER_CHARGES
****
VDW energy = -5.91
@<TRIPOS>ATOM
   1 C1       -6.4677    -2.4869    -8.1037  C.3     1  <O>11       0.0368
   2 O1       -6.4969    -1.0912    -8.3528  O.3     1  <O>11      -0.3797
   3 C2       -7.2210    -0.4410    -7.3210  C.3     1  <O>11       0.0612
   4 C3       -8.6930    -0.3725    -7.7120  C.3     1  <O>11      -0.0107
   5 C4       -8.8937     0.5213    -8.9294  C.3     1  <O>11       0.0173
   6 N1       -8.3432     1.8801    -8.6983  N.am    1  <O>11      -0.2973
   7 C5       -9.0240     3.0512    -8.8086  C.2     1  <O>11       0.2494
   8 O2      -10.2038     3.0441    -9.1252  O.2     1  <O>11      -0.2699
   9 C6       -8.3470     4.3142    -8.5478  C.ar    1  <O>11       0.0723
  10 C7       -8.3317     4.8574    -7.2518  C.ar    1  <O>11      -0.0433
  11 C8       -7.6907     6.0769    -7.0048  C.ar    1  <O>11      -0.0406
  12 C9       -7.6846     6.6383    -5.6403  C.3     1  <O>11       0.0171
  13 C10      -9.0836     6.8672    -5.1925  C.ar    1  <O>11       0.0736
  14 N2       -9.7763     5.8538    -4.5199  N.ar    1  <O>11      -0.1750
  15 N3      -11.0806     6.0078    -4.1980  N.ar    1  <O>11      -0.2425
  16 C11     -11.7077     7.1635    -4.5259  C.ar    1  <O>11       0.2725
  17 O3      -13.0874     7.2198    -4.2518  O.2     1  <O>11      -0.2658
  18 C12     -11.0624     8.2638    -5.1055  C.ar    1  <O>11       0.0496
  19 C13     -11.6988     9.4924    -5.3951  C.ar    1  <O>11      -0.0487
  20 C14     -11.0037    10.5378    -6.0030  C.ar    1  <O>11      -0.0610
  21 C15      -9.6652    10.3763    -6.3384  C.ar    1  <O>11      -0.0611
  22 C16      -9.0202     9.1682    -6.0670  C.ar    1  <O>11      -0.0521
  23 C17      -9.7068     8.1005    -5.4447  C.ar    1  <O>11       0.0106
  24 C18      -7.0577     6.7620    -8.0459  C.ar    1  <O>11      -0.0555
  25 C19      -7.0675     6.2185    -9.3344  C.ar    1  <O>11      -0.0254
  26 C20      -7.7026     5.0020    -9.5907  C.ar    1  <O>11       0.1355
  27 F1       -7.7065     4.4664   -10.8529  F       1  <O>11      -0.2047
  28 C21      -6.9081     1.8608    -8.3137  C.3     1  <O>11       0.0173
  29 C22      -6.6463     0.9562    -7.1138  C.3     1  <O>11      -0.0107
  30 H1       -5.9113    -2.9860    -8.8970  H       1  <O>11       0.0524
  31 H2       -7.4868    -2.8725    -8.0766  H       1  <O>11       0.0524
  32 H3       -5.9825    -2.6749    -7.1459  H       1  <O>11       0.0524
  33 H4       -7.1229    -1.0075    -6.3955  H       1  <O>11       0.0597
  34 H5       -9.0474    -1.3773    -7.9446  H       1  <O>11       0.0305
  35 H6       -9.2653     0.0308    -6.8759  H       1  <O>11       0.0305
  36 H7       -8.3868     0.0740    -9.7845  H       1  <O>11       0.0465
  37 H8       -9.9598     0.6006    -9.1396  H       1  <O>11       0.0465
  38 H9       -7.1432     7.5838    -5.6380  H       1  <O>11       0.0377
  39 H10      -7.1962     5.9383    -4.9610  H       1  <O>11       0.0377
  40 H11     -11.5801     5.2696    -3.7203  H       1  <O>11       0.1921
  41 H12      -6.3238     1.5002    -9.1593  H       1  <O>11       0.0465
  42 H13      -6.5986     2.8754    -8.0629  H       1  <O>11       0.0465
  43 H14      -5.5698     0.8763    -6.9608  H       1  <O>11       0.0305
  44 H15      -7.1072     1.3993    -6.2310  H       1  <O>11       0.0305
  45 H16      -8.7952     4.3548    -6.4787  H       1  <O>11       0.0629
  46 H17     -12.6940     9.6180    -5.1528  H       1  <O>11       0.0625
  47 H18     -11.4829    11.4296    -6.2031  H       1  <O>11       0.0618
  48 H19      -9.1484    11.1484    -6.7876  H       1  <O>11       0.0618
  49 H20      -8.0275     9.0528    -6.3245  H       1  <O>11       0.0624
  50 H21      -6.5866     7.6622    -7.8650  H       1  <O>11       0.0621
  51 H22      -6.6001     6.7223   -10.1043  H       1  <O>11       0.0646
@<TRIPOS>BOND
     1     1     2    1
     2     2     3    1
     3     3     4    1
     4     4     5    1
     5     5     6    1
     6     6     7   am
     7     7     8    2
     8     7     9    1
     9     9    10   ar
    10    10    11   ar
    11    11    12    1
    12    12    13    1
    13    13    14   ar
    14    14    15   ar
    15    15    16   ar
    16    16    17    2
    17    16    18   ar
    18    18    19   ar
    19    19    20   ar
    20    20    21   ar
    21    21    22   ar
    22    22    23   ar
    23    13    23   ar
    24    18    23   ar
    25    11    24   ar
    26    24    25   ar
    27    25    26   ar
    28     9    26   ar
    29    26    27    1
    30     6    28    1
    31    28    29    1
    32     3    29    1
    33     1    30    1
    34     1    31    1
    35     1    32    1
    36     3    33    1
    37     4    34    1
    38     4    35    1
    39     5    36    1
    40     5    37    1
    41    12    38    1
    42    12    39    1
    43    15    40    1
    44    28    41    1
    45    28    42    1
    46    29    43    1
    47    29    44    1
    48    10    45    1
    49    19    46    1
    50    20    47    1
    51    21    48    1
    52    22    49    1
    53    24    50    1
    54    25    51    1
@<TRIPOS>MOLECULE
mol21_1_5
 51 54 0 0 0
SMALL
USER_CHARGES
****
VDW energy = -5.80
@<TRIPOS>ATOM
   1 C1       -6.4677    -2.4869    -8.1037  C.3     1  <O>11       0.0368
   2 O1       -6.4969    -1.0912    -8.3528  O.3     1  <O>11      -0.3797
   3 C2       -7.2210    -0.4410    -7.3210  C.3     1  <O>11       0.0612
   4 C3       -7.6334     0.9465    -7.7996  C.3     1  <O>11      -0.0107
   5 C4       -6.4144     1.8341    -8.0167  C.3     1  <O>11       0.0173
   6 N1       -5.5849     1.9221    -6.7891  N.am    1  <O>11      -0.2973
   7 C5       -5.2205     3.0631    -6.1470  C.2     1  <O>11       0.2494
   8 O2       -4.5307     3.0037    -5.1406  O.2     1  <O>11      -0.2699
   9 C6       -5.6515     4.3566    -6.6598  C.ar    1  <O>11       0.0723
  10 C7       -6.8631     4.9235    -6.2289  C.ar    1  <O>11      -0.0433
  11 C8       -7.2816     6.1610    -6.7312  C.ar    1  <O>11      -0.0406
  12 C9       -8.5574     6.7441    -6.2733  C.3     1  <O>11       0.0171
  13 C10      -8.5091     6.9480    -4.8016  C.ar    1  <O>11       0.0736
  14 N2       -8.9342     5.9292    -3.9409  N.ar    1  <O>11      -0.1750
  15 N3       -8.9941     6.1358    -2.6060  N.ar    1  <O>11      -0.2425
  16 C11      -8.6258     7.3417    -2.1090  C.ar    1  <O>11       0.2725
  17 O3       -8.8060     7.5232    -0.7246  O.2     1  <O>11      -0.2658
  18 C12      -8.0930     8.3768    -2.8886  C.ar    1  <O>11       0.0496
  19 C13      -7.6525     9.6145    -2.3667  C.ar    1  <O>11      -0.0487
  20 C14      -7.1612    10.6154    -3.2046  C.ar    1  <O>11      -0.0610
  21 C15      -7.1055    10.4042    -4.5767  C.ar    1  <O>11      -0.0611
  22 C16      -7.5422     9.1912    -5.1127  C.ar    1  <O>11      -0.0521
  23 C17      -8.0361     8.1626    -4.2780  C.ar    1  <O>11       0.0106
  24 C18      -6.4951     6.8440    -7.6632  C.ar    1  <O>11      -0.0555
  25 C19      -5.2863     6.2828    -8.0874  C.ar    1  <O>11      -0.0254
  26 C20      -4.8592     5.0499    -7.5912  C.ar    1  <O>11       0.1355
  27 F1       -3.6711     4.5031    -8.0025  F       1  <O>11      -0.2047
  28 C21      -5.1600     0.5901    -6.2862  C.3     1  <O>11       0.0173
  29 C22      -6.3429    -0.3502    -6.0776  C.3     1  <O>11      -0.0107
  30 H1       -5.9113    -2.9860    -8.8970  H       1  <O>11       0.0524
  31 H2       -7.4868    -2.8725    -8.0766  H       1  <O>11       0.0524
  32 H3       -5.9825    -2.6749    -7.1459  H       1  <O>11       0.0524
  33 H4       -8.1145    -1.0180    -7.0848  H       1  <O>11       0.0597
  34 H5       -8.1783     0.8522    -8.7396  H       1  <O>11       0.0305
  35 H6       -8.2787     1.4049    -7.0495  H       1  <O>11       0.0305
  36 H7       -5.8113     1.4164    -8.8230  H       1  <O>11       0.0465
  37 H8       -6.7479     2.8339    -8.2929  H       1  <O>11       0.0465
  38 H9       -9.3758     6.0682    -6.5197  H       1  <O>11       0.0377
  39 H10      -8.7172     7.7034    -6.7675  H       1  <O>11       0.0377
  40 H11      -9.3105     5.4003    -1.9883  H       1  <O>11       0.1921
  41 H12      -4.4797     0.1432    -7.0100  H       1  <O>11       0.0465
  42 H13      -4.6446     0.7226    -5.3349  H       1  <O>11       0.0465
  43 H14      -5.9649    -1.3445    -5.8387  H       1  <O>11       0.0305
  44 H15      -6.9448     0.0193    -5.2475  H       1  <O>11       0.0305
  45 H16      -7.4468     4.4250    -5.5391  H       1  <O>11       0.0629
  46 H17      -7.6951     9.7802    -1.3490  H       1  <O>11       0.0625
  47 H18      -6.8396    11.5114    -2.8061  H       1  <O>11       0.0618
  48 H19      -6.7418    11.1428    -5.1988  H       1  <O>11       0.0618
  49 H20      -7.5039     9.0432    -6.1333  H       1  <O>11       0.0624
  50 H21      -6.8040     7.7555    -8.0355  H       1  <O>11       0.0621
  51 H22      -4.7037     6.7858    -8.7749  H       1  <O>11       0.0646
@<TRIPOS>BOND
     1     1     2    1
     2     2     3    1
     3     3     4    1
     4     4     5    1
     5     5     6    1
     6     6     7   am
     7     7     8    2
     8     7     9    1
     9     9    10   ar
    10    10    11   ar
    11    11    12    1
    12    12    13    1
    13    13    14   ar
    14    14    15   ar
    15    15    16   ar
    16    16    17    2
    17    16    18   ar
    18    18    19   ar
    19    19    20   ar
    20    20    21   ar
    21    21    22   ar
    22    22    23   ar
    23    13    23   ar
    24    18    23   ar
    25    11    24   ar
    26    24    25   ar
    27    25    26   ar
    28     9    26   ar
    29    26    27    1
    30     6    28    1
    31    28    29    1
    32     3    29    1
    33     1    30    1
    34     1    31    1
    35     1    32    1
    36     3    33    1
    37     4    34    1
    38     4    35    1
    39     5    36    1
    40     5    37    1
    41    12    38    1
    42    12    39    1
    43    15    40    1
    44    28    41    1
    45    28    42    1
    46    29    43    1
    47    29    44    1
    48    10    45    1
    49    19    46    1
    50    20    47    1
    51    21    48    1
    52    22    49    1
    53    24    50    1
    54    25    51    1
@<TRIPOS>MOLECULE
mol21_1_6
 51 54 0 0 0
SMALL
USER_CHARGES
****
VDW energy = -5.29
@<TRIPOS>ATOM
   1 C1       -6.4677    -2.4869    -8.1037  C.3     1  <O>11       0.0368
   2 O1       -6.4969    -1.0912    -8.3528  O.3     1  <O>11      -0.3797
   3 C2       -7.2210    -0.4410    -7.3210  C.3     1  <O>11       0.0612
   4 C3       -8.6930    -0.3725    -7.7120  C.3     1  <O>11      -0.0107
   5 C4       -8.8937     0.5213    -8.9294  C.3     1  <O>11       0.0173
   6 N1       -8.3432     1.8801    -8.6983  N.am    1  <O>11      -0.2973
   7 C5       -9.0240     3.0512    -8.8086  C.2     1  <O>11       0.2494
   8 O2       -8.4556     4.1106    -8.5926  O.2     1  <O>11      -0.2699
   9 C6      -10.4309     3.0427    -9.1859  C.ar    1  <O>11       0.0723
  10 C7      -10.8036     3.1107   -10.5392  C.ar    1  <O>11      -0.0433
  11 C8      -12.1560     3.1141   -10.8997  C.ar    1  <O>11      -0.0406
  12 C9      -12.5345     3.1894   -12.3239  C.3     1  <O>11       0.0171
  13 C10     -12.6441     1.8153   -12.8807  C.ar    1  <O>11       0.0736
  14 N2      -11.5231     1.2014   -13.4514  N.ar    1  <O>11      -0.1750
  15 N3      -11.6303    -0.0043   -14.0541  N.ar    1  <O>11      -0.2425
  16 C11     -12.8381    -0.6179   -14.0890  C.ar    1  <O>11       0.2725
  17 O3      -12.9014    -1.8216   -14.8165  O.2     1  <O>11      -0.2658
  18 C12     -13.9840    -0.1212   -13.4541  C.ar    1  <O>11       0.0496
  19 C13     -15.2311    -0.7866   -13.4376  C.ar    1  <O>11      -0.0487
  20 C14     -16.3417    -0.2195   -12.8128  C.ar    1  <O>11      -0.0610
  21 C15     -16.2318     1.0220   -12.1989  C.ar    1  <O>11      -0.0611
  22 C16     -15.0106     1.6986   -12.2100  C.ar    1  <O>11      -0.0521
  23 C17     -13.8726     1.1358   -12.8320  C.ar    1  <O>11       0.0106
  24 C18     -13.1462     3.0463    -9.9155  C.ar    1  <O>11      -0.0555
  25 C19     -12.7753     2.9723    -8.5691  C.ar    1  <O>11      -0.0254
  26 C20     -11.4292     2.9665    -8.1993  C.ar    1  <O>11       0.1355
  27 F1      -11.0659     2.8876    -6.8796  F       1  <O>11      -0.2047
  28 C21      -6.9081     1.8608    -8.3137  C.3     1  <O>11       0.0173
  29 C22      -6.6463     0.9562    -7.1138  C.3     1  <O>11      -0.0107
  30 H1       -5.9113    -2.9860    -8.8970  H       1  <O>11       0.0524
  31 H2       -7.4868    -2.8725    -8.0766  H       1  <O>11       0.0524
  32 H3       -5.9825    -2.6749    -7.1459  H       1  <O>11       0.0524
  33 H4       -7.1229    -1.0075    -6.3955  H       1  <O>11       0.0597
  34 H5       -9.0474    -1.3773    -7.9446  H       1  <O>11       0.0305
  35 H6       -9.2653     0.0308    -6.8759  H       1  <O>11       0.0305
  36 H7       -8.3868     0.0740    -9.7845  H       1  <O>11       0.0465
  37 H8       -9.9598     0.6006    -9.1396  H       1  <O>11       0.0465
  38 H9      -11.7751     3.7445   -12.8736  H       1  <O>11       0.0377
  39 H10     -13.4955     3.6969   -12.4187  H       1  <O>11       0.0377
  40 H11     -10.8200    -0.4403   -14.4734  H       1  <O>11       0.1921
  41 H12      -6.3238     1.5002    -9.1593  H       1  <O>11       0.0465
  42 H13      -6.5986     2.8754    -8.0629  H       1  <O>11       0.0465
  43 H14      -5.5698     0.8763    -6.9608  H       1  <O>11       0.0305
  44 H15      -7.1072     1.3993    -6.2310  H       1  <O>11       0.0305
  45 H16     -10.0769     3.1585   -11.2704  H       1  <O>11       0.0629
  46 H17     -15.3214    -1.7070   -13.8954  H       1  <O>11       0.0625
  47 H18     -17.2435    -0.7213   -12.8064  H       1  <O>11       0.0618
  48 H19     -17.0518     1.4436   -11.7353  H       1  <O>11       0.0618
  49 H20     -14.9376     2.6233   -11.7576  H       1  <O>11       0.0624
  50 H21     -14.1437     3.0508   -10.1804  H       1  <O>11       0.0621
  51 H22     -13.5048     2.9213    -7.8409  H       1  <O>11       0.0646
@<TRIPOS>BOND
     1     1     2    1
     2     2     3    1
     3     3     4    1
     4     4     5    1
     5     5     6    1
     6     6     7   am
     7     7     8    2
     8     7     9    1
     9     9    10   ar
    10    10    11   ar
    11    11    12    1
    12    12    13    1
    13    13    14   ar
    14    14    15   ar
    15    15    16   ar
    16    16    17    2
    17    16    18   ar
    18    18    19   ar
    19    19    20   ar
    20    20    21   ar
    21    21    22   ar
    22    22    23   ar
    23    13    23   ar
    24    18    23   ar
    25    11    24   ar
    26    24    25   ar
    27    25    26   ar
    28     9    26   ar
    29    26    27    1
    30     6    28    1
    31    28    29    1
    32     3    29    1
    33     1    30    1
    34     1    31    1
    35     1    32    1
    36     3    33    1
    37     4    34    1
    38     4    35    1
    39     5    36    1
    40     5    37    1
    41    12    38    1
    42    12    39    1
    43    15    40    1
    44    28    41    1
    45    28    42    1
    46    29    43    1
    47    29    44    1
    48    10    45    1
    49    19    46    1
    50    20    47    1
    51    21    48    1
    52    22    49    1
    53    24    50    1
    54    25    51    1
@<TRIPOS>MOLECULE
mol21_1_7
 51 54 0 0 0
SMALL
USER_CHARGES
****
VDW energy = -3.97
@<TRIPOS>ATOM
   1 C1       -6.4677    -2.4869    -8.1037  C.3     1  <O>11       0.0368
   2 O1       -6.4969    -1.0912    -8.3528  O.3     1  <O>11      -0.3797
   3 C2       -7.2210    -0.4410    -7.3210  C.3     1  <O>11       0.0612
   4 C3       -7.6334     0.9465    -7.7996  C.3     1  <O>11      -0.0107
   5 C4       -6.4144     1.8341    -8.0167  C.3     1  <O>11       0.0173
   6 N1       -5.5849     1.9221    -6.7891  N.am    1  <O>11      -0.2973
   7 C5       -5.2205     3.0631    -6.1470  C.2     1  <O>11       0.2494
   8 O2       -4.5307     3.0037    -5.1406  O.2     1  <O>11      -0.2699
   9 C6       -5.6515     4.3566    -6.6598  C.ar    1  <O>11       0.0723
  10 C7       -4.8602     5.0508    -7.5908  C.ar    1  <O>11      -0.0433
  11 C8       -5.2698     6.2989    -8.0740  C.ar    1  <O>11      -0.0406
  12 C9       -4.4284     7.0194    -9.0487  C.3     1  <O>11       0.0171
  13 C10      -4.2688     6.1915   -10.2731  C.ar    1  <O>11       0.0736
  14 N2       -4.8821     4.9357   -10.3519  N.ar    1  <O>11      -0.1750
  15 N3       -4.6627     4.1276   -11.4136  N.ar    1  <O>11      -0.2425
  16 C11      -3.8477     4.5544   -12.4087  C.ar    1  <O>11       0.2725
  17 O3       -3.5833     3.6270   -13.4344  O.2     1  <O>11      -0.2658
  18 C12      -3.2786     5.8338   -12.4561  C.ar    1  <O>11       0.0496
  19 C13      -2.4761     6.3042   -13.5205  C.ar    1  <O>11      -0.0487
  20 C14      -1.9136     7.5801   -13.4889  C.ar    1  <O>11      -0.0610
  21 C15      -2.1350     8.4074   -12.3949  C.ar    1  <O>11      -0.0611
  22 C16      -2.9191     7.9590   -11.3303  C.ar    1  <O>11      -0.0521
  23 C17      -3.5033     6.6718   -11.3485  C.ar    1  <O>11       0.0106
  24 C18      -6.4717     6.8624    -7.6362  C.ar    1  <O>11      -0.0555
  25 C19      -7.2624     6.1688    -6.7145  C.ar    1  <O>11      -0.0254
  26 C20      -6.8634     4.9226    -6.2278  C.ar    1  <O>11       0.1355
  27 F1       -7.6420     4.2400    -5.3290  F       1  <O>11      -0.2047
  28 C21      -5.1600     0.5901    -6.2862  C.3     1  <O>11       0.0173
  29 C22      -6.3429    -0.3502    -6.0776  C.3     1  <O>11      -0.0107
  30 H1       -5.9113    -2.9860    -8.8970  H       1  <O>11       0.0524
  31 H2       -7.4868    -2.8725    -8.0766  H       1  <O>11       0.0524
  32 H3       -5.9825    -2.6749    -7.1459  H       1  <O>11       0.0524
  33 H4       -8.1145    -1.0180    -7.0848  H       1  <O>11       0.0597
  34 H5       -8.1783     0.8522    -8.7396  H       1  <O>11       0.0305
  35 H6       -8.2787     1.4049    -7.0495  H       1  <O>11       0.0305
  36 H7       -5.8113     1.4164    -8.8230  H       1  <O>11       0.0465
  37 H8       -6.7479     2.8339    -8.2929  H       1  <O>11       0.0465
  38 H9       -3.4495     7.2135    -8.6114  H       1  <O>11       0.0377
  39 H10      -4.9037     7.9659    -9.3102  H       1  <O>11       0.0377
  40 H11      -5.1003     3.2173   -11.4625  H       1  <O>11       0.1921
  41 H12      -4.4797     0.1432    -7.0100  H       1  <O>11       0.0465
  42 H13      -4.6446     0.7226    -5.3349  H       1  <O>11       0.0465
  43 H14      -5.9649    -1.3445    -5.8387  H       1  <O>11       0.0305
  44 H15      -6.9448     0.0193    -5.2475  H       1  <O>11       0.0305
  45 H16      -3.9730     4.6386    -7.9195  H       1  <O>11       0.0629
  46 H17      -2.3037     5.6936   -14.3344  H       1  <O>11       0.0625
  47 H18      -1.3339     7.9091   -14.2768  H       1  <O>11       0.0618
  48 H19      -1.7206     9.3522   -12.3693  H       1  <O>11       0.0618
  49 H20      -3.0744     8.5763   -10.5180  H       1  <O>11       0.0624
  50 H21      -6.7734     7.7836    -7.9905  H       1  <O>11       0.0621
  51 H22      -8.1505     6.5827    -6.3905  H       1  <O>11       0.0646
@<TRIPOS>BOND
     1     1     2    1
     2     2     3    1
     3     3     4    1
     4     4     5    1
     5     5     6    1
     6     6     7   am
     7     7     8    2
     8     7     9    1
     9     9    10   ar
    10    10    11   ar
    11    11    12    1
    12    12    13    1
    13    13    14   ar
    14    14    15   ar
    15    15    16   ar
    16    16    17    2
    17    16    18   ar
    18    18    19   ar
    19    19    20   ar
    20    20    21   ar
    21    21    22   ar
    22    22    23   ar
    23    13    23   ar
    24    18    23   ar
    25    11    24   ar
    26    24    25   ar
    27    25    26   ar
    28     9    26   ar
    29    26    27    1
    30     6    28    1
    31    28    29    1
    32     3    29    1
    33     1    30    1
    34     1    31    1
    35     1    32    1
    36     3    33    1
    37     4    34    1
    38     4    35    1
    39     5    36    1
    40     5    37    1
    41    12    38    1
    42    12    39    1
    43    15    40    1
    44    28    41    1
    45    28    42    1
    46    29    43    1
    47    29    44    1
    48    10    45    1
    49    19    46    1
    50    20    47    1
    51    21    48    1
    52    22    49    1
    53    24    50    1
    54    25    51    1
@<TRIPOS>MOLECULE
mol21_1_8
 51 54 0 0 0
SMALL
USER_CHARGES
****
VDW energy = -3.07
@<TRIPOS>ATOM
   1 C1       -6.4677    -2.4869    -8.1037  C.3     1  <O>11       0.0368
   2 O1       -6.4969    -1.0912    -8.3528  O.3     1  <O>11      -0.3797
   3 C2       -7.2210    -0.4410    -7.3210  C.3     1  <O>11       0.0612
   4 C3       -7.6334     0.9465    -7.7996  C.3     1  <O>11      -0.0107
   5 C4       -6.4144     1.8341    -8.0167  C.3     1  <O>11       0.0173
   6 N1       -5.5849     1.9221    -6.7891  N.am    1  <O>11      -0.2973
   7 C5       -5.2205     3.0631    -6.1470  C.2     1  <O>11       0.2494
   8 O2       -5.5818     4.1479    -6.5771  O.2     1  <O>11      -0.2699
   9 C6       -4.4006     2.9921    -4.9452  C.ar    1  <O>11       0.0723
  10 C7       -2.9987     3.0198    -5.0393  C.ar    1  <O>11      -0.0433
  11 C8       -2.2119     2.9399    -3.8845  C.ar    1  <O>11      -0.0406
  12 C9       -0.7408     2.9666    -3.9969  C.3     1  <O>11       0.0171
  13 C10      -0.2298     1.5782    -4.1430  C.ar    1  <O>11       0.0736
  14 N2       -0.0828     1.0186    -5.4176  N.ar    1  <O>11      -0.1750
  15 N3        0.2815    -0.2754    -5.5637  N.ar    1  <O>11      -0.2425
  16 C11       0.5139    -1.0230    -4.4575  C.ar    1  <O>11       0.2725
  17 O3        0.7920    -2.3855    -4.6770  O.2     1  <O>11      -0.2658
  18 C12       0.4894    -0.5136    -3.1526  C.ar    1  <O>11       0.0496
  19 C13       0.7890    -1.2751    -1.9998  C.ar    1  <O>11      -0.0487
  20 C14       0.7141    -0.7126    -0.7257  C.ar    1  <O>11      -0.0610
  21 C15       0.3341     0.6154    -0.5764  C.ar    1  <O>11      -0.0611
  22 C16       0.0275     1.3826    -1.7019  C.ar    1  <O>11      -0.0521
  23 C17       0.1051     0.8314    -3.0014  C.ar    1  <O>11       0.0106
  24 C18      -2.8155     2.8352    -2.6282  C.ar    1  <O>11      -0.0555
  25 C19      -4.2107     2.8138    -2.5339  C.ar    1  <O>11      -0.0254
  26 C20      -5.0044     2.8948    -3.6795  C.ar    1  <O>11       0.1355
  27 F1       -6.3722     2.8802    -3.5862  F       1  <O>11      -0.2047
  28 C21      -5.1600     0.5901    -6.2862  C.3     1  <O>11       0.0173
  29 C22      -6.3429    -0.3502    -6.0776  C.3     1  <O>11      -0.0107
  30 H1       -5.9113    -2.9860    -8.8970  H       1  <O>11       0.0524
  31 H2       -7.4868    -2.8725    -8.0766  H       1  <O>11       0.0524
  32 H3       -5.9825    -2.6749    -7.1459  H       1  <O>11       0.0524
  33 H4       -8.1145    -1.0180    -7.0848  H       1  <O>11       0.0597
  34 H5       -8.1783     0.8522    -8.7396  H       1  <O>11       0.0305
  35 H6       -8.2787     1.4049    -7.0495  H       1  <O>11       0.0305
  36 H7       -5.8113     1.4164    -8.8230  H       1  <O>11       0.0465
  37 H8       -6.7479     2.8339    -8.2929  H       1  <O>11       0.0465
  38 H9       -0.3153     3.4178    -3.1011  H       1  <O>11       0.0377
  39 H10      -0.4533     3.5529    -4.8707  H       1  <O>11       0.0377
  40 H11       0.3777    -0.6786    -6.4861  H       1  <O>11       0.1921
  41 H12      -4.4797     0.1432    -7.0100  H       1  <O>11       0.0465
  42 H13      -4.6446     0.7226    -5.3349  H       1  <O>11       0.0465
  43 H14      -5.9649    -1.3445    -5.8387  H       1  <O>11       0.0305
  44 H15      -6.9448     0.0193    -5.2475  H       1  <O>11       0.0305
  45 H16      -2.5474     3.0995    -5.9639  H       1  <O>11       0.0629
  46 H17       1.0676    -2.2634    -2.1027  H       1  <O>11       0.0625
  47 H18       0.9406    -1.2819     0.1047  H       1  <O>11       0.0618
  48 H19       0.2786     1.0342     0.3651  H       1  <O>11       0.0618
  49 H20      -0.2601     2.3666    -1.5834  H       1  <O>11       0.0624
  50 H21      -2.2360     2.7741    -1.7764  H       1  <O>11       0.0621
  51 H22      -4.6585     2.7374    -1.6072  H       1  <O>11       0.0646
@<TRIPOS>BOND
     1     1     2    1
     2     2     3    1
     3     3     4    1
     4     4     5    1
     5     5     6    1
     6     6     7   am
     7     7     8    2
     8     7     9    1
     9     9    10   ar
    10    10    11   ar
    11    11    12    1
    12    12    13    1
    13    13    14   ar
    14    14    15   ar
    15    15    16   ar
    16    16    17    2
    17    16    18   ar
    18    18    19   ar
    19    19    20   ar
    20    20    21   ar
    21    21    22   ar
    22    22    23   ar
    23    13    23   ar
    24    18    23   ar
    25    11    24   ar
    26    24    25   ar
    27    25    26   ar
    28     9    26   ar
    29    26    27    1
    30     6    28    1
    31    28    29    1
    32     3    29    1
    33     1    30    1
    34     1    31    1
    35     1    32    1
    36     3    33    1
    37     4    34    1
    38     4    35    1
    39     5    36    1
    40     5    37    1
    41    12    38    1
    42    12    39    1
    43    15    40    1
    44    28    41    1
    45    28    42    1
    46    29    43    1
    47    29    44    1
    48    10    45    1
    49    19    46    1
    50    20    47    1
    51    21    48    1
    52    22    49    1
    53    24    50    1
    54    25    51    1
@<TRIPOS>MOLECULE
mol21_1_9
 51 54 0 0 0
SMALL
USER_CHARGES
****
VDW energy = -2.18
@<TRIPOS>ATOM
   1 C1       -6.4677    -2.4869    -8.1037  C.3     1  <O>11       0.0368
   2 O1       -6.4969    -1.0912    -8.3528  O.3     1  <O>11      -0.3797
   3 C2       -7.2210    -0.4410    -7.3210  C.3     1  <O>11       0.0612
   4 C3       -7.6334     0.9465    -7.7996  C.3     1  <O>11      -0.0107
   5 C4       -6.4144     1.8341    -8.0167  C.3     1  <O>11       0.0173
   6 N1       -5.5849     1.9221    -6.7891  N.am    1  <O>11      -0.2973
   7 C5       -5.2205     3.0631    -6.1470  C.2     1  <O>11       0.2494
   8 O2       -4.5307     3.0037    -5.1406  O.2     1  <O>11      -0.2699
   9 C6       -5.6515     4.3566    -6.6598  C.ar    1  <O>11       0.0723
  10 C7       -4.8602     5.0508    -7.5908  C.ar    1  <O>11      -0.0433
  11 C8       -5.2698     6.2989    -8.0740  C.ar    1  <O>11      -0.0406
  12 C9       -4.4284     7.0194    -9.0487  C.3     1  <O>11       0.0171
  13 C10      -3.0929     7.2829    -8.4510  C.ar    1  <O>11       0.0736
  14 N2       -2.6893     6.5841    -7.3073  N.ar    1  <O>11      -0.1750
  15 N3       -1.5234     6.8849    -6.6921  N.ar    1  <O>11      -0.2425
  16 C11      -0.7428     7.8671    -7.2045  C.ar    1  <O>11       0.2725
  17 O3        0.4064     8.1972    -6.4612  O.2     1  <O>11      -0.2658
  18 C12      -1.0229     8.5424    -8.3997  C.ar    1  <O>11       0.0496
  19 C13      -0.1820     9.5259    -8.9690  C.ar    1  <O>11      -0.0487
  20 C14      -0.5374    10.1831   -10.1468  C.ar    1  <O>11      -0.0610
  21 C15      -1.7383     9.8772   -10.7749  C.ar    1  <O>11      -0.0611
  22 C16      -2.5861     8.9138   -10.2250  C.ar    1  <O>11      -0.0521
  23 C17      -2.2387     8.2323    -9.0361  C.ar    1  <O>11       0.0106
  24 C18      -6.4717     6.8624    -7.6362  C.ar    1  <O>11      -0.0555
  25 C19      -7.2624     6.1688    -6.7145  C.ar    1  <O>11      -0.0254
  26 C20      -6.8634     4.9226    -6.2278  C.ar    1  <O>11       0.1355
  27 F1       -7.6420     4.2400    -5.3290  F       1  <O>11      -0.2047
  28 C21      -5.1600     0.5901    -6.2862  C.3     1  <O>11       0.0173
  29 C22      -6.3429    -0.3502    -6.0776  C.3     1  <O>11      -0.0107
  30 H1       -5.9113    -2.9860    -8.8970  H       1  <O>11       0.0524
  31 H2       -7.4868    -2.8725    -8.0766  H       1  <O>11       0.0524
  32 H3       -5.9825    -2.6749    -7.1459  H       1  <O>11       0.0524
  33 H4       -8.1145    -1.0180    -7.0848  H       1  <O>11       0.0597
  34 H5       -8.1783     0.8522    -8.7396  H       1  <O>11       0.0305
  35 H6       -8.2787     1.4049    -7.0495  H       1  <O>11       0.0305
  36 H7       -5.8113     1.4164    -8.8230  H       1  <O>11       0.0465
  37 H8       -6.7479     2.8339    -8.2929  H       1  <O>11       0.0465
  38 H9       -4.9023     7.9651    -9.3100  H       1  <O>11       0.0377
  39 H10      -4.3103     6.4117    -9.9469  H       1  <O>11       0.0377
  40 H11      -1.2397     6.3840    -5.8607  H       1  <O>11       0.1921
  41 H12      -4.4797     0.1432    -7.0100  H       1  <O>11       0.0465
  42 H13      -4.6446     0.7226    -5.3349  H       1  <O>11       0.0465
  43 H14      -5.9649    -1.3445    -5.8387  H       1  <O>11       0.0305
  44 H15      -6.9448     0.0193    -5.2475  H       1  <O>11       0.0305
  45 H16      -3.9730     4.6386    -7.9195  H       1  <O>11       0.0629
  46 H17       0.7094     9.7614    -8.5056  H       1  <O>11       0.0625
  47 H18       0.0906    10.8953   -10.5509  H       1  <O>11       0.0618
  48 H19      -2.0033    10.3615   -11.6468  H       1  <O>11       0.0618
  49 H20      -3.4795     8.6959   -10.6933  H       1  <O>11       0.0624
  50 H21      -6.7734     7.7836    -7.9905  H       1  <O>11       0.0621
  51 H22      -8.1505     6.5827    -6.3905  H       1  <O>11       0.0646
@<TRIPOS>BOND
     1     1     2    1
     2     2     3    1
     3     3     4    1
     4     4     5    1
     5     5     6    1
     6     6     7   am
     7     7     8    2
     8     7     9    1
     9     9    10   ar
    10    10    11   ar
    11    11    12    1
    12    12    13    1
    13    13    14   ar
    14    14    15   ar
    15    15    16   ar
    16    16    17    2
    17    16    18   ar
    18    18    19   ar
    19    19    20   ar
    20    20    21   ar
    21    21    22   ar
    22    22    23   ar
    23    13    23   ar
    24    18    23   ar
    25    11    24   ar
    26    24    25   ar
    27    25    26   ar
    28     9    26   ar
    29    26    27    1
    30     6    28    1
    31    28    29    1
    32     3    29    1
    33     1    30    1
    34     1    31    1
    35     1    32    1
    36     3    33    1
    37     4    34    1
    38     4    35    1
    39     5    36    1
    40     5    37    1
    41    12    38    1
    42    12    39    1
    43    15    40    1
    44    28    41    1
    45    28    42    1
    46    29    43    1
    47    29    44    1
    48    10    45    1
    49    19    46    1
    50    20    47    1
    51    21    48    1
    52    22    49    1
    53    24    50    1
    54    25    51    1
@<TRIPOS>MOLECULE
mol21_1_10
 51 54 0 0 0
SMALL
USER_CHARGES
****
VDW energy = -1.68
@<TRIPOS>ATOM
   1 C1       -6.4677    -2.4869    -8.1037  C.3     1  <O>11       0.0368
   2 O1       -6.4969    -1.0912    -8.3528  O.3     1  <O>11      -0.3797
   3 C2       -7.2210    -0.4410    -7.3210  C.3     1  <O>11       0.0612
   4 C3       -7.6334     0.9465    -7.7996  C.3     1  <O>11      -0.0107
   5 C4       -6.4144     1.8341    -8.0167  C.3     1  <O>11       0.0173
   6 N1       -5.5849     1.9221    -6.7891  N.am    1  <O>11      -0.2973
   7 C5       -5.2205     3.0631    -6.1470  C.2     1  <O>11       0.2494
   8 O2       -4.5307     3.0037    -5.1406  O.2     1  <O>11      -0.2699
   9 C6       -5.6515     4.3566    -6.6598  C.ar    1  <O>11       0.0723
  10 C7       -4.8602     5.0508    -7.5908  C.ar    1  <O>11      -0.0433
  11 C8       -5.2698     6.2989    -8.0740  C.ar    1  <O>11      -0.0406
  12 C9       -4.4284     7.0194    -9.0487  C.3     1  <O>11       0.0171
  13 C10      -4.8678     8.4373    -9.1300  C.ar    1  <O>11       0.0736
  14 N2       -5.8511     8.8120   -10.0532  N.ar    1  <O>11      -0.1750
  15 N3       -6.1874    10.1120   -10.2115  N.ar    1  <O>11      -0.2425
  16 C11      -5.5666    11.0497    -9.4551  C.ar    1  <O>11       0.2725
  17 O3       -5.8910    12.3898    -9.7391  O.2     1  <O>11      -0.2658
  18 C12      -4.6489    10.7502    -8.4397  C.ar    1  <O>11       0.0496
  19 C13      -4.0434    11.7203    -7.6087  C.ar    1  <O>11      -0.0487
  20 C14      -3.1122    11.3556    -6.6364  C.ar    1  <O>11      -0.0610
  21 C15      -2.7631    10.0201    -6.4785  C.ar    1  <O>11      -0.0611
  22 C16      -3.3447     9.0474    -7.2940  C.ar    1  <O>11      -0.0521
  23 C17      -4.2958     9.3977    -8.2795  C.ar    1  <O>11       0.0106
  24 C18      -6.4717     6.8624    -7.6362  C.ar    1  <O>11      -0.0555
  25 C19      -7.2624     6.1688    -6.7145  C.ar    1  <O>11      -0.0254
  26 C20      -6.8634     4.9226    -6.2278  C.ar    1  <O>11       0.1355
  27 F1       -7.6420     4.2400    -5.3290  F       1  <O>11      -0.2047
  28 C21      -5.1600     0.5901    -6.2862  C.3     1  <O>11       0.0173
  29 C22      -6.3429    -0.3502    -6.0776  C.3     1  <O>11      -0.0107
  30 H1       -5.9113    -2.9860    -8.8970  H       1  <O>11       0.0524
  31 H2       -7.4868    -2.8725    -8.0766  H       1  <O>11       0.0524
  32 H3       -5.9825    -2.6749    -7.1459  H       1  <O>11       0.0524
  33 H4       -8.1145    -1.0180    -7.0848  H       1  <O>11       0.0597
  34 H5       -8.1783     0.8522    -8.7396  H       1  <O>11       0.0305
  35 H6       -8.2787     1.4049    -7.0495  H       1  <O>11       0.0305
  36 H7       -5.8113     1.4164    -8.8230  H       1  <O>11       0.0465
  37 H8       -6.7479     2.8339    -8.2929  H       1  <O>11       0.0465
  38 H9       -4.5249     6.5526   -10.0284  H       1  <O>11       0.0377
  39 H10      -3.3862     6.9804    -8.7287  H       1  <O>11       0.0377
  40 H11      -6.8917    10.3797   -10.8861  H       1  <O>11       0.1921
  41 H12      -4.4797     0.1432    -7.0100  H       1  <O>11       0.0465
  42 H13      -4.6446     0.7226    -5.3349  H       1  <O>11       0.0465
  43 H14      -5.9649    -1.3445    -5.8387  H       1  <O>11       0.0305
  44 H15      -6.9448     0.0193    -5.2475  H       1  <O>11       0.0305
  45 H16      -3.9730     4.6386    -7.9195  H       1  <O>11       0.0629
  46 H17      -4.2945    12.7147    -7.7232  H       1  <O>11       0.0625
  47 H18      -2.6833    12.0766    -6.0353  H       1  <O>11       0.0618
  48 H19      -2.0749     9.7475    -5.7595  H       1  <O>11       0.0618
  49 H20      -3.0762     8.0580    -7.1755  H       1  <O>11       0.0624
  50 H21      -6.7734     7.7836    -7.9905  H       1  <O>11       0.0621
  51 H22      -8.1505     6.5827    -6.3905  H       1  <O>11       0.0646
@<TRIPOS>BOND
     1     1     2    1
     2     2     3    1
     3     3     4    1
     4     4     5    1
     5     5     6    1
     6     6     7   am
     7     7     8    2
     8     7     9    1
     9     9    10   ar
    10    10    11   ar
    11    11    12    1
    12    12    13    1
    13    13    14   ar
    14    14    15   ar
    15    15    16   ar
    16    16    17    2
    17    16    18   ar
    18    18    19   ar
    19    19    20   ar
    20    20    21   ar
    21    21    22   ar
    22    22    23   ar
    23    13    23   ar
    24    18    23   ar
    25    11    24   ar
    26    24    25   ar
    27    25    26   ar
    28     9    26   ar
    29    26    27    1
    30     6    28    1
    31    28    29    1
    32     3    29    1
    33     1    30    1
    34     1    31    1
    35     1    32    1
    36     3    33    1
    37     4    34    1
    38     4    35    1
    39     5    36    1
    40     5    37    1
    41    12    38    1
    42    12    39    1
    43    15    40    1
    44    28    41    1
    45    28    42    1
    46    29    43    1
    47    29    44    1
    48    10    45    1
    49    19    46    1
    50    20    47    1
    51    21    48    1
    52    22    49    1
    53    24    50    1
    54    25    51    1
@<TRIPOS>MOLECULE
mol21_1_11
 51 54 0 0 0
SMALL
USER_CHARGES
****
VDW energy = -1.40
@<TRIPOS>ATOM
   1 C1       -6.4677    -2.4869    -8.1037  C.3     1  <O>11       0.0368
   2 O1       -6.4969    -1.0912    -8.3528  O.3     1  <O>11      -0.3797
   3 C2       -7.2210    -0.4410    -7.3210  C.3     1  <O>11       0.0612
   4 C3       -7.6334     0.9465    -7.7996  C.3     1  <O>11      -0.0107
   5 C4       -6.4144     1.8341    -8.0167  C.3     1  <O>11       0.0173
   6 N1       -5.5849     1.9221    -6.7891  N.am    1  <O>11      -0.2973
   7 C5       -5.2205     3.0631    -6.1470  C.2     1  <O>11       0.2494
   8 O2       -5.5818     4.1479    -6.5771  O.2     1  <O>11      -0.2699
   9 C6       -4.4006     2.9921    -4.9452  C.ar    1  <O>11       0.0723
  10 C7       -5.0030     2.8951    -3.6792  C.ar    1  <O>11      -0.0433
  11 C8       -4.2142     2.8385    -2.5244  C.ar    1  <O>11      -0.0406
  12 C9       -4.8589     2.7401    -1.2008  C.3     1  <O>11       0.0171
  13 C10      -5.6794     1.5019    -1.1401  C.ar    1  <O>11       0.0736
  14 N2       -5.7388     0.6484    -2.2479  N.ar    1  <O>11      -0.1750
  15 N3       -6.5602    -0.4257    -2.2464  N.ar    1  <O>11      -0.2425
  16 C11      -7.3195    -0.6725    -1.1512  C.ar    1  <O>11       0.2725
  17 O3       -8.2239    -1.7466    -1.2529  O.2     1  <O>11      -0.2658
  18 C12      -7.2437     0.0706     0.0340  C.ar    1  <O>11       0.0496
  19 C13      -7.9902    -0.2189     1.1990  C.ar    1  <O>11      -0.0487
  20 C14      -7.8903     0.5825     2.3361  C.ar    1  <O>11      -0.0610
  21 C15      -7.0503     1.6892     2.3314  C.ar    1  <O>11      -0.0611
  22 C16      -6.3096     1.9963     1.1884  C.ar    1  <O>11      -0.0521
  23 C17      -6.3926     1.1910     0.0294  C.ar    1  <O>11       0.0106
  24 C18      -2.8204     2.8747    -2.6225  C.ar    1  <O>11      -0.0555
  25 C19      -2.2206     2.9649    -3.8827  C.ar    1  <O>11      -0.0254
  26 C20      -2.9985     3.0202    -5.0406  C.ar    1  <O>11       0.1355
  27 F1       -2.4100     3.1023    -6.2763  F       1  <O>11      -0.2047
  28 C21      -5.1600     0.5901    -6.2862  C.3     1  <O>11       0.0173
  29 C22      -6.3429    -0.3502    -6.0776  C.3     1  <O>11      -0.0107
  30 H1       -5.9113    -2.9860    -8.8970  H       1  <O>11       0.0524
  31 H2       -7.4868    -2.8725    -8.0766  H       1  <O>11       0.0524
  32 H3       -5.9825    -2.6749    -7.1459  H       1  <O>11       0.0524
  33 H4       -8.1145    -1.0180    -7.0848  H       1  <O>11       0.0597
  34 H5       -8.1783     0.8522    -8.7396  H       1  <O>11       0.0305
  35 H6       -8.2787     1.4049    -7.0495  H       1  <O>11       0.0305
  36 H7       -5.8113     1.4164    -8.8230  H       1  <O>11       0.0465
  37 H8       -6.7479     2.8339    -8.2929  H       1  <O>11       0.0465
  38 H9       -5.4985     3.6078    -1.0419  H       1  <O>11       0.0377
  39 H10      -4.0930     2.7063    -0.4247  H       1  <O>11       0.0377
  40 H11      -6.6072    -1.0348    -3.0522  H       1  <O>11       0.1921
  41 H12      -4.4797     0.1432    -7.0100  H       1  <O>11       0.0465
  42 H13      -4.6446     0.7226    -5.3349  H       1  <O>11       0.0465
  43 H14      -5.9649    -1.3445    -5.8387  H       1  <O>11       0.0305
  44 H15      -6.9448     0.0193    -5.2475  H       1  <O>11       0.0305
  45 H16      -6.0316     2.8654    -3.6007  H       1  <O>11       0.0629
  46 H17      -8.6196    -1.0367     1.2082  H       1  <O>11       0.0625
  47 H18      -8.4393     0.3539     3.1795  H       1  <O>11       0.0618
  48 H19      -6.9739     2.2835     3.1717  H       1  <O>11       0.0618
  49 H20      -5.6923     2.8233     1.1897  H       1  <O>11       0.0624
  50 H21      -2.2381     2.8351    -1.7714  H       1  <O>11       0.0621
  51 H22      -1.1916     2.9910    -3.9575  H       1  <O>11       0.0646
@<TRIPOS>BOND
     1     1     2    1
     2     2     3    1
     3     3     4    1
     4     4     5    1
     5     5     6    1
     6     6     7   am
     7     7     8    2
     8     7     9    1
     9     9    10   ar
    10    10    11   ar
    11    11    12    1
    12    12    13    1
    13    13    14   ar
    14    14    15   ar
    15    15    16   ar
    16    16    17    2
    17    16    18   ar
    18    18    19   ar
    19    19    20   ar
    20    20    21   ar
    21    21    22   ar
    22    22    23   ar
    23    13    23   ar
    24    18    23   ar
    25    11    24   ar
    26    24    25   ar
    27    25    26   ar
    28     9    26   ar
    29    26    27    1
    30     6    28    1
    31    28    29    1
    32     3    29    1
    33     1    30    1
    34     1    31    1
    35     1    32    1
    36     3    33    1
    37     4    34    1
    38     4    35    1
    39     5    36    1
    40     5    37    1
    41    12    38    1
    42    12    39    1
    43    15    40    1
    44    28    41    1
    45    28    42    1
    46    29    43    1
    47    29    44    1
    48    10    45    1
    49    19    46    1
    50    20    47    1
    51    21    48    1
    52    22    49    1
    53    24    50    1
    54    25    51    1
@<TRIPOS>MOLECULE
mol21_1_12
 51 54 0 0 0
SMALL
USER_CHARGES
****
VDW energy = -0.71
@<TRIPOS>ATOM
   1 C1       -6.4677    -2.4869    -8.1037  C.3     1  <O>11       0.0368
   2 O1       -6.4969    -1.0912    -8.3528  O.3     1  <O>11      -0.3797
   3 C2       -7.2210    -0.4410    -7.3210  C.3     1  <O>11       0.0612
   4 C3       -8.6930    -0.3725    -7.7120  C.3     1  <O>11      -0.0107
   5 C4       -8.8937     0.5213    -8.9294  C.3     1  <O>11       0.0173
   6 N1       -8.3432     1.8801    -8.6983  N.am    1  <O>11      -0.2973
   7 C5       -9.0240     3.0512    -8.8086  C.2     1  <O>11       0.2494
   8 O2      -10.2038     3.0441    -9.1252  O.2     1  <O>11      -0.2699
   9 C6       -8.3470     4.3142    -8.5478  C.ar    1  <O>11       0.0723
  10 C7       -8.3317     4.8574    -7.2518  C.ar    1  <O>11      -0.0433
  11 C8       -7.6907     6.0769    -7.0048  C.ar    1  <O>11      -0.0406
  12 C9       -7.6846     6.6383    -5.6403  C.3     1  <O>11       0.0171
  13 C10      -6.9463     7.9286    -5.6387  C.ar    1  <O>11       0.0736
  14 N2       -7.6317     9.1259    -5.8758  N.ar    1  <O>11      -0.1750
  15 N3       -6.9602    10.2948    -5.9803  N.ar    1  <O>11      -0.2425
  16 C11      -5.6121    10.2945    -5.8414  C.ar    1  <O>11       0.2725
  17 O3       -4.9659    11.5260    -6.0599  O.2     1  <O>11      -0.2658
  18 C12      -4.8633     9.1600    -5.5019  C.ar    1  <O>11       0.0496
  19 C13      -3.4645     9.1668    -5.2979  C.ar    1  <O>11      -0.0487
  20 C14      -2.7755     7.9931    -4.9926  C.ar    1  <O>11      -0.0610
  21 C15      -3.4658     6.7917    -4.8911  C.ar    1  <O>11      -0.0611
  22 C16      -4.8465     6.7625    -5.0958  C.ar    1  <O>11      -0.0521
  23 C17      -5.5624     7.9434    -5.3986  C.ar    1  <O>11       0.0106
  24 C18      -7.0577     6.7620    -8.0459  C.ar    1  <O>11      -0.0555
  25 C19      -7.0675     6.2185    -9.3344  C.ar    1  <O>11      -0.0254
  26 C20      -7.7026     5.0020    -9.5907  C.ar    1  <O>11       0.1355
  27 F1       -7.7065     4.4664   -10.8529  F       1  <O>11      -0.2047
  28 C21      -6.9081     1.8608    -8.3137  C.3     1  <O>11       0.0173
  29 C22      -6.6463     0.9562    -7.1138  C.3     1  <O>11      -0.0107
  30 H1       -5.9113    -2.9860    -8.8970  H       1  <O>11       0.0524
  31 H2       -7.4868    -2.8725    -8.0766  H       1  <O>11       0.0524
  32 H3       -5.9825    -2.6749    -7.1459  H       1  <O>11       0.0524
  33 H4       -7.1229    -1.0075    -6.3955  H       1  <O>11       0.0597
  34 H5       -9.0474    -1.3773    -7.9446  H       1  <O>11       0.0305
  35 H6       -9.2653     0.0308    -6.8759  H       1  <O>11       0.0305
  36 H7       -8.3868     0.0740    -9.7845  H       1  <O>11       0.0465
  37 H8       -9.9598     0.6006    -9.1396  H       1  <O>11       0.0465
  38 H9       -7.1965     5.9398    -4.9613  H       1  <O>11       0.0377
  39 H10      -8.7110     6.8072    -5.3118  H       1  <O>11       0.0377
  40 H11      -7.4580    11.1563    -6.1608  H       1  <O>11       0.1921
  41 H12      -6.3238     1.5002    -9.1593  H       1  <O>11       0.0465
  42 H13      -6.5986     2.8754    -8.0629  H       1  <O>11       0.0465
  43 H14      -5.5698     0.8763    -6.9608  H       1  <O>11       0.0305
  44 H15      -7.1072     1.3993    -6.2310  H       1  <O>11       0.0305
  45 H16      -8.7952     4.3548    -6.4787  H       1  <O>11       0.0629
  46 H17      -2.9445    10.0548    -5.3760  H       1  <O>11       0.0625
  47 H18      -1.7548     8.0171    -4.8424  H       1  <O>11       0.0618
  48 H19      -2.9586     5.9219    -4.6647  H       1  <O>11       0.0618
  49 H20      -5.3521     5.8656    -5.0251  H       1  <O>11       0.0624
  50 H21      -6.5866     7.6622    -7.8650  H       1  <O>11       0.0621
  51 H22      -6.6001     6.7223   -10.1043  H       1  <O>11       0.0646
@<TRIPOS>BOND
     1     1     2    1
     2     2     3    1
     3     3     4    1
     4     4     5    1
     5     5     6    1
     6     6     7   am
     7     7     8    2
     8     7     9    1
     9     9    10   ar
    10    10    11   ar
    11    11    12    1
    12    12    13    1
    13    13    14   ar
    14    14    15   ar
    15    15    16   ar
    16    16    17    2
    17    16    18   ar
    18    18    19   ar
    19    19    20   ar
    20    20    21   ar
    21    21    22   ar
    22    22    23   ar
    23    13    23   ar
    24    18    23   ar
    25    11    24   ar
    26    24    25   ar
    27    25    26   ar
    28     9    26   ar
    29    26    27    1
    30     6    28    1
    31    28    29    1
    32     3    29    1
    33     1    30    1
    34     1    31    1
    35     1    32    1
    36     3    33    1
    37     4    34    1
    38     4    35    1
    39     5    36    1
    40     5    37    1
    41    12    38    1
    42    12    39    1
    43    15    40    1
    44    28    41    1
    45    28    42    1
    46    29    43    1
    47    29    44    1
    48    10    45    1
    49    19    46    1
    50    20    47    1
    51    21    48    1
    52    22    49    1
    53    24    50    1
    54    25    51    1
@<TRIPOS>MOLECULE
mol21_1_13
 51 54 0 0 0
SMALL
USER_CHARGES
****
VDW energy = -0.48
@<TRIPOS>ATOM
   1 C1       -6.4677    -2.4869    -8.1037  C.3     1  <O>11       0.0368
   2 O1       -6.4969    -1.0912    -8.3528  O.3     1  <O>11      -0.3797
   3 C2       -7.2210    -0.4410    -7.3210  C.3     1  <O>11       0.0612
   4 C3       -7.6334     0.9465    -7.7996  C.3     1  <O>11      -0.0107
   5 C4       -6.4144     1.8341    -8.0167  C.3     1  <O>11       0.0173
   6 N1       -5.5849     1.9221    -6.7891  N.am    1  <O>11      -0.2973
   7 C5       -5.2205     3.0631    -6.1470  C.2     1  <O>11       0.2494
   8 O2       -4.5307     3.0037    -5.1406  O.2     1  <O>11      -0.2699
   9 C6       -5.6515     4.3566    -6.6598  C.ar    1  <O>11       0.0723
  10 C7       -6.8631     4.9235    -6.2289  C.ar    1  <O>11      -0.0433
  11 C8       -7.2816     6.1610    -6.7312  C.ar    1  <O>11      -0.0406
  12 C9       -8.5574     6.7441    -6.2733  C.3     1  <O>11       0.0171
  13 C10      -8.5091     6.9480    -4.8016  C.ar    1  <O>11       0.0736
  14 N2       -8.0386     8.1584    -4.2792  N.ar    1  <O>11      -0.1750
  15 N3       -7.8910     8.3217    -2.9451  N.ar    1  <O>11      -0.2425
  16 C11      -8.2158     7.2995    -2.1166  C.ar    1  <O>11       0.2725
  17 O3       -7.9453     7.4993    -0.7496  O.2     1  <O>11      -0.2658
  18 C12      -8.7884     6.0964    -2.5497  C.ar    1  <O>11       0.0496
  19 C13      -9.1834     5.0510    -1.6840  C.ar    1  <O>11      -0.0487
  20 C14      -9.7186     3.8644    -2.1851  C.ar    1  <O>11      -0.0610
  21 C15      -9.8644     3.6956    -3.5564  C.ar    1  <O>11      -0.0611
  22 C16      -9.4740     4.7134    -4.4287  C.ar    1  <O>11      -0.0521
  23 C17      -8.9366     5.9256    -3.9384  C.ar    1  <O>11       0.0106
  24 C18      -6.4951     6.8440    -7.6632  C.ar    1  <O>11      -0.0555
  25 C19      -5.2863     6.2828    -8.0874  C.ar    1  <O>11      -0.0254
  26 C20      -4.8592     5.0499    -7.5912  C.ar    1  <O>11       0.1355
  27 F1       -3.6711     4.5031    -8.0025  F       1  <O>11      -0.2047
  28 C21      -5.1600     0.5901    -6.2862  C.3     1  <O>11       0.0173
  29 C22      -6.3429    -0.3502    -6.0776  C.3     1  <O>11      -0.0107
  30 H1       -5.9113    -2.9860    -8.8970  H       1  <O>11       0.0524
  31 H2       -7.4868    -2.8725    -8.0766  H       1  <O>11       0.0524
  32 H3       -5.9825    -2.6749    -7.1459  H       1  <O>11       0.0524
  33 H4       -8.1145    -1.0180    -7.0848  H       1  <O>11       0.0597
  34 H5       -8.1783     0.8522    -8.7396  H       1  <O>11       0.0305
  35 H6       -8.2787     1.4049    -7.0495  H       1  <O>11       0.0305
  36 H7       -5.8113     1.4164    -8.8230  H       1  <O>11       0.0465
  37 H8       -6.7479     2.8339    -8.2929  H       1  <O>11       0.0465
  38 H9       -9.3758     6.0682    -6.5197  H       1  <O>11       0.0377
  39 H10      -8.7172     7.7034    -6.7675  H       1  <O>11       0.0377
  40 H11      -7.5421     9.1945    -2.5721  H       1  <O>11       0.1921
  41 H12      -4.4797     0.1432    -7.0100  H       1  <O>11       0.0465
  42 H13      -4.6446     0.7226    -5.3349  H       1  <O>11       0.0465
  43 H14      -5.9649    -1.3445    -5.8387  H       1  <O>11       0.0305
  44 H15      -6.9448     0.0193    -5.2475  H       1  <O>11       0.0305
  45 H16      -7.4468     4.4250    -5.5391  H       1  <O>11       0.0629
  46 H17      -9.0739     5.1676    -0.6645  H       1  <O>11       0.0625
  47 H18     -10.0059     3.1133    -1.5384  H       1  <O>11       0.0618
  48 H19     -10.2609     2.8189    -3.9298  H       1  <O>11       0.0618
  49 H20      -9.5793     4.5789    -5.4465  H       1  <O>11       0.0624
  50 H21      -6.8040     7.7555    -8.0355  H       1  <O>11       0.0621
  51 H22      -4.7037     6.7858    -8.7749  H       1  <O>11       0.0646
@<TRIPOS>BOND
     1     1     2    1
     2     2     3    1
     3     3     4    1
     4     4     5    1
     5     5     6    1
     6     6     7   am
     7     7     8    2
     8     7     9    1
     9     9    10   ar
    10    10    11   ar
    11    11    12    1
    12    12    13    1
    13    13    14   ar
    14    14    15   ar
    15    15    16   ar
    16    16    17    2
    17    16    18   ar
    18    18    19   ar
    19    19    20   ar
    20    20    21   ar
    21    21    22   ar
    22    22    23   ar
    23    13    23   ar
    24    18    23   ar
    25    11    24   ar
    26    24    25   ar
    27    25    26   ar
    28     9    26   ar
    29    26    27    1
    30     6    28    1
    31    28    29    1
    32     3    29    1
    33     1    30    1
    34     1    31    1
    35     1    32    1
    36     3    33    1
    37     4    34    1
    38     4    35    1
    39     5    36    1
    40     5    37    1
    41    12    38    1
    42    12    39    1
    43    15    40    1
    44    28    41    1
    45    28    42    1
    46    29    43    1
    47    29    44    1
    48    10    45    1
    49    19    46    1
    50    20    47    1
    51    21    48    1
    52    22    49    1
    53    24    50    1
    54    25    51    1
@<TRIPOS>MOLECULE
mol21_1_14
 51 54 0 0 0
SMALL
USER_CHARGES
****
VDW energy = 0.71
@<TRIPOS>ATOM
   1 C1       -6.4677    -2.4869    -8.1037  C.3     1  <O>11       0.0368
   2 O1       -6.4969    -1.0912    -8.3528  O.3     1  <O>11      -0.3797
   3 C2       -7.2210    -0.4410    -7.3210  C.3     1  <O>11       0.0612
   4 C3       -7.6334     0.9465    -7.7996  C.3     1  <O>11      -0.0107
   5 C4       -6.4144     1.8341    -8.0167  C.3     1  <O>11       0.0173
   6 N1       -5.5849     1.9221    -6.7891  N.am    1  <O>11      -0.2973
   7 C5       -5.2205     3.0631    -6.1470  C.2     1  <O>11       0.2494
   8 O2       -4.5307     3.0037    -5.1406  O.2     1  <O>11      -0.2699
   9 C6       -5.6515     4.3566    -6.6598  C.ar    1  <O>11       0.0723
  10 C7       -6.8631     4.9235    -6.2289  C.ar    1  <O>11      -0.0433
  11 C8       -7.2816     6.1610    -6.7312  C.ar    1  <O>11      -0.0406
  12 C9       -8.5574     6.7441    -6.2733  C.3     1  <O>11       0.0171
  13 C10      -8.9569     7.8439    -7.1903  C.ar    1  <O>11       0.0736
  14 N2       -9.7541     7.5674    -8.3071  N.ar    1  <O>11      -0.1750
  15 N3      -10.0398     8.5362    -9.2061  N.ar    1  <O>11      -0.2425
  16 C11      -9.5523     9.7848    -9.0060  C.ar    1  <O>11       0.2725
  17 O3       -9.8032    10.7197   -10.0283  O.2     1  <O>11      -0.2658
  18 C12      -8.8350    10.1685    -7.8653  C.ar    1  <O>11       0.0496
  19 C13      -8.3755    11.4834    -7.6243  C.ar    1  <O>11      -0.0487
  20 C14      -7.6381    11.7904    -6.4809  C.ar    1  <O>11      -0.0610
  21 C15      -7.3403    10.7930    -5.5608  C.ar    1  <O>11      -0.0611
  22 C16      -7.7791     9.4865    -5.7837  C.ar    1  <O>11      -0.0521
  23 C17      -8.5338     9.1585    -6.9332  C.ar    1  <O>11       0.0106
  24 C18      -6.4951     6.8440    -7.6632  C.ar    1  <O>11      -0.0555
  25 C19      -5.2863     6.2828    -8.0874  C.ar    1  <O>11      -0.0254
  26 C20      -4.8592     5.0499    -7.5912  C.ar    1  <O>11       0.1355
  27 F1       -3.6711     4.5031    -8.0025  F       1  <O>11      -0.2047
  28 C21      -5.1600     0.5901    -6.2862  C.3     1  <O>11       0.0173
  29 C22      -6.3429    -0.3502    -6.0776  C.3     1  <O>11      -0.0107
  30 H1       -5.9113    -2.9860    -8.8970  H       1  <O>11       0.0524
  31 H2       -7.4868    -2.8725    -8.0766  H       1  <O>11       0.0524
  32 H3       -5.9825    -2.6749    -7.1459  H       1  <O>11       0.0524
  33 H4       -8.1145    -1.0180    -7.0848  H       1  <O>11       0.0597
  34 H5       -8.1783     0.8522    -8.7396  H       1  <O>11       0.0305
  35 H6       -8.2787     1.4049    -7.0495  H       1  <O>11       0.0305
  36 H7       -5.8113     1.4164    -8.8230  H       1  <O>11       0.0465
  37 H8       -6.7479     2.8339    -8.2929  H       1  <O>11       0.0465
  38 H9       -8.4366     7.1379    -5.2647  H       1  <O>11       0.0377
  39 H10      -9.3299     5.9738    -6.2726  H       1  <O>11       0.0377
  40 H11     -10.6085     8.3303   -10.0166  H       1  <O>11       0.1921
  41 H12      -4.4797     0.1432    -7.0100  H       1  <O>11       0.0465
  42 H13      -4.6446     0.7226    -5.3349  H       1  <O>11       0.0465
  43 H14      -5.9649    -1.3445    -5.8387  H       1  <O>11       0.0305
  44 H15      -6.9448     0.0193    -5.2475  H       1  <O>11       0.0305
  45 H16      -7.4468     4.4250    -5.5391  H       1  <O>11       0.0629
  46 H17      -8.5892    12.2285    -8.3056  H       1  <O>11       0.0625
  47 H18      -7.3144    12.7568    -6.3187  H       1  <O>11       0.0618
  48 H19      -6.7955    11.0176    -4.7136  H       1  <O>11       0.0618
  49 H20      -7.5490     8.7491    -5.0993  H       1  <O>11       0.0624
  50 H21      -6.8040     7.7555    -8.0355  H       1  <O>11       0.0621
  51 H22      -4.7037     6.7858    -8.7749  H       1  <O>11       0.0646
@<TRIPOS>BOND
     1     1     2    1
     2     2     3    1
     3     3     4    1
     4     4     5    1
     5     5     6    1
     6     6     7   am
     7     7     8    2
     8     7     9    1
     9     9    10   ar
    10    10    11   ar
    11    11    12    1
    12    12    13    1
    13    13    14   ar
    14    14    15   ar
    15    15    16   ar
    16    16    17    2
    17    16    18   ar
    18    18    19   ar
    19    19    20   ar
    20    20    21   ar
    21    21    22   ar
    22    22    23   ar
    23    13    23   ar
    24    18    23   ar
    25    11    24   ar
    26    24    25   ar
    27    25    26   ar
    28     9    26   ar
    29    26    27    1
    30     6    28    1
    31    28    29    1
    32     3    29    1
    33     1    30    1
    34     1    31    1
    35     1    32    1
    36     3    33    1
    37     4    34    1
    38     4    35    1
    39     5    36    1
    40     5    37    1
    41    12    38    1
    42    12    39    1
    43    15    40    1
    44    28    41    1
    45    28    42    1
    46    29    43    1
    47    29    44    1
    48    10    45    1
    49    19    46    1
    50    20    47    1
    51    21    48    1
    52    22    49    1
    53    24    50    1
    54    25    51    1
@<TRIPOS>MOLECULE
mol21_1_15
 51 54 0 0 0
SMALL
USER_CHARGES
****
VDW energy = 1.20
@<TRIPOS>ATOM
   1 C1       -6.4677    -2.4869    -8.1037  C.3     1  <O>11       0.0368
   2 O1       -6.4969    -1.0912    -8.3528  O.3     1  <O>11      -0.3797
   3 C2       -7.2210    -0.4410    -7.3210  C.3     1  <O>11       0.0612
   4 C3       -7.6334     0.9465    -7.7996  C.3     1  <O>11      -0.0107
   5 C4       -6.4144     1.8341    -8.0167  C.3     1  <O>11       0.0173
   6 N1       -5.5849     1.9221    -6.7891  N.am    1  <O>11      -0.2973
   7 C5       -5.2205     3.0631    -6.1470  C.2     1  <O>11       0.2494
   8 O2       -5.5818     4.1479    -6.5771  O.2     1  <O>11      -0.2699
   9 C6       -4.4006     2.9921    -4.9452  C.ar    1  <O>11       0.0723
  10 C7       -5.0030     2.8951    -3.6792  C.ar    1  <O>11      -0.0433
  11 C8       -4.2142     2.8385    -2.5244  C.ar    1  <O>11      -0.0406
  12 C9       -4.8589     2.7401    -1.2008  C.3     1  <O>11       0.0171
  13 C10      -3.8659     3.0584    -0.1412  C.ar    1  <O>11       0.0736
  14 N2       -3.0906     2.0366     0.4192  N.ar    1  <O>11      -0.1750
  15 N3       -2.2585     2.2920     1.4539  N.ar    1  <O>11      -0.2425
  16 C11      -2.1760     3.5559     1.9361  C.ar    1  <O>11       0.2725
  17 O3       -1.3681     3.7336     3.0752  O.2     1  <O>11      -0.2658
  18 C12      -2.8379     4.6522     1.3679  C.ar    1  <O>11       0.0496
  19 C13      -2.7087     5.9817     1.8306  C.ar    1  <O>11      -0.0487
  20 C14      -3.4225     7.0231     1.2379  C.ar    1  <O>11      -0.0610
  21 C15      -4.2815     6.7585     0.1785  C.ar    1  <O>11      -0.0611
  22 C16      -4.4285     5.4512    -0.2890  C.ar    1  <O>11      -0.0521
  23 C17      -3.7075     4.3844     0.2947  C.ar    1  <O>11       0.0106
  24 C18      -2.8204     2.8747    -2.6225  C.ar    1  <O>11      -0.0555
  25 C19      -2.2206     2.9649    -3.8827  C.ar    1  <O>11      -0.0254
  26 C20      -2.9985     3.0202    -5.0406  C.ar    1  <O>11       0.1355
  27 F1       -2.4100     3.1023    -6.2763  F       1  <O>11      -0.2047
  28 C21      -5.1600     0.5901    -6.2862  C.3     1  <O>11       0.0173
  29 C22      -6.3429    -0.3502    -6.0776  C.3     1  <O>11      -0.0107
  30 H1       -5.9113    -2.9860    -8.8970  H       1  <O>11       0.0524
  31 H2       -7.4868    -2.8725    -8.0766  H       1  <O>11       0.0524
  32 H3       -5.9825    -2.6749    -7.1459  H       1  <O>11       0.0524
  33 H4       -8.1145    -1.0180    -7.0848  H       1  <O>11       0.0597
  34 H5       -8.1783     0.8522    -8.7396  H       1  <O>11       0.0305
  35 H6       -8.2787     1.4049    -7.0495  H       1  <O>11       0.0305
  36 H7       -5.8113     1.4164    -8.8230  H       1  <O>11       0.0465
  37 H8       -6.7479     2.8339    -8.2929  H       1  <O>11       0.0465
  38 H9       -5.2355     1.7284    -1.0535  H       1  <O>11       0.0377
  39 H10      -5.6872     3.4478    -1.1461  H       1  <O>11       0.0377
  40 H11      -1.7069     1.5492     1.8621  H       1  <O>11       0.1921
  41 H12      -4.4797     0.1432    -7.0100  H       1  <O>11       0.0465
  42 H13      -4.6446     0.7226    -5.3349  H       1  <O>11       0.0465
  43 H14      -5.9649    -1.3445    -5.8387  H       1  <O>11       0.0305
  44 H15      -6.9448     0.0193    -5.2475  H       1  <O>11       0.0305
  45 H16      -6.0316     2.8654    -3.6007  H       1  <O>11       0.0629
  46 H17      -2.0759     6.1850     2.6200  H       1  <O>11       0.0625
  47 H18      -3.3127     7.9885     1.5856  H       1  <O>11       0.0618
  48 H19      -4.8103     7.5273    -0.2624  H       1  <O>11       0.0618
  49 H20      -5.0730     5.2607    -1.0722  H       1  <O>11       0.0624
  50 H21      -2.2381     2.8351    -1.7714  H       1  <O>11       0.0621
  51 H22      -1.1916     2.9910    -3.9575  H       1  <O>11       0.0646
@<TRIPOS>BOND
     1     1     2    1
     2     2     3    1
     3     3     4    1
     4     4     5    1
     5     5     6    1
     6     6     7   am
     7     7     8    2
     8     7     9    1
     9     9    10   ar
    10    10    11   ar
    11    11    12    1
    12    12    13    1
    13    13    14   ar
    14    14    15   ar
    15    15    16   ar
    16    16    17    2
    17    16    18   ar
    18    18    19   ar
    19    19    20   ar
    20    20    21   ar
    21    21    22   ar
    22    22    23   ar
    23    13    23   ar
    24    18    23   ar
    25    11    24   ar
    26    24    25   ar
    27    25    26   ar
    28     9    26   ar
    29    26    27    1
    30     6    28    1
    31    28    29    1
    32     3    29    1
    33     1    30    1
    34     1    31    1
    35     1    32    1
    36     3    33    1
    37     4    34    1
    38     4    35    1
    39     5    36    1
    40     5    37    1
    41    12    38    1
    42    12    39    1
    43    15    40    1
    44    28    41    1
    45    28    42    1
    46    29    43    1
    47    29    44    1
    48    10    45    1
    49    19    46    1
    50    20    47    1
    51    21    48    1
    52    22    49    1
    53    24    50    1
    54    25    51    1
@<TRIPOS>MOLECULE
mol21_1_16
 51 54 0 0 0
SMALL
USER_CHARGES
****
VDW energy = 2.24
@<TRIPOS>ATOM
   1 C1       -6.4677    -2.4869    -8.1037  C.3     1  <O>11       0.0368
   2 O1       -6.4969    -1.0912    -8.3528  O.3     1  <O>11      -0.3797
   3 C2       -7.2210    -0.4410    -7.3210  C.3     1  <O>11       0.0612
   4 C3       -7.6334     0.9465    -7.7996  C.3     1  <O>11      -0.0107
   5 C4       -6.4144     1.8341    -8.0167  C.3     1  <O>11       0.0173
   6 N1       -5.5849     1.9221    -6.7891  N.am    1  <O>11      -0.2973
   7 C5       -5.2205     3.0631    -6.1470  C.2     1  <O>11       0.2494
   8 O2       -5.5818     4.1479    -6.5771  O.2     1  <O>11      -0.2699
   9 C6       -4.4006     2.9921    -4.9452  C.ar    1  <O>11       0.0723
  10 C7       -5.0030     2.8951    -3.6792  C.ar    1  <O>11      -0.0433
  11 C8       -4.2142     2.8385    -2.5244  C.ar    1  <O>11      -0.0406
  12 C9       -4.8589     2.7401    -1.2008  C.3     1  <O>11       0.0171
  13 C10      -3.8149     2.6953    -0.1433  C.ar    1  <O>11       0.0736
  14 N2       -3.3511     3.8844     0.4312  N.ar    1  <O>11      -0.1750
  15 N3       -2.3307     3.8685     1.3182  N.ar    1  <O>11      -0.2425
  16 C11      -1.7680     2.6820     1.6534  C.ar    1  <O>11       0.2725
  17 O3       -0.6478     2.7452     2.5038  O.2     1  <O>11      -0.2658
  18 C12      -2.2385     1.4411     1.2043  C.ar    1  <O>11       0.0496
  19 C13      -1.6924     0.1980     1.5976  C.ar    1  <O>11      -0.0487
  20 C14      -2.1892    -1.0009     1.0865  C.ar    1  <O>11      -0.0610
  21 C15      -3.2340    -0.9830     0.1708  C.ar    1  <O>11      -0.0611
  22 C16      -3.7827     0.2348    -0.2357  C.ar    1  <O>11      -0.0521
  23 C17      -3.2968     1.4593     0.2774  C.ar    1  <O>11       0.0106
  24 C18      -2.8204     2.8747    -2.6225  C.ar    1  <O>11      -0.0555
  25 C19      -2.2206     2.9649    -3.8827  C.ar    1  <O>11      -0.0254
  26 C20      -2.9985     3.0202    -5.0406  C.ar    1  <O>11       0.1355
  27 F1       -2.4100     3.1023    -6.2763  F       1  <O>11      -0.2047
  28 C21      -5.1600     0.5901    -6.2862  C.3     1  <O>11       0.0173
  29 C22      -6.3429    -0.3502    -6.0776  C.3     1  <O>11      -0.0107
  30 H1       -5.9113    -2.9860    -8.8970  H       1  <O>11       0.0524
  31 H2       -7.4868    -2.8725    -8.0766  H       1  <O>11       0.0524
  32 H3       -5.9825    -2.6749    -7.1459  H       1  <O>11       0.0524
  33 H4       -8.1145    -1.0180    -7.0848  H       1  <O>11       0.0597
  34 H5       -8.1783     0.8522    -8.7396  H       1  <O>11       0.0305
  35 H6       -8.2787     1.4049    -7.0495  H       1  <O>11       0.0305
  36 H7       -5.8113     1.4164    -8.8230  H       1  <O>11       0.0465
  37 H8       -6.7479     2.8339    -8.2929  H       1  <O>11       0.0465
  38 H9       -5.4609     1.8332    -1.1555  H       1  <O>11       0.0377
  39 H10      -5.4987     3.6093    -1.0422  H       1  <O>11       0.0377
  40 H11      -1.9923     4.7307     1.7241  H       1  <O>11       0.1921
  41 H12      -4.4797     0.1432    -7.0100  H       1  <O>11       0.0465
  42 H13      -4.6446     0.7226    -5.3349  H       1  <O>11       0.0465
  43 H14      -5.9649    -1.3445    -5.8387  H       1  <O>11       0.0305
  44 H15      -6.9448     0.0193    -5.2475  H       1  <O>11       0.0305
  45 H16      -6.0316     2.8654    -3.6007  H       1  <O>11       0.0629
  46 H17      -0.9133     0.1772     2.2740  H       1  <O>11       0.0625
  47 H18      -1.7815    -1.8997     1.3880  H       1  <O>11       0.0618
  48 H19      -3.6039    -1.8686    -0.2084  H       1  <O>11       0.0618
  49 H20      -4.5544     0.2412    -0.9209  H       1  <O>11       0.0624
  50 H21      -2.2381     2.8351    -1.7714  H       1  <O>11       0.0621
  51 H22      -1.1916     2.9910    -3.9575  H       1  <O>11       0.0646
@<TRIPOS>BOND
     1     1     2    1
     2     2     3    1
     3     3     4    1
     4     4     5    1
     5     5     6    1
     6     6     7   am
     7     7     8    2
     8     7     9    1
     9     9    10   ar
    10    10    11   ar
    11    11    12    1
    12    12    13    1
    13    13    14   ar
    14    14    15   ar
    15    15    16   ar
    16    16    17    2
    17    16    18   ar
    18    18    19   ar
    19    19    20   ar
    20    20    21   ar
    21    21    22   ar
    22    22    23   ar
    23    13    23   ar
    24    18    23   ar
    25    11    24   ar
    26    24    25   ar
    27    25    26   ar
    28     9    26   ar
    29    26    27    1
    30     6    28    1
    31    28    29    1
    32     3    29    1
    33     1    30    1
    34     1    31    1
    35     1    32    1
    36     3    33    1
    37     4    34    1
    38     4    35    1
    39     5    36    1
    40     5    37    1
    41    12    38    1
    42    12    39    1
    43    15    40    1
    44    28    41    1
    45    28    42    1
    46    29    43    1
    47    29    44    1
    48    10    45    1
    49    19    46    1
    50    20    47    1
    51    21    48    1
    52    22    49    1
    53    24    50    1
    54    25    51    1
@<TRIPOS>MOLECULE
mol21_1_17
 51 54 0 0 0
SMALL
USER_CHARGES
****
VDW energy = 2.56
@<TRIPOS>ATOM
   1 C1       -6.4677    -2.4869    -8.1037  C.3     1  <O>11       0.0368
   2 O1       -6.4969    -1.0912    -8.3528  O.3     1  <O>11      -0.3797
   3 C2       -7.2210    -0.4410    -7.3210  C.3     1  <O>11       0.0612
   4 C3       -7.6334     0.9465    -7.7996  C.3     1  <O>11      -0.0107
   5 C4       -6.4144     1.8341    -8.0167  C.3     1  <O>11       0.0173
   6 N1       -5.5849     1.9221    -6.7891  N.am    1  <O>11      -0.2973
   7 C5       -5.2205     3.0631    -6.1470  C.2     1  <O>11       0.2494
   8 O2       -5.5818     4.1479    -6.5771  O.2     1  <O>11      -0.2699
   9 C6       -4.4006     2.9921    -4.9452  C.ar    1  <O>11       0.0723
  10 C7       -2.9987     3.0198    -5.0393  C.ar    1  <O>11      -0.0433
  11 C8       -2.2119     2.9399    -3.8845  C.ar    1  <O>11      -0.0406
  12 C9       -0.7408     2.9666    -3.9969  C.3     1  <O>11       0.0171
  13 C10      -0.1378     2.5100    -2.7171  C.ar    1  <O>11       0.0736
  14 N2        0.1362     1.1516    -2.5195  N.ar    1  <O>11      -0.1750
  15 N3        0.5875     0.7068    -1.3250  N.ar    1  <O>11      -0.2425
  16 C11       0.7823     1.5968    -0.3217  C.ar    1  <O>11       0.2725
  17 O3        1.1573     1.0561     0.9229  O.2     1  <O>11      -0.2658
  18 C12       0.6310     2.9820    -0.4676  C.ar    1  <O>11       0.0496
  19 C13       0.8901     3.9190     0.5587  C.ar    1  <O>11      -0.0487
  20 C14       0.6878     5.2840     0.3554  C.ar    1  <O>11      -0.0610
  21 C15       0.2186     5.7393    -0.8705  C.ar    1  <O>11      -0.0611
  22 C16      -0.0499     4.8294    -1.8948  C.ar    1  <O>11      -0.0521
  23 C17       0.1564     3.4431    -1.7092  C.ar    1  <O>11       0.0106
  24 C18      -2.8155     2.8352    -2.6282  C.ar    1  <O>11      -0.0555
  25 C19      -4.2107     2.8138    -2.5339  C.ar    1  <O>11      -0.0254
  26 C20      -5.0044     2.8948    -3.6795  C.ar    1  <O>11       0.1355
  27 F1       -6.3722     2.8802    -3.5862  F       1  <O>11      -0.2047
  28 C21      -5.1600     0.5901    -6.2862  C.3     1  <O>11       0.0173
  29 C22      -6.3429    -0.3502    -6.0776  C.3     1  <O>11      -0.0107
  30 H1       -5.9113    -2.9860    -8.8970  H       1  <O>11       0.0524
  31 H2       -7.4868    -2.8725    -8.0766  H       1  <O>11       0.0524
  32 H3       -5.9825    -2.6749    -7.1459  H       1  <O>11       0.0524
  33 H4       -8.1145    -1.0180    -7.0848  H       1  <O>11       0.0597
  34 H5       -8.1783     0.8522    -8.7396  H       1  <O>11       0.0305
  35 H6       -8.2787     1.4049    -7.0495  H       1  <O>11       0.0305
  36 H7       -5.8113     1.4164    -8.8230  H       1  <O>11       0.0465
  37 H8       -6.7479     2.8339    -8.2929  H       1  <O>11       0.0465
  38 H9       -0.4105     3.9823    -4.2120  H       1  <O>11       0.0377
  39 H10      -0.4255     2.3034    -4.8035  H       1  <O>11       0.0377
  40 H11       0.7756    -0.2767    -1.1833  H       1  <O>11       0.1921
  41 H12      -4.4797     0.1432    -7.0100  H       1  <O>11       0.0465
  42 H13      -4.6446     0.7226    -5.3349  H       1  <O>11       0.0465
  43 H14      -5.9649    -1.3445    -5.8387  H       1  <O>11       0.0305
  44 H15      -6.9448     0.0193    -5.2475  H       1  <O>11       0.0305
  45 H16      -2.5474     3.0995    -5.9639  H       1  <O>11       0.0629
  46 H17       1.2346     3.5877     1.4733  H       1  <O>11       0.0625
  47 H18       0.8863     5.9546     1.1143  H       1  <O>11       0.0618
  48 H19       0.0687     6.7488    -1.0237  H       1  <O>11       0.0618
  49 H20      -0.4041     5.1738    -2.8008  H       1  <O>11       0.0624
  50 H21      -2.2360     2.7741    -1.7764  H       1  <O>11       0.0621
  51 H22      -4.6585     2.7374    -1.6072  H       1  <O>11       0.0646
@<TRIPOS>BOND
     1     1     2    1
     2     2     3    1
     3     3     4    1
     4     4     5    1
     5     5     6    1
     6     6     7   am
     7     7     8    2
     8     7     9    1
     9     9    10   ar
    10    10    11   ar
    11    11    12    1
    12    12    13    1
    13    13    14   ar
    14    14    15   ar
    15    15    16   ar
    16    16    17    2
    17    16    18   ar
    18    18    19   ar
    19    19    20   ar
    20    20    21   ar
    21    21    22   ar
    22    22    23   ar
    23    13    23   ar
    24    18    23   ar
    25    11    24   ar
    26    24    25   ar
    27    25    26   ar
    28     9    26   ar
    29    26    27    1
    30     6    28    1
    31    28    29    1
    32     3    29    1
    33     1    30    1
    34     1    31    1
    35     1    32    1
    36     3    33    1
    37     4    34    1
    38     4    35    1
    39     5    36    1
    40     5    37    1
    41    12    38    1
    42    12    39    1
    43    15    40    1
    44    28    41    1
    45    28    42    1
    46    29    43    1
    47    29    44    1
    48    10    45    1
    49    19    46    1
    50    20    47    1
    51    21    48    1
    52    22    49    1
    53    24    50    1
    54    25    51    1
@<TRIPOS>MOLECULE
mol21_1_18
 51 54 0 0 0
SMALL
USER_CHARGES
****
VDW energy = 3.85
@<TRIPOS>ATOM
   1 C1       -6.4677    -2.4869    -8.1037  C.3     1  <O>11       0.0368
   2 O1       -6.4969    -1.0912    -8.3528  O.3     1  <O>11      -0.3797
   3 C2       -7.2210    -0.4410    -7.3210  C.3     1  <O>11       0.0612
   4 C3       -7.6334     0.9465    -7.7996  C.3     1  <O>11      -0.0107
   5 C4       -6.4144     1.8341    -8.0167  C.3     1  <O>11       0.0173
   6 N1       -5.5849     1.9221    -6.7891  N.am    1  <O>11      -0.2973
   7 C5       -5.2205     3.0631    -6.1470  C.2     1  <O>11       0.2494
   8 O2       -5.5818     4.1479    -6.5771  O.2     1  <O>11      -0.2699
   9 C6       -4.4006     2.9921    -4.9452  C.ar    1  <O>11       0.0723
  10 C7       -5.0030     2.8951    -3.6792  C.ar    1  <O>11      -0.0433
  11 C8       -4.2142     2.8385    -2.5244  C.ar    1  <O>11      -0.0406
  12 C9       -4.8589     2.7401    -1.2008  C.3     1  <O>11       0.0171
  13 C10      -5.6794     1.5019    -1.1401  C.ar    1  <O>11       0.0736
  14 N2       -7.0572     1.5877    -0.9085  N.ar    1  <O>11      -0.1750
  15 N3       -7.7994     0.4689    -0.7476  N.ar    1  <O>11      -0.2425
  16 C11      -7.1927    -0.7405    -0.8245  C.ar    1  <O>11       0.2725
  17 O3       -8.0023    -1.8590    -0.5495  O.2     1  <O>11      -0.2658
  18 C12      -5.8424    -0.9162    -1.1541  C.ar    1  <O>11       0.0496
  19 C13      -5.2192    -2.1773    -1.2935  C.ar    1  <O>11      -0.0487
  20 C14      -3.8607    -2.2803    -1.5925  C.ar    1  <O>11      -0.0610
  21 C15      -3.0979    -1.1300    -1.7520  C.ar    1  <O>11      -0.0611
  22 C16      -3.6930     0.1251    -1.6116  C.ar    1  <O>11      -0.0521
  23 C17      -5.0700     0.2486    -1.3161  C.ar    1  <O>11       0.0106
  24 C18      -2.8204     2.8747    -2.6225  C.ar    1  <O>11      -0.0555
  25 C19      -2.2206     2.9649    -3.8827  C.ar    1  <O>11      -0.0254
  26 C20      -2.9985     3.0202    -5.0406  C.ar    1  <O>11       0.1355
  27 F1       -2.4100     3.1023    -6.2763  F       1  <O>11      -0.2047
  28 C21      -5.1600     0.5901    -6.2862  C.3     1  <O>11       0.0173
  29 C22      -6.3429    -0.3502    -6.0776  C.3     1  <O>11      -0.0107
  30 H1       -5.9113    -2.9860    -8.8970  H       1  <O>11       0.0524
  31 H2       -7.4868    -2.8725    -8.0766  H       1  <O>11       0.0524
  32 H3       -5.9825    -2.6749    -7.1459  H       1  <O>11       0.0524
  33 H4       -8.1145    -1.0180    -7.0848  H       1  <O>11       0.0597
  34 H5       -8.1783     0.8522    -8.7396  H       1  <O>11       0.0305
  35 H6       -8.2787     1.4049    -7.0495  H       1  <O>11       0.0305
  36 H7       -5.8113     1.4164    -8.8230  H       1  <O>11       0.0465
  37 H8       -6.7479     2.8339    -8.2929  H       1  <O>11       0.0465
  38 H9       -5.4985     3.6078    -1.0419  H       1  <O>11       0.0377
  39 H10      -4.0930     2.7063    -0.4247  H       1  <O>11       0.0377
  40 H11      -8.7929     0.5352    -0.5712  H       1  <O>11       0.1921
  41 H12      -4.4797     0.1432    -7.0100  H       1  <O>11       0.0465
  42 H13      -4.6446     0.7226    -5.3349  H       1  <O>11       0.0465
  43 H14      -5.9649    -1.3445    -5.8387  H       1  <O>11       0.0305
  44 H15      -6.9448     0.0193    -5.2475  H       1  <O>11       0.0305
  45 H16      -6.0316     2.8654    -3.6007  H       1  <O>11       0.0629
  46 H17      -5.7786    -3.0360    -1.1721  H       1  <O>11       0.0625
  47 H18      -3.4230    -3.2092    -1.6952  H       1  <O>11       0.0618
  48 H19      -2.0928    -1.2034    -1.9739  H       1  <O>11       0.0618
  49 H20      -3.1193     0.9753    -1.7252  H       1  <O>11       0.0624
  50 H21      -2.2381     2.8351    -1.7714  H       1  <O>11       0.0621
  51 H22      -1.1916     2.9910    -3.9575  H       1  <O>11       0.0646
@<TRIPOS>BOND
     1     1     2    1
     2     2     3    1
     3     3     4    1
     4     4     5    1
     5     5     6    1
     6     6     7   am
     7     7     8    2
     8     7     9    1
     9     9    10   ar
    10    10    11   ar
    11    11    12    1
    12    12    13    1
    13    13    14   ar
    14    14    15   ar
    15    15    16   ar
    16    16    17    2
    17    16    18   ar
    18    18    19   ar
    19    19    20   ar
    20    20    21   ar
    21    21    22   ar
    22    22    23   ar
    23    13    23   ar
    24    18    23   ar
    25    11    24   ar
    26    24    25   ar
    27    25    26   ar
    28     9    26   ar
    29    26    27    1
    30     6    28    1
    31    28    29    1
    32     3    29    1
    33     1    30    1
    34     1    31    1
    35     1    32    1
    36     3    33    1
    37     4    34    1
    38     4    35    1
    39     5    36    1
    40     5    37    1
    41    12    38    1
    42    12    39    1
    43    15    40    1
    44    28    41    1
    45    28    42    1
    46    29    43    1
    47    29    44    1
    48    10    45    1
    49    19    46    1
    50    20    47    1
    51    21    48    1
    52    22    49    1
    53    24    50    1
    54    25    51    1
@<TRIPOS>MOLECULE
mol21_1_19
 51 54 0 0 0
SMALL
USER_CHARGES
****
VDW energy = 6.39
@<TRIPOS>ATOM
   1 C1       -6.4677    -2.4869    -8.1037  C.3     1  <O>11       0.0368
   2 O1       -6.4969    -1.0912    -8.3528  O.3     1  <O>11      -0.3797
   3 C2       -7.2210    -0.4410    -7.3210  C.3     1  <O>11       0.0612
   4 C3       -7.6334     0.9465    -7.7996  C.3     1  <O>11      -0.0107
   5 C4       -6.4144     1.8341    -8.0167  C.3     1  <O>11       0.0173
   6 N1       -5.5849     1.9221    -6.7891  N.am    1  <O>11      -0.2973
   7 C5       -5.2205     3.0631    -6.1470  C.2     1  <O>11       0.2494
   8 O2       -4.5307     3.0037    -5.1406  O.2     1  <O>11      -0.2699
   9 C6       -5.6515     4.3566    -6.6598  C.ar    1  <O>11       0.0723
  10 C7       -4.8602     5.0508    -7.5908  C.ar    1  <O>11      -0.0433
  11 C8       -5.2698     6.2989    -8.0740  C.ar    1  <O>11      -0.0406
  12 C9       -4.4284     7.0194    -9.0487  C.3     1  <O>11       0.0171
  13 C10      -4.8678     8.4373    -9.1300  C.ar    1  <O>11       0.0736
  14 N2       -5.3170     8.9606   -10.3481  N.ar    1  <O>11      -0.1750
  15 N3       -5.6217    10.2729   -10.4633  N.ar    1  <O>11      -0.2425
  16 C11      -5.4970    11.0756    -9.3785  C.ar    1  <O>11       0.2725
  17 O3       -5.7342    12.4469    -9.5912  O.2     1  <O>11      -0.2658
  18 C12      -5.1539    10.6131    -8.1013  C.ar    1  <O>11       0.0496
  19 C13      -5.0802    11.4365    -6.9546  C.ar    1  <O>11      -0.0487
  20 C14      -4.7006    10.9160    -5.7175  C.ar    1  <O>11      -0.0610
  21 C15      -4.3822     9.5686    -5.6016  C.ar    1  <O>11      -0.0611
  22 C16      -4.4422     8.7399    -6.7236  C.ar    1  <O>11      -0.0521
  23 C17      -4.8320     9.2485    -7.9838  C.ar    1  <O>11       0.0106
  24 C18      -6.4717     6.8624    -7.6362  C.ar    1  <O>11      -0.0555
  25 C19      -7.2624     6.1688    -6.7145  C.ar    1  <O>11      -0.0254
  26 C20      -6.8634     4.9226    -6.2278  C.ar    1  <O>11       0.1355
  27 F1       -7.6420     4.2400    -5.3290  F       1  <O>11      -0.2047
  28 C21      -5.1600     0.5901    -6.2862  C.3     1  <O>11       0.0173
  29 C22      -6.3429    -0.3502    -6.0776  C.3     1  <O>11      -0.0107
  30 H1       -5.9113    -2.9860    -8.8970  H       1  <O>11       0.0524
  31 H2       -7.4868    -2.8725    -8.0766  H       1  <O>11       0.0524
  32 H3       -5.9825    -2.6749    -7.1459  H       1  <O>11       0.0524
  33 H4       -8.1145    -1.0180    -7.0848  H       1  <O>11       0.0597
  34 H5       -8.1783     0.8522    -8.7396  H       1  <O>11       0.0305
  35 H6       -8.2787     1.4049    -7.0495  H       1  <O>11       0.0305
  36 H7       -5.8113     1.4164    -8.8230  H       1  <O>11       0.0465
  37 H8       -6.7479     2.8339    -8.2929  H       1  <O>11       0.0465
  38 H9       -4.5249     6.5526   -10.0284  H       1  <O>11       0.0377
  39 H10      -3.3862     6.9804    -8.7287  H       1  <O>11       0.0377
  40 H11      -5.9371    10.6491   -11.3475  H       1  <O>11       0.1921
  41 H12      -4.4797     0.1432    -7.0100  H       1  <O>11       0.0465
  42 H13      -4.6446     0.7226    -5.3349  H       1  <O>11       0.0465
  43 H14      -5.9649    -1.3445    -5.8387  H       1  <O>11       0.0305
  44 H15      -6.9448     0.0193    -5.2475  H       1  <O>11       0.0305
  45 H16      -3.9730     4.6386    -7.9195  H       1  <O>11       0.0629
  46 H17      -5.3109    12.4392    -7.0341  H       1  <O>11       0.0625
  47 H18      -4.6564    11.5307    -4.8897  H       1  <O>11       0.0618
  48 H19      -4.1018     9.1808    -4.6873  H       1  <O>11       0.0618
  49 H20      -4.1984     7.7414    -6.6318  H       1  <O>11       0.0624
  50 H21      -6.7734     7.7836    -7.9905  H       1  <O>11       0.0621
  51 H22      -8.1505     6.5827    -6.3905  H       1  <O>11       0.0646
@<TRIPOS>BOND
     1     1     2    1
     2     2     3    1
     3     3     4    1
     4     4     5    1
     5     5     6    1
     6     6     7   am
     7     7     8    2
     8     7     9    1
     9     9    10   ar
    10    10    11   ar
    11    11    12    1
    12    12    13    1
    13    13    14   ar
    14    14    15   ar
    15    15    16   ar
    16    16    17    2
    17    16    18   ar
    18    18    19   ar
    19    19    20   ar
    20    20    21   ar
    21    21    22   ar
    22    22    23   ar
    23    13    23   ar
    24    18    23   ar
    25    11    24   ar
    26    24    25   ar
    27    25    26   ar
    28     9    26   ar
    29    26    27    1
    30     6    28    1
    31    28    29    1
    32     3    29    1
    33     1    30    1
    34     1    31    1
    35     1    32    1
    36     3    33    1
    37     4    34    1
    38     4    35    1
    39     5    36    1
    40     5    37    1
    41    12    38    1
    42    12    39    1
    43    15    40    1
    44    28    41    1
    45    28    42    1
    46    29    43    1
    47    29    44    1
    48    10    45    1
    49    19    46    1
    50    20    47    1
    51    21    48    1
    52    22    49    1
    53    24    50    1
    54    25    51    1
@<TRIPOS>MOLECULE
mol21_1_20
 51 54 0 0 0
SMALL
USER_CHARGES
****
VDW energy = 9.28
@<TRIPOS>ATOM
   1 C1       -6.4677    -2.4869    -8.1037  C.3     1  <O>11       0.0368
   2 O1       -6.4969    -1.0912    -8.3528  O.3     1  <O>11      -0.3797
   3 C2       -7.2210    -0.4410    -7.3210  C.3     1  <O>11       0.0612
   4 C3       -7.6334     0.9465    -7.7996  C.3     1  <O>11      -0.0107
   5 C4       -6.4144     1.8341    -8.0167  C.3     1  <O>11       0.0173
   6 N1       -5.5849     1.9221    -6.7891  N.am    1  <O>11      -0.2973
   7 C5       -5.2205     3.0631    -6.1470  C.2     1  <O>11       0.2494
   8 O2       -5.5818     4.1479    -6.5771  O.2     1  <O>11      -0.2699
   9 C6       -4.4006     2.9921    -4.9452  C.ar    1  <O>11       0.0723
  10 C7       -5.0030     2.8951    -3.6792  C.ar    1  <O>11      -0.0433
  11 C8       -4.2142     2.8385    -2.5244  C.ar    1  <O>11      -0.0406
  12 C9       -4.8589     2.7401    -1.2008  C.3     1  <O>11       0.0171
  13 C10      -3.8659     3.0584    -0.1412  C.ar    1  <O>11       0.0736
  14 N2       -3.5561     2.1044     0.8351  N.ar    1  <O>11      -0.1750
  15 N3       -2.7346     2.4133     1.8637  N.ar    1  <O>11      -0.2425
  16 C11      -2.2044     3.6587     1.9319  C.ar    1  <O>11       0.2725
  17 O3       -1.4390     3.9449     3.0782  O.2     1  <O>11      -0.2658
  18 C12      -2.3810     4.6367     0.9443  C.ar    1  <O>11       0.0496
  19 C13      -1.7821     5.9166     0.9818  C.ar    1  <O>11      -0.0487
  20 C14      -2.0262     6.8555    -0.0203  C.ar    1  <O>11      -0.0610
  21 C15      -2.8750     6.5390    -1.0737  C.ar    1  <O>11      -0.0611
  22 C16      -3.4818     5.2826    -1.1255  C.ar    1  <O>11      -0.0521
  23 C17      -3.2402     4.3159    -0.1227  C.ar    1  <O>11       0.0106
  24 C18      -2.8204     2.8747    -2.6225  C.ar    1  <O>11      -0.0555
  25 C19      -2.2206     2.9649    -3.8827  C.ar    1  <O>11      -0.0254
  26 C20      -2.9985     3.0202    -5.0406  C.ar    1  <O>11       0.1355
  27 F1       -2.4100     3.1023    -6.2763  F       1  <O>11      -0.2047
  28 C21      -5.1600     0.5901    -6.2862  C.3     1  <O>11       0.0173
  29 C22      -6.3429    -0.3502    -6.0776  C.3     1  <O>11      -0.0107
  30 H1       -5.9113    -2.9860    -8.8970  H       1  <O>11       0.0524
  31 H2       -7.4868    -2.8725    -8.0766  H       1  <O>11       0.0524
  32 H3       -5.9825    -2.6749    -7.1459  H       1  <O>11       0.0524
  33 H4       -8.1145    -1.0180    -7.0848  H       1  <O>11       0.0597
  34 H5       -8.1783     0.8522    -8.7396  H       1  <O>11       0.0305
  35 H6       -8.2787     1.4049    -7.0495  H       1  <O>11       0.0305
  36 H7       -5.8113     1.4164    -8.8230  H       1  <O>11       0.0465
  37 H8       -6.7479     2.8339    -8.2929  H       1  <O>11       0.0465
  38 H9       -5.2355     1.7284    -1.0535  H       1  <O>11       0.0377
  39 H10      -5.6872     3.4478    -1.1461  H       1  <O>11       0.0377
  40 H11      -2.5205     1.7241     2.5721  H       1  <O>11       0.1921
  41 H12      -4.4797     0.1432    -7.0100  H       1  <O>11       0.0465
  42 H13      -4.6446     0.7226    -5.3349  H       1  <O>11       0.0465
  43 H14      -5.9649    -1.3445    -5.8387  H       1  <O>11       0.0305
  44 H15      -6.9448     0.0193    -5.2475  H       1  <O>11       0.0305
  45 H16      -6.0316     2.8654    -3.6007  H       1  <O>11       0.0629
  46 H17      -1.1540     6.1603     1.7635  H       1  <O>11       0.0625
  47 H18      -1.5770     7.7837     0.0206  H       1  <O>11       0.0618
  48 H19      -3.0568     7.2316    -1.8168  H       1  <O>11       0.0618
  49 H20      -4.1161     5.0563    -1.9075  H       1  <O>11       0.0624
  50 H21      -2.2381     2.8351    -1.7714  H       1  <O>11       0.0621
  51 H22      -1.1916     2.9910    -3.9575  H       1  <O>11       0.0646
@<TRIPOS>BOND
     1     1     2    1
     2     2     3    1
     3     3     4    1
     4     4     5    1
     5     5     6    1
     6     6     7   am
     7     7     8    2
     8     7     9    1
     9     9    10   ar
    10    10    11   ar
    11    11    12    1
    12    12    13    1
    13    13    14   ar
    14    14    15   ar
    15    15    16   ar
    16    16    17    2
    17    16    18   ar
    18    18    19   ar
    19    19    20   ar
    20    20    21   ar
    21    21    22   ar
    22    22    23   ar
    23    13    23   ar
    24    18    23   ar
    25    11    24   ar
    26    24    25   ar
    27    25    26   ar
    28     9    26   ar
    29    26    27    1
    30     6    28    1
    31    28    29    1
    32     3    29    1
    33     1    30    1
    34     1    31    1
    35     1    32    1
    36     3    33    1
    37     4    34    1
    38     4    35    1
    39     5    36    1
    40     5    37    1
    41    12    38    1
    42    12    39    1
    43    15    40    1
    44    28    41    1
    45    28    42    1
    46    29    43    1
    47    29    44    1
    48    10    45    1
    49    19    46    1
    50    20    47    1
    51    21    48    1
    52    22    49    1
    53    24    50    1
    54    25    51    1
@<TRIPOS>MOLECULE
mol21_1_21
 51 54 0 0 0
SMALL
USER_CHARGES
****
VDW energy = 15.45
@<TRIPOS>ATOM
   1 C1       -6.4677    -2.4869    -8.1037  C.3     1  <O>11       0.0368
   2 O1       -6.4969    -1.0912    -8.3528  O.3     1  <O>11      -0.3797
   3 C2       -7.2210    -0.4410    -7.3210  C.3     1  <O>11       0.0612
   4 C3       -8.6930    -0.3725    -7.7120  C.3     1  <O>11      -0.0107
   5 C4       -8.8937     0.5213    -8.9294  C.3     1  <O>11       0.0173
   6 N1       -8.3432     1.8801    -8.6983  N.am    1  <O>11      -0.2973
   7 C5       -9.0240     3.0512    -8.8086  C.2     1  <O>11       0.2494
   8 O2       -8.4556     4.1106    -8.5926  O.2     1  <O>11      -0.2699
   9 C6      -10.4309     3.0427    -9.1859  C.ar    1  <O>11       0.0723
  10 C7      -11.3364     3.9238    -8.5707  C.ar    1  <O>11      -0.0433
  11 C8      -12.6901     3.9066    -8.9259  C.ar    1  <O>11      -0.0406
  12 C9      -13.6316     4.8345    -8.2701  C.3     1  <O>11       0.0171
  13 C10     -13.6988     6.1016    -9.0446  C.ar    1  <O>11       0.0736
  14 N2      -14.6397     6.2438   -10.0711  N.ar    1  <O>11      -0.1750
  15 N3      -14.6456     7.3477   -10.8519  N.ar    1  <O>11      -0.2425
  16 C11     -13.7333     8.3228   -10.6205  C.ar    1  <O>11       0.2725
  17 O3      -13.7299     9.3973   -11.5301  O.2     1  <O>11      -0.2658
  18 C12     -12.8268     8.3053    -9.5524  C.ar    1  <O>11       0.0496
  19 C13     -11.9135     9.3472    -9.2720  C.ar    1  <O>11      -0.0487
  20 C14     -11.0151     9.2509    -8.2095  C.ar    1  <O>11      -0.0610
  21 C15     -11.0061     8.1136    -7.4114  C.ar    1  <O>11      -0.0611
  22 C16     -11.8956     7.0704    -7.6759  C.ar    1  <O>11      -0.0521
  23 C17     -12.8181     7.1538    -8.7439  C.ar    1  <O>11       0.0106
  24 C18     -13.1506     3.0145    -9.8984  C.ar    1  <O>11      -0.0555
  25 C19     -12.2484     2.1419   -10.5152  C.ar    1  <O>11      -0.0254
  26 C20     -10.8960     2.1524   -10.1692  C.ar    1  <O>11       0.1355
  27 F1      -10.0107     1.3011   -10.7787  F       1  <O>11      -0.2047
  28 C21      -6.9081     1.8608    -8.3137  C.3     1  <O>11       0.0173
  29 C22      -6.6463     0.9562    -7.1138  C.3     1  <O>11      -0.0107
  30 H1       -5.9113    -2.9860    -8.8970  H       1  <O>11       0.0524
  31 H2       -7.4868    -2.8725    -8.0766  H       1  <O>11       0.0524
  32 H3       -5.9825    -2.6749    -7.1459  H       1  <O>11       0.0524
  33 H4       -7.1229    -1.0075    -6.3955  H       1  <O>11       0.0597
  34 H5       -9.0474    -1.3773    -7.9446  H       1  <O>11       0.0305
  35 H6       -9.2653     0.0308    -6.8759  H       1  <O>11       0.0305
  36 H7       -8.3868     0.0740    -9.7845  H       1  <O>11       0.0465
  37 H8       -9.9598     0.6006    -9.1396  H       1  <O>11       0.0465
  38 H9      -13.2890     5.0455    -7.2575  H       1  <O>11       0.0377
  39 H10     -14.6225     4.3801    -8.2312  H       1  <O>11       0.0377
  40 H11     -15.3211     7.4426   -11.5984  H       1  <O>11       0.1921
  41 H12      -6.3238     1.5002    -9.1593  H       1  <O>11       0.0465
  42 H13      -6.5986     2.8754    -8.0629  H       1  <O>11       0.0465
  43 H14      -5.5698     0.8763    -6.9608  H       1  <O>11       0.0305
  44 H15      -7.1072     1.3993    -6.2310  H       1  <O>11       0.0305
  45 H16     -11.0018     4.5864    -7.8537  H       1  <O>11       0.0629
  46 H17     -11.9115    10.1930    -9.8633  H       1  <O>11       0.0625
  47 H18     -10.3583    10.0231    -8.0164  H       1  <O>11       0.0618
  48 H19     -10.3429     8.0402    -6.6242  H       1  <O>11       0.0618
  49 H20     -11.8793     6.2259    -7.0830  H       1  <O>11       0.0624
  50 H21     -14.1490     2.9999   -10.1594  H       1  <O>11       0.0621
  51 H22     -12.5862     1.4830   -11.2341  H       1  <O>11       0.0646
@<TRIPOS>BOND
     1     1     2    1
     2     2     3    1
     3     3     4    1
     4     4     5    1
     5     5     6    1
     6     6     7   am
     7     7     8    2
     8     7     9    1
     9     9    10   ar
    10    10    11   ar
    11    11    12    1
    12    12    13    1
    13    13    14   ar
    14    14    15   ar
    15    15    16   ar
    16    16    17    2
    17    16    18   ar
    18    18    19   ar
    19    19    20   ar
    20    20    21   ar
    21    21    22   ar
    22    22    23   ar
    23    13    23   ar
    24    18    23   ar
    25    11    24   ar
    26    24    25   ar
    27    25    26   ar
    28     9    26   ar
    29    26    27    1
    30     6    28    1
    31    28    29    1
    32     3    29    1
    33     1    30    1
    34     1    31    1
    35     1    32    1
    36     3    33    1
    37     4    34    1
    38     4    35    1
    39     5    36    1
    40     5    37    1
    41    12    38    1
    42    12    39    1
    43    15    40    1
    44    28    41    1
    45    28    42    1
    46    29    43    1
    47    29    44    1
    48    10    45    1
    49    19    46    1
    50    20    47    1
    51    21    48    1
    52    22    49    1
    53    24    50    1
    54    25    51    1
@<TRIPOS>MOLECULE
mol21_1_22
 51 54 0 0 0
SMALL
USER_CHARGES
****
VDW energy = 15.50
@<TRIPOS>ATOM
   1 C1       -6.4677    -2.4869    -8.1037  C.3     1  <O>11       0.0368
   2 O1       -6.4969    -1.0912    -8.3528  O.3     1  <O>11      -0.3797
   3 C2       -7.2210    -0.4410    -7.3210  C.3     1  <O>11       0.0612
   4 C3       -7.6334     0.9465    -7.7996  C.3     1  <O>11      -0.0107
   5 C4       -6.4144     1.8341    -8.0167  C.3     1  <O>11       0.0173
   6 N1       -5.5849     1.9221    -6.7891  N.am    1  <O>11      -0.2973
   7 C5       -5.2205     3.0631    -6.1470  C.2     1  <O>11       0.2494
   8 O2       -4.5307     3.0037    -5.1406  O.2     1  <O>11      -0.2699
   9 C6       -5.6515     4.3566    -6.6598  C.ar    1  <O>11       0.0723
  10 C7       -6.0534     5.3728    -5.7762  C.ar    1  <O>11      -0.0433
  11 C8       -6.4782     6.6113    -6.2708  C.ar    1  <O>11      -0.0406
  12 C9       -6.9009     7.6689    -5.3328  C.3     1  <O>11       0.0171
  13 C10      -8.0535     7.1856    -4.5278  C.ar    1  <O>11       0.0736
  14 N2       -7.8298     6.5247    -3.3144  N.ar    1  <O>11      -0.1750
  15 N3       -8.8601     5.9885    -2.6221  N.ar    1  <O>11      -0.2425
  16 C11     -10.1173     6.1089    -3.1137  C.ar    1  <O>11       0.2725
  17 O3      -11.1299     5.4438    -2.3966  O.2     1  <O>11      -0.2658
  18 C12     -10.4380     6.8412    -4.2643  C.ar    1  <O>11       0.0496
  19 C13     -11.7543     7.0191    -4.7480  C.ar    1  <O>11      -0.0487
  20 C14     -12.0004     7.7346    -5.9197  C.ar    1  <O>11      -0.0610
  21 C15     -10.9405     8.2801    -6.6333  C.ar    1  <O>11      -0.0611
  22 C16      -9.6324     8.1099    -6.1759  C.ar    1  <O>11      -0.0521
  23 C17      -9.3647     7.3941    -4.9866  C.ar    1  <O>11       0.0106
  24 C18      -6.5026     6.8474    -7.6482  C.ar    1  <O>11      -0.0555
  25 C19      -6.0968     5.8383    -8.5274  C.ar    1  <O>11      -0.0254
  26 C20      -5.6697     4.6003    -8.0441  C.ar    1  <O>11       0.1355
  27 F1       -5.2659     3.6134    -8.9061  F       1  <O>11      -0.2047
  28 C21      -5.1600     0.5901    -6.2862  C.3     1  <O>11       0.0173
  29 C22      -6.3429    -0.3502    -6.0776  C.3     1  <O>11      -0.0107
  30 H1       -5.9113    -2.9860    -8.8970  H       1  <O>11       0.0524
  31 H2       -7.4868    -2.8725    -8.0766  H       1  <O>11       0.0524
  32 H3       -5.9825    -2.6749    -7.1459  H       1  <O>11       0.0524
  33 H4       -8.1145    -1.0180    -7.0848  H       1  <O>11       0.0597
  34 H5       -8.1783     0.8522    -8.7396  H       1  <O>11       0.0305
  35 H6       -8.2787     1.4049    -7.0495  H       1  <O>11       0.0305
  36 H7       -5.8113     1.4164    -8.8230  H       1  <O>11       0.0465
  37 H8       -6.7479     2.8339    -8.2929  H       1  <O>11       0.0465
  38 H9       -7.1955     8.5559    -5.8928  H       1  <O>11       0.0377
  39 H10      -6.0728     7.9176    -4.6677  H       1  <O>11       0.0377
  40 H11      -8.6934     5.5037    -1.7504  H       1  <O>11       0.1921
  41 H12      -4.4797     0.1432    -7.0100  H       1  <O>11       0.0465
  42 H13      -4.6446     0.7226    -5.3349  H       1  <O>11       0.0465
  43 H14      -5.9649    -1.3445    -5.8387  H       1  <O>11       0.0305
  44 H15      -6.9448     0.0193    -5.2475  H       1  <O>11       0.0305
  45 H16      -6.0351     5.2050    -4.7581  H       1  <O>11       0.0629
  46 H17     -12.5462     6.6129    -4.2256  H       1  <O>11       0.0625
  47 H18     -12.9682     7.8585    -6.2560  H       1  <O>11       0.0618
  48 H19     -11.1198     8.8106    -7.5001  H       1  <O>11       0.0618
  49 H20      -8.8492     8.5124    -6.7142  H       1  <O>11       0.0624
  50 H21      -6.8177     7.7596    -8.0138  H       1  <O>11       0.0621
  51 H22      -6.1132     6.0109    -9.5448  H       1  <O>11       0.0646
@<TRIPOS>BOND
     1     1     2    1
     2     2     3    1
     3     3     4    1
     4     4     5    1
     5     5     6    1
     6     6     7   am
     7     7     8    2
     8     7     9    1
     9     9    10   ar
    10    10    11   ar
    11    11    12    1
    12    12    13    1
    13    13    14   ar
    14    14    15   ar
    15    15    16   ar
    16    16    17    2
    17    16    18   ar
    18    18    19   ar
    19    19    20   ar
    20    20    21   ar
    21    21    22   ar
    22    22    23   ar
    23    13    23   ar
    24    18    23   ar
    25    11    24   ar
    26    24    25   ar
    27    25    26   ar
    28     9    26   ar
    29    26    27    1
    30     6    28    1
    31    28    29    1
    32     3    29    1
    33     1    30    1
    34     1    31    1
    35     1    32    1
    36     3    33    1
    37     4    34    1
    38     4    35    1
    39     5    36    1
    40     5    37    1
    41    12    38    1
    42    12    39    1
    43    15    40    1
    44    28    41    1
    45    28    42    1
    46    29    43    1
    47    29    44    1
    48    10    45    1
    49    19    46    1
    50    20    47    1
    51    21    48    1
    52    22    49    1
    53    24    50    1
    54    25    51    1
@<TRIPOS>MOLECULE
mol21_1_23
 51 54 0 0 0
SMALL
USER_CHARGES
****
VDW energy = 29.27
@<TRIPOS>ATOM
   1 C1       -6.4677    -2.4869    -8.1037  C.3     1  <O>11       0.0368
   2 O1       -6.4969    -1.0912    -8.3528  O.3     1  <O>11      -0.3797
   3 C2       -7.2210    -0.4410    -7.3210  C.3     1  <O>11       0.0612
   4 C3       -7.6334     0.9465    -7.7996  C.3     1  <O>11      -0.0107
   5 C4       -6.4144     1.8341    -8.0167  C.3     1  <O>11       0.0173
   6 N1       -5.5849     1.9221    -6.7891  N.am    1  <O>11      -0.2973
   7 C5       -5.2205     3.0631    -6.1470  C.2     1  <O>11       0.2494
   8 O2       -4.5307     3.0037    -5.1406  O.2     1  <O>11      -0.2699
   9 C6       -5.6515     4.3566    -6.6598  C.ar    1  <O>11       0.0723
  10 C7       -6.9047     4.4924    -7.2812  C.ar    1  <O>11      -0.0433
  11 C8       -7.3127     5.7333    -7.7838  C.ar    1  <O>11      -0.0406
  12 C9       -8.6295     5.8621    -8.4371  C.3     1  <O>11       0.0171
  13 C10      -9.6549     6.2144    -7.4200  C.ar    1  <O>11       0.0736
  14 N2       -9.9254     7.5584    -7.1372  N.ar    1  <O>11      -0.1750
  15 N3      -10.7785     7.8949    -6.1437  N.ar    1  <O>11      -0.2425
  16 C11     -11.3789     6.9116    -5.4300  C.ar    1  <O>11       0.2725
  17 O3      -12.1766     7.3294    -4.3479  O.2     1  <O>11      -0.2658
  18 C12     -11.2427     5.5467    -5.7150  C.ar    1  <O>11       0.0496
  19 C13     -11.9131     4.5203    -5.0111  C.ar    1  <O>11      -0.0487
  20 C14     -11.7070     3.1774    -5.3266  C.ar    1  <O>11      -0.0610
  21 C15     -10.8257     2.8326    -6.3438  C.ar    1  <O>11      -0.0611
  22 C16     -10.1485     3.8311    -7.0465  C.ar    1  <O>11      -0.0521
  23 C17     -10.3506     5.1975    -6.7454  C.ar    1  <O>11       0.0106
  24 C18      -6.4773     6.8479    -7.6681  C.ar    1  <O>11      -0.0555
  25 C19      -5.2328     6.7143    -7.0443  C.ar    1  <O>11      -0.0254
  26 C20      -4.8173     5.4814    -6.5381  C.ar    1  <O>11       0.1355
  27 F1       -3.5999     5.3522    -5.9209  F       1  <O>11      -0.2047
  28 C21      -5.1600     0.5901    -6.2862  C.3     1  <O>11       0.0173
  29 C22      -6.3429    -0.3502    -6.0776  C.3     1  <O>11      -0.0107
  30 H1       -5.9113    -2.9860    -8.8970  H       1  <O>11       0.0524
  31 H2       -7.4868    -2.8725    -8.0766  H       1  <O>11       0.0524
  32 H3       -5.9825    -2.6749    -7.1459  H       1  <O>11       0.0524
  33 H4       -8.1145    -1.0180    -7.0848  H       1  <O>11       0.0597
  34 H5       -8.1783     0.8522    -8.7396  H       1  <O>11       0.0305
  35 H6       -8.2787     1.4049    -7.0495  H       1  <O>11       0.0305
  36 H7       -5.8113     1.4164    -8.8230  H       1  <O>11       0.0465
  37 H8       -6.7479     2.8339    -8.2929  H       1  <O>11       0.0465
  38 H9       -8.8959     4.9169    -8.9090  H       1  <O>11       0.0377
  39 H10      -8.5849     6.6464    -9.1940  H       1  <O>11       0.0377
  40 H11     -10.9643     8.8671    -5.9364  H       1  <O>11       0.1921
  41 H12      -4.4797     0.1432    -7.0100  H       1  <O>11       0.0465
  42 H13      -4.6446     0.7226    -5.3349  H       1  <O>11       0.0465
  43 H14      -5.9649    -1.3445    -5.8387  H       1  <O>11       0.0305
  44 H15      -6.9448     0.0193    -5.2475  H       1  <O>11       0.0305
  45 H16      -7.5268     3.6735    -7.3672  H       1  <O>11       0.0629
  46 H17     -12.5658     4.7687    -4.2513  H       1  <O>11       0.0625
  47 H18     -12.2083     2.4412    -4.8053  H       1  <O>11       0.0618
  48 H19     -10.6719     1.8398    -6.5797  H       1  <O>11       0.0618
  49 H20      -9.4906     3.5678    -7.7967  H       1  <O>11       0.0624
  50 H21      -6.7766     7.7628    -8.0403  H       1  <O>11       0.0621
  51 H22      -4.6148     7.5362    -6.9571  H       1  <O>11       0.0646
@<TRIPOS>BOND
     1     1     2    1
     2     2     3    1
     3     3     4    1
     4     4     5    1
     5     5     6    1
     6     6     7   am
     7     7     8    2
     8     7     9    1
     9     9    10   ar
    10    10    11   ar
    11    11    12    1
    12    12    13    1
    13    13    14   ar
    14    14    15   ar
    15    15    16   ar
    16    16    17    2
    17    16    18   ar
    18    18    19   ar
    19    19    20   ar
    20    20    21   ar
    21    21    22   ar
    22    22    23   ar
    23    13    23   ar
    24    18    23   ar
    25    11    24   ar
    26    24    25   ar
    27    25    26   ar
    28     9    26   ar
    29    26    27    1
    30     6    28    1
    31    28    29    1
    32     3    29    1
    33     1    30    1
    34     1    31    1
    35     1    32    1
    36     3    33    1
    37     4    34    1
    38     4    35    1
    39     5    36    1
    40     5    37    1
    41    12    38    1
    42    12    39    1
    43    15    40    1
    44    28    41    1
    45    28    42    1
    46    29    43    1
    47    29    44    1
    48    10    45    1
    49    19    46    1
    50    20    47    1
    51    21    48    1
    52    22    49    1
    53    24    50    1
    54    25    51    1
@<TRIPOS>MOLECULE
mol21_1_24
 51 54 0 0 0
SMALL
USER_CHARGES
****
VDW energy = 32.58
@<TRIPOS>ATOM
   1 C1       -6.4677    -2.4869    -8.1037  C.3     1  <O>11       0.0368
   2 O1       -6.4969    -1.0912    -8.3528  O.3     1  <O>11      -0.3797
   3 C2       -7.2210    -0.4410    -7.3210  C.3     1  <O>11       0.0612
   4 C3       -7.6334     0.9465    -7.7996  C.3     1  <O>11      -0.0107
   5 C4       -6.4144     1.8341    -8.0167  C.3     1  <O>11       0.0173
   6 N1       -5.5849     1.9221    -6.7891  N.am    1  <O>11      -0.2973
   7 C5       -5.2205     3.0631    -6.1470  C.2     1  <O>11       0.2494
   8 O2       -4.5307     3.0037    -5.1406  O.2     1  <O>11      -0.2699
   9 C6       -5.6515     4.3566    -6.6598  C.ar    1  <O>11       0.0723
  10 C7       -6.9047     4.4924    -7.2812  C.ar    1  <O>11      -0.0433
  11 C8       -7.3127     5.7333    -7.7838  C.ar    1  <O>11      -0.0406
  12 C9       -8.6295     5.8621    -8.4371  C.3     1  <O>11       0.0171
  13 C10      -8.6839     7.1403    -9.1944  C.ar    1  <O>11       0.0736
  14 N2       -9.1413     8.3050    -8.5669  N.ar    1  <O>11      -0.1750
  15 N3       -9.2947     9.4505    -9.2688  N.ar    1  <O>11      -0.2425
  16 C11      -8.9886     9.4599   -10.5890  C.ar    1  <O>11       0.2725
  17 O3       -9.2646    10.6544   -11.2811  O.2     1  <O>11      -0.2658
  18 C12      -8.4296     8.3692   -11.2678  C.ar    1  <O>11       0.0496
  19 C13      -8.0538     8.3930   -12.6304  C.ar    1  <O>11      -0.0487
  20 C14      -7.5315     7.2596   -13.2533  C.ar    1  <O>11      -0.0610
  21 C15      -7.3798     6.0815   -12.5326  C.ar    1  <O>11      -0.0611
  22 C16      -7.7513     6.0354   -11.1876  C.ar    1  <O>11      -0.0521
  23 C17      -8.2754     7.1763   -10.5378  C.ar    1  <O>11       0.0106
  24 C18      -6.4773     6.8479    -7.6681  C.ar    1  <O>11      -0.0555
  25 C19      -5.2328     6.7143    -7.0443  C.ar    1  <O>11      -0.0254
  26 C20      -4.8173     5.4814    -6.5381  C.ar    1  <O>11       0.1355
  27 F1       -3.5999     5.3522    -5.9209  F       1  <O>11      -0.2047
  28 C21      -5.1600     0.5901    -6.2862  C.3     1  <O>11       0.0173
  29 C22      -6.3429    -0.3502    -6.0776  C.3     1  <O>11      -0.0107
  30 H1       -5.9113    -2.9860    -8.8970  H       1  <O>11       0.0524
  31 H2       -7.4868    -2.8725    -8.0766  H       1  <O>11       0.0524
  32 H3       -5.9825    -2.6749    -7.1459  H       1  <O>11       0.0524
  33 H4       -8.1145    -1.0180    -7.0848  H       1  <O>11       0.0597
  34 H5       -8.1783     0.8522    -8.7396  H       1  <O>11       0.0305
  35 H6       -8.2787     1.4049    -7.0495  H       1  <O>11       0.0305
  36 H7       -5.8113     1.4164    -8.8230  H       1  <O>11       0.0465
  37 H8       -6.7479     2.8339    -8.2929  H       1  <O>11       0.0465
  38 H9       -9.4136     5.8545    -7.6806  H       1  <O>11       0.0377
  39 H10      -8.7785     5.0273    -9.1233  H       1  <O>11       0.0377
  40 H11      -9.6341    10.2874    -8.8140  H       1  <O>11       0.1921
  41 H12      -4.4797     0.1432    -7.0100  H       1  <O>11       0.0465
  42 H13      -4.6446     0.7226    -5.3349  H       1  <O>11       0.0465
  43 H14      -5.9649    -1.3445    -5.8387  H       1  <O>11       0.0305
  44 H15      -6.9448     0.0193    -5.2475  H       1  <O>11       0.0305
  45 H16      -7.5268     3.6735    -7.3672  H       1  <O>11       0.0629
  46 H17      -8.1678     9.2633   -13.1731  H       1  <O>11       0.0625
  47 H18      -7.2582     7.2961   -14.2478  H       1  <O>11       0.0618
  48 H19      -6.9929     5.2417   -12.9909  H       1  <O>11       0.0618
  49 H20      -7.6417     5.1553   -10.6598  H       1  <O>11       0.0624
  50 H21      -6.7766     7.7628    -8.0403  H       1  <O>11       0.0621
  51 H22      -4.6148     7.5362    -6.9571  H       1  <O>11       0.0646
@<TRIPOS>BOND
     1     1     2    1
     2     2     3    1
     3     3     4    1
     4     4     5    1
     5     5     6    1
     6     6     7   am
     7     7     8    2
     8     7     9    1
     9     9    10   ar
    10    10    11   ar
    11    11    12    1
    12    12    13    1
    13    13    14   ar
    14    14    15   ar
    15    15    16   ar
    16    16    17    2
    17    16    18   ar
    18    18    19   ar
    19    19    20   ar
    20    20    21   ar
    21    21    22   ar
    22    22    23   ar
    23    13    23   ar
    24    18    23   ar
    25    11    24   ar
    26    24    25   ar
    27    25    26   ar
    28     9    26   ar
    29    26    27    1
    30     6    28    1
    31    28    29    1
    32     3    29    1
    33     1    30    1
    34     1    31    1
    35     1    32    1
    36     3    33    1
    37     4    34    1
    38     4    35    1
    39     5    36    1
    40     5    37    1
    41    12    38    1
    42    12    39    1
    43    15    40    1
    44    28    41    1
    45    28    42    1
    46    29    43    1
    47    29    44    1
    48    10    45    1
    49    19    46    1
    50    20    47    1
    51    21    48    1
    52    22    49    1
    53    24    50    1
    54    25    51    1
@<TRIPOS>MOLECULE
mol21_1_25
 51 54 0 0 0
SMALL
USER_CHARGES
****
VDW energy = 34.21
@<TRIPOS>ATOM
   1 C1       -6.4677    -2.4869    -8.1037  C.3     1  <O>11       0.0368
   2 O1       -6.4969    -1.0912    -8.3528  O.3     1  <O>11      -0.3797
   3 C2       -7.2210    -0.4410    -7.3210  C.3     1  <O>11       0.0612
   4 C3       -7.6334     0.9465    -7.7996  C.3     1  <O>11      -0.0107
   5 C4       -6.4144     1.8341    -8.0167  C.3     1  <O>11       0.0173
   6 N1       -5.5849     1.9221    -6.7891  N.am    1  <O>11      -0.2973
   7 C5       -5.2205     3.0631    -6.1470  C.2     1  <O>11       0.2494
   8 O2       -5.5818     4.1479    -6.5771  O.2     1  <O>11      -0.2699
   9 C6       -4.4006     2.9921    -4.9452  C.ar    1  <O>11       0.0723
  10 C7       -4.6551     3.8483    -3.8602  C.ar    1  <O>11      -0.0433
  11 C8       -3.8592     3.7869    -2.7105  C.ar    1  <O>11      -0.0406
  12 C9       -4.1345     4.6936    -1.5795  C.3     1  <O>11       0.0171
  13 C10      -2.9701     4.7005    -0.6552  C.ar    1  <O>11       0.0736
  14 N2       -2.9096     3.7816     0.3989  N.ar    1  <O>11      -0.1750
  15 N3       -1.9108     3.8416     1.3084  N.ar    1  <O>11      -0.2425
  16 C11      -0.9599     4.7986     1.1799  C.ar    1  <O>11       0.2725
  17 O3       -0.0065     4.8682     2.2133  O.2     1  <O>11      -0.2658
  18 C12      -0.8901     5.6888     0.1002  C.ar    1  <O>11       0.0496
  19 C13       0.1330     6.6495    -0.0687  C.ar    1  <O>11      -0.0487
  20 C14       0.1245     7.5278    -1.1522  C.ar    1  <O>11      -0.0610
  21 C15      -0.9054     7.4690    -2.0829  C.ar    1  <O>11      -0.0611
  22 C16      -1.9290     6.5318    -1.9303  C.ar    1  <O>11      -0.0521
  23 C17      -1.9327     5.6289    -0.8425  C.ar    1  <O>11       0.0106
  24 C18      -2.8069     2.8703    -2.6320  C.ar    1  <O>11      -0.0555
  25 C19      -2.5574     2.0139    -3.7092  C.ar    1  <O>11      -0.0254
  26 C20      -3.3465     2.0661    -4.8596  C.ar    1  <O>11       0.1355
  27 F1       -3.1056     1.2220    -5.9128  F       1  <O>11      -0.2047
  28 C21      -5.1600     0.5901    -6.2862  C.3     1  <O>11       0.0173
  29 C22      -6.3429    -0.3502    -6.0776  C.3     1  <O>11      -0.0107
  30 H1       -5.9113    -2.9860    -8.8970  H       1  <O>11       0.0524
  31 H2       -7.4868    -2.8725    -8.0766  H       1  <O>11       0.0524
  32 H3       -5.9825    -2.6749    -7.1459  H       1  <O>11       0.0524
  33 H4       -8.1145    -1.0180    -7.0848  H       1  <O>11       0.0597
  34 H5       -8.1783     0.8522    -8.7396  H       1  <O>11       0.0305
  35 H6       -8.2787     1.4049    -7.0495  H       1  <O>11       0.0305
  36 H7       -5.8113     1.4164    -8.8230  H       1  <O>11       0.0465
  37 H8       -6.7479     2.8339    -8.2929  H       1  <O>11       0.0465
  38 H9       -5.0202     4.3510    -1.0453  H       1  <O>11       0.0377
  39 H10      -4.3050     5.7033    -1.9557  H       1  <O>11       0.0377
  40 H11      -1.8757     3.1817     2.0738  H       1  <O>11       0.1921
  41 H12      -4.4797     0.1432    -7.0100  H       1  <O>11       0.0465
  42 H13      -4.6446     0.7226    -5.3349  H       1  <O>11       0.0465
  43 H14      -5.9649    -1.3445    -5.8387  H       1  <O>11       0.0305
  44 H15      -6.9448     0.0193    -5.2475  H       1  <O>11       0.0305
  45 H16      -5.4323     4.5254    -3.9115  H       1  <O>11       0.0629
  46 H17       0.8989     6.7020     0.6210  H       1  <O>11       0.0625
  47 H18       0.8819     8.2200    -1.2624  H       1  <O>11       0.0618
  48 H19      -0.9137     8.1171    -2.8859  H       1  <O>11       0.0618
  49 H20      -2.6942     6.4977    -2.6219  H       1  <O>11       0.0624
  50 H21      -2.2183     2.8258    -1.7855  H       1  <O>11       0.0621
  51 H22      -1.7814     1.3358    -3.6529  H       1  <O>11       0.0646
@<TRIPOS>BOND
     1     1     2    1
     2     2     3    1
     3     3     4    1
     4     4     5    1
     5     5     6    1
     6     6     7   am
     7     7     8    2
     8     7     9    1
     9     9    10   ar
    10    10    11   ar
    11    11    12    1
    12    12    13    1
    13    13    14   ar
    14    14    15   ar
    15    15    16   ar
    16    16    17    2
    17    16    18   ar
    18    18    19   ar
    19    19    20   ar
    20    20    21   ar
    21    21    22   ar
    22    22    23   ar
    23    13    23   ar
    24    18    23   ar
    25    11    24   ar
    26    24    25   ar
    27    25    26   ar
    28     9    26   ar
    29    26    27    1
    30     6    28    1
    31    28    29    1
    32     3    29    1
    33     1    30    1
    34     1    31    1
    35     1    32    1
    36     3    33    1
    37     4    34    1
    38     4    35    1
    39     5    36    1
    40     5    37    1
    41    12    38    1
    42    12    39    1
    43    15    40    1
    44    28    41    1
    45    28    42    1
    46    29    43    1
    47    29    44    1
    48    10    45    1
    49    19    46    1
    50    20    47    1
    51    21    48    1
    52    22    49    1
    53    24    50    1
    54    25    51    1
@<TRIPOS>MOLECULE
mol21_1_26
 51 54 0 0 0
SMALL
USER_CHARGES
****
VDW energy = 34.88
@<TRIPOS>ATOM
   1 C1       -6.4677    -2.4869    -8.1037  C.3     1  <O>11       0.0368
   2 O1       -6.4969    -1.0912    -8.3528  O.3     1  <O>11      -0.3797
   3 C2       -7.2210    -0.4410    -7.3210  C.3     1  <O>11       0.0612
   4 C3       -7.6334     0.9465    -7.7996  C.3     1  <O>11      -0.0107
   5 C4       -6.4144     1.8341    -8.0167  C.3     1  <O>11       0.0173
   6 N1       -5.5849     1.9221    -6.7891  N.am    1  <O>11      -0.2973
   7 C5       -5.2205     3.0631    -6.1470  C.2     1  <O>11       0.2494
   8 O2       -5.5818     4.1479    -6.5771  O.2     1  <O>11      -0.2699
   9 C6       -4.4006     2.9921    -4.9452  C.ar    1  <O>11       0.0723
  10 C7       -3.4247     1.9900    -4.8095  C.ar    1  <O>11      -0.0433
  11 C8       -2.6454     1.9158    -3.6492  C.ar    1  <O>11      -0.0406
  12 C9       -1.6264     0.8569    -3.5175  C.3     1  <O>11       0.0171
  13 C10      -2.2822    -0.4748    -3.5991  C.ar    1  <O>11       0.0736
  14 N2       -2.4360    -1.1027    -4.8406  N.ar    1  <O>11      -0.1750
  15 N3       -3.1211    -2.2638    -4.9449  N.ar    1  <O>11      -0.2425
  16 C11      -3.6491    -2.8195    -3.8273  C.ar    1  <O>11       0.2725
  17 O3       -4.4331    -3.9729    -4.0193  O.2     1  <O>11      -0.2658
  18 C12      -3.4538    -2.3111    -2.5364  C.ar    1  <O>11       0.0496
  19 C13      -3.9527    -2.9197    -1.3621  C.ar    1  <O>11      -0.0487
  20 C14      -3.7484    -2.3422    -0.1091  C.ar    1  <O>11      -0.0610
  21 C15      -3.0493    -1.1461    -0.0038  C.ar    1  <O>11      -0.0611
  22 C16      -2.5543    -0.5256    -1.1523  C.ar    1  <O>11      -0.0521
  23 C17      -2.7454    -1.1002    -2.4297  C.ar    1  <O>11       0.0106
  24 C18      -2.8302     2.8409    -2.6178  C.ar    1  <O>11      -0.0555
  25 C19      -3.7971     3.8420    -2.7553  C.ar    1  <O>11      -0.0254
  26 C20      -4.5782     3.9255    -3.9093  C.ar    1  <O>11       0.1355
  27 F1       -5.5217     4.9110    -4.0464  F       1  <O>11      -0.2047
  28 C21      -5.1600     0.5901    -6.2862  C.3     1  <O>11       0.0173
  29 C22      -6.3429    -0.3502    -6.0776  C.3     1  <O>11      -0.0107
  30 H1       -5.9113    -2.9860    -8.8970  H       1  <O>11       0.0524
  31 H2       -7.4868    -2.8725    -8.0766  H       1  <O>11       0.0524
  32 H3       -5.9825    -2.6749    -7.1459  H       1  <O>11       0.0524
  33 H4       -8.1145    -1.0180    -7.0848  H       1  <O>11       0.0597
  34 H5       -8.1783     0.8522    -8.7396  H       1  <O>11       0.0305
  35 H6       -8.2787     1.4049    -7.0495  H       1  <O>11       0.0305
  36 H7       -5.8113     1.4164    -8.8230  H       1  <O>11       0.0465
  37 H8       -6.7479     2.8339    -8.2929  H       1  <O>11       0.0465
  38 H9       -1.1216     0.9548    -2.5569  H       1  <O>11       0.0377
  39 H10      -0.8967     0.9519    -4.3228  H       1  <O>11       0.0377
  40 H11      -3.2379    -2.7096    -5.8450  H       1  <O>11       0.1921
  41 H12      -4.4797     0.1432    -7.0100  H       1  <O>11       0.0465
  42 H13      -4.6446     0.7226    -5.3349  H       1  <O>11       0.0465
  43 H14      -5.9649    -1.3445    -5.8387  H       1  <O>11       0.0305
  44 H15      -6.9448     0.0193    -5.2475  H       1  <O>11       0.0305
  45 H16      -3.2821     1.3057    -5.5688  H       1  <O>11       0.0629
  46 H17      -4.4767    -3.8059    -1.4331  H       1  <O>11       0.0625
  47 H18      -4.1159    -2.8025     0.7383  H       1  <O>11       0.0618
  48 H19      -2.8962    -0.7171     0.9222  H       1  <O>11       0.0618
  49 H20      -2.0413     0.3659    -1.0675  H       1  <O>11       0.0624
  50 H21      -2.2574     2.7856    -1.7611  H       1  <O>11       0.0621
  51 H22      -3.9346     4.5265    -1.9953  H       1  <O>11       0.0646
@<TRIPOS>BOND
     1     1     2    1
     2     2     3    1
     3     3     4    1
     4     4     5    1
     5     5     6    1
     6     6     7   am
     7     7     8    2
     8     7     9    1
     9     9    10   ar
    10    10    11   ar
    11    11    12    1
    12    12    13    1
    13    13    14   ar
    14    14    15   ar
    15    15    16   ar
    16    16    17    2
    17    16    18   ar
    18    18    19   ar
    19    19    20   ar
    20    20    21   ar
    21    21    22   ar
    22    22    23   ar
    23    13    23   ar
    24    18    23   ar
    25    11    24   ar
    26    24    25   ar
    27    25    26   ar
    28     9    26   ar
    29    26    27    1
    30     6    28    1
    31    28    29    1
    32     3    29    1
    33     1    30    1
    34     1    31    1
    35     1    32    1
    36     3    33    1
    37     4    34    1
    38     4    35    1
    39     5    36    1
    40     5    37    1
    41    12    38    1
    42    12    39    1
    43    15    40    1
    44    28    41    1
    45    28    42    1
    46    29    43    1
    47    29    44    1
    48    10    45    1
    49    19    46    1
    50    20    47    1
    51    21    48    1
    52    22    49    1
    53    24    50    1
    54    25    51    1
@<TRIPOS>MOLECULE
mol21_1_27
 51 54 0 0 0
SMALL
USER_CHARGES
****
VDW energy = 36.51
@<TRIPOS>ATOM
   1 C1       -6.4677    -2.4869    -8.1037  C.3     1  <O>11       0.0368
   2 O1       -6.4969    -1.0912    -8.3528  O.3     1  <O>11      -0.3797
   3 C2       -7.2210    -0.4410    -7.3210  C.3     1  <O>11       0.0612
   4 C3       -7.6334     0.9465    -7.7996  C.3     1  <O>11      -0.0107
   5 C4       -6.4144     1.8341    -8.0167  C.3     1  <O>11       0.0173
   6 N1       -5.5849     1.9221    -6.7891  N.am    1  <O>11      -0.2973
   7 C5       -5.2205     3.0631    -6.1470  C.2     1  <O>11       0.2494
   8 O2       -5.5818     4.1479    -6.5771  O.2     1  <O>11      -0.2699
   9 C6       -4.4006     2.9921    -4.9452  C.ar    1  <O>11       0.0723
  10 C7       -3.4247     1.9900    -4.8095  C.ar    1  <O>11      -0.0433
  11 C8       -2.6454     1.9158    -3.6492  C.ar    1  <O>11      -0.0406
  12 C9       -1.6264     0.8569    -3.5175  C.3     1  <O>11       0.0171
  13 C10      -0.3311     1.3455    -4.0594  C.ar    1  <O>11       0.0736
  14 N2       -0.1352     2.7150    -4.2724  N.ar    1  <O>11      -0.1750
  15 N3        0.9960     3.1656    -4.8603  N.ar    1  <O>11      -0.2425
  16 C11       1.9456     2.2729    -5.2319  C.ar    1  <O>11       0.2725
  17 O3        3.0519     2.7975    -5.9267  O.2     1  <O>11      -0.2658
  18 C12       1.8733     0.8999    -4.9627  C.ar    1  <O>11       0.0496
  19 C13       2.8879    -0.0265    -5.2955  C.ar    1  <O>11      -0.0487
  20 C14       2.7373    -1.3869    -5.0270  C.ar    1  <O>11      -0.0610
  21 C15       1.5720    -1.8494    -4.4281  C.ar    1  <O>11      -0.0611
  22 C16       0.5552    -0.9515    -4.0978  C.ar    1  <O>11      -0.0521
  23 C17       0.6936     0.4316    -4.3557  C.ar    1  <O>11       0.0106
  24 C18      -2.8302     2.8409    -2.6178  C.ar    1  <O>11      -0.0555
  25 C19      -3.7971     3.8420    -2.7553  C.ar    1  <O>11      -0.0254
  26 C20      -4.5782     3.9255    -3.9093  C.ar    1  <O>11       0.1355
  27 F1       -5.5217     4.9110    -4.0464  F       1  <O>11      -0.2047
  28 C21      -5.1600     0.5901    -6.2862  C.3     1  <O>11       0.0173
  29 C22      -6.3429    -0.3502    -6.0776  C.3     1  <O>11      -0.0107
  30 H1       -5.9113    -2.9860    -8.8970  H       1  <O>11       0.0524
  31 H2       -7.4868    -2.8725    -8.0766  H       1  <O>11       0.0524
  32 H3       -5.9825    -2.6749    -7.1459  H       1  <O>11       0.0524
  33 H4       -8.1145    -1.0180    -7.0848  H       1  <O>11       0.0597
  34 H5       -8.1783     0.8522    -8.7396  H       1  <O>11       0.0305
  35 H6       -8.2787     1.4049    -7.0495  H       1  <O>11       0.0305
  36 H7       -5.8113     1.4164    -8.8230  H       1  <O>11       0.0465
  37 H8       -6.7479     2.8339    -8.2929  H       1  <O>11       0.0465
  38 H9       -1.9433    -0.0247    -4.0737  H       1  <O>11       0.0377
  39 H10      -1.5046     0.5980    -2.4648  H       1  <O>11       0.0377
  40 H11       1.1299     4.1550    -5.0208  H       1  <O>11       0.1921
  41 H12      -4.4797     0.1432    -7.0100  H       1  <O>11       0.0465
  42 H13      -4.6446     0.7226    -5.3349  H       1  <O>11       0.0465
  43 H14      -5.9649    -1.3445    -5.8387  H       1  <O>11       0.0305
  44 H15      -6.9448     0.0193    -5.2475  H       1  <O>11       0.0305
  45 H16      -3.2821     1.3057    -5.5688  H       1  <O>11       0.0629
  46 H17       3.7542     0.3093    -5.7445  H       1  <O>11       0.0625
  47 H18       3.4900    -2.0486    -5.2726  H       1  <O>11       0.0618
  48 H19       1.4583    -2.8553    -4.2277  H       1  <O>11       0.0618
  49 H20      -0.3103    -1.3027    -3.6589  H       1  <O>11       0.0624
  50 H21      -2.2574     2.7856    -1.7611  H       1  <O>11       0.0621
  51 H22      -3.9346     4.5265    -1.9953  H       1  <O>11       0.0646
@<TRIPOS>BOND
     1     1     2    1
     2     2     3    1
     3     3     4    1
     4     4     5    1
     5     5     6    1
     6     6     7   am
     7     7     8    2
     8     7     9    1
     9     9    10   ar
    10    10    11   ar
    11    11    12    1
    12    12    13    1
    13    13    14   ar
    14    14    15   ar
    15    15    16   ar
    16    16    17    2
    17    16    18   ar
    18    18    19   ar
    19    19    20   ar
    20    20    21   ar
    21    21    22   ar
    22    22    23   ar
    23    13    23   ar
    24    18    23   ar
    25    11    24   ar
    26    24    25   ar
    27    25    26   ar
    28     9    26   ar
    29    26    27    1
    30     6    28    1
    31    28    29    1
    32     3    29    1
    33     1    30    1
    34     1    31    1
    35     1    32    1
    36     3    33    1
    37     4    34    1
    38     4    35    1
    39     5    36    1
    40     5    37    1
    41    12    38    1
    42    12    39    1
    43    15    40    1
    44    28    41    1
    45    28    42    1
    46    29    43    1
    47    29    44    1
    48    10    45    1
    49    19    46    1
    50    20    47    1
    51    21    48    1
    52    22    49    1
    53    24    50    1
    54    25    51    1
@<TRIPOS>MOLECULE
mol21_1_28
 51 54 0 0 0
SMALL
USER_CHARGES
****
VDW energy = 38.02
@<TRIPOS>ATOM
   1 C1       -6.4677    -2.4869    -8.1037  C.3     1  <O>11       0.0368
   2 O1       -6.4969    -1.0912    -8.3528  O.3     1  <O>11      -0.3797
   3 C2       -7.2210    -0.4410    -7.3210  C.3     1  <O>11       0.0612
   4 C3       -7.6334     0.9465    -7.7996  C.3     1  <O>11      -0.0107
   5 C4       -6.4144     1.8341    -8.0167  C.3     1  <O>11       0.0173
   6 N1       -5.5849     1.9221    -6.7891  N.am    1  <O>11      -0.2973
   7 C5       -5.2205     3.0631    -6.1470  C.2     1  <O>11       0.2494
   8 O2       -5.5818     4.1479    -6.5771  O.2     1  <O>11      -0.2699
   9 C6       -4.4006     2.9921    -4.9452  C.ar    1  <O>11       0.0723
  10 C7       -3.4247     1.9900    -4.8095  C.ar    1  <O>11      -0.0433
  11 C8       -2.6454     1.9158    -3.6492  C.ar    1  <O>11      -0.0406
  12 C9       -1.6264     0.8569    -3.5175  C.3     1  <O>11       0.0171
  13 C10      -0.6315     0.9875    -4.6144  C.ar    1  <O>11       0.0736
  14 N2       -0.5572     2.1745    -5.3524  N.ar    1  <O>11      -0.1750
  15 N3        0.2691     2.2722    -6.4182  N.ar    1  <O>11      -0.2425
  16 C11       1.0352     1.2069    -6.7574  C.ar    1  <O>11       0.2725
  17 O3        1.7975     1.3407    -7.9334  O.2     1  <O>11      -0.2658
  18 C12       1.0966     0.0218    -6.0127  C.ar    1  <O>11       0.0496
  19 C13       1.9381    -1.0691    -6.3291  C.ar    1  <O>11      -0.0487
  20 C14       1.9262    -2.2340    -5.5620  C.ar    1  <O>11      -0.0610
  21 C15       1.0725    -2.3354    -4.4706  C.ar    1  <O>11      -0.0611
  22 C16       0.2286    -1.2717    -4.1455  C.ar    1  <O>11      -0.0521
  23 C17       0.2325    -0.0807    -4.9071  C.ar    1  <O>11       0.0106
  24 C18      -2.8302     2.8409    -2.6178  C.ar    1  <O>11      -0.0555
  25 C19      -3.7971     3.8420    -2.7553  C.ar    1  <O>11      -0.0254
  26 C20      -4.5782     3.9255    -3.9093  C.ar    1  <O>11       0.1355
  27 F1       -5.5217     4.9110    -4.0464  F       1  <O>11      -0.2047
  28 C21      -5.1600     0.5901    -6.2862  C.3     1  <O>11       0.0173
  29 C22      -6.3429    -0.3502    -6.0776  C.3     1  <O>11      -0.0107
  30 H1       -5.9113    -2.9860    -8.8970  H       1  <O>11       0.0524
  31 H2       -7.4868    -2.8725    -8.0766  H       1  <O>11       0.0524
  32 H3       -5.9825    -2.6749    -7.1459  H       1  <O>11       0.0524
  33 H4       -8.1145    -1.0180    -7.0848  H       1  <O>11       0.0597
  34 H5       -8.1783     0.8522    -8.7396  H       1  <O>11       0.0305
  35 H6       -8.2787     1.4049    -7.0495  H       1  <O>11       0.0305
  36 H7       -5.8113     1.4164    -8.8230  H       1  <O>11       0.0465
  37 H8       -6.7479     2.8339    -8.2929  H       1  <O>11       0.0465
  38 H9       -2.1061    -0.1195    -3.5766  H       1  <O>11       0.0377
  39 H10      -1.1211     0.9558    -2.5558  H       1  <O>11       0.0377
  40 H11       0.3131     3.1284    -6.9545  H       1  <O>11       0.1921
  41 H12      -4.4797     0.1432    -7.0100  H       1  <O>11       0.0465
  42 H13      -4.6446     0.7226    -5.3349  H       1  <O>11       0.0465
  43 H14      -5.9649    -1.3445    -5.8387  H       1  <O>11       0.0305
  44 H15      -6.9448     0.0193    -5.2475  H       1  <O>11       0.0305
  45 H16      -3.2821     1.3057    -5.5688  H       1  <O>11       0.0629
  46 H17       2.5716    -1.0026    -7.1410  H       1  <O>11       0.0625
  47 H18       2.5504    -3.0191    -5.8048  H       1  <O>11       0.0618
  48 H19       1.0622    -3.1959    -3.9009  H       1  <O>11       0.0618
  49 H20      -0.4075    -1.3562    -3.3372  H       1  <O>11       0.0624
  50 H21      -2.2574     2.7856    -1.7611  H       1  <O>11       0.0621
  51 H22      -3.9346     4.5265    -1.9953  H       1  <O>11       0.0646
@<TRIPOS>BOND
     1     1     2    1
     2     2     3    1
     3     3     4    1
     4     4     5    1
     5     5     6    1
     6     6     7   am
     7     7     8    2
     8     7     9    1
     9     9    10   ar
    10    10    11   ar
    11    11    12    1
    12    12    13    1
    13    13    14   ar
    14    14    15   ar
    15    15    16   ar
    16    16    17    2
    17    16    18   ar
    18    18    19   ar
    19    19    20   ar
    20    20    21   ar
    21    21    22   ar
    22    22    23   ar
    23    13    23   ar
    24    18    23   ar
    25    11    24   ar
    26    24    25   ar
    27    25    26   ar
    28     9    26   ar
    29    26    27    1
    30     6    28    1
    31    28    29    1
    32     3    29    1
    33     1    30    1
    34     1    31    1
    35     1    32    1
    36     3    33    1
    37     4    34    1
    38     4    35    1
    39     5    36    1
    40     5    37    1
    41    12    38    1
    42    12    39    1
    43    15    40    1
    44    28    41    1
    45    28    42    1
    46    29    43    1
    47    29    44    1
    48    10    45    1
    49    19    46    1
    50    20    47    1
    51    21    48    1
    52    22    49    1
    53    24    50    1
    54    25    51    1
@<TRIPOS>MOLECULE
mol21_1_29
 51 54 0 0 0
SMALL
USER_CHARGES
****
VDW energy = 38.40
@<TRIPOS>ATOM
   1 C1       -6.4677    -2.4869    -8.1037  C.3     1  <O>11       0.0368
   2 O1       -6.4969    -1.0912    -8.3528  O.3     1  <O>11      -0.3797
   3 C2       -7.2210    -0.4410    -7.3210  C.3     1  <O>11       0.0612
   4 C3       -7.6334     0.9465    -7.7996  C.3     1  <O>11      -0.0107
   5 C4       -6.4144     1.8341    -8.0167  C.3     1  <O>11       0.0173
   6 N1       -5.5849     1.9221    -6.7891  N.am    1  <O>11      -0.2973
   7 C5       -5.2205     3.0631    -6.1470  C.2     1  <O>11       0.2494
   8 O2       -5.5818     4.1479    -6.5771  O.2     1  <O>11      -0.2699
   9 C6       -4.4006     2.9921    -4.9452  C.ar    1  <O>11       0.0723
  10 C7       -3.4247     1.9900    -4.8095  C.ar    1  <O>11      -0.0433
  11 C8       -2.6454     1.9158    -3.6492  C.ar    1  <O>11      -0.0406
  12 C9       -1.6264     0.8569    -3.5175  C.3     1  <O>11       0.0171
  13 C10      -2.2372    -0.3429    -2.8871  C.ar    1  <O>11       0.0736
  14 N2       -2.8224    -1.3310    -3.6874  N.ar    1  <O>11      -0.1750
  15 N3       -3.4725    -2.3757    -3.1268  N.ar    1  <O>11      -0.2425
  16 C11      -3.5412    -2.4603    -1.7759  C.ar    1  <O>11       0.2725
  17 O3       -4.3156    -3.5164    -1.2593  O.2     1  <O>11      -0.2658
  18 C12      -2.8967    -1.5720    -0.9050  C.ar    1  <O>11       0.0496
  19 C13      -2.9163    -1.6902     0.5035  C.ar    1  <O>11      -0.0487
  20 C14      -2.2789    -0.7510     1.3140  C.ar    1  <O>11      -0.0610
  21 C15      -1.6162     0.3252     0.7370  C.ar    1  <O>11      -0.0611
  22 C16      -1.5909     0.4637    -0.6521  C.ar    1  <O>11      -0.0521
  23 C17      -2.2251    -0.4825    -1.4894  C.ar    1  <O>11       0.0106
  24 C18      -2.8302     2.8409    -2.6178  C.ar    1  <O>11      -0.0555
  25 C19      -3.7971     3.8420    -2.7553  C.ar    1  <O>11      -0.0254
  26 C20      -4.5782     3.9255    -3.9093  C.ar    1  <O>11       0.1355
  27 F1       -5.5217     4.9110    -4.0464  F       1  <O>11      -0.2047
  28 C21      -5.1600     0.5901    -6.2862  C.3     1  <O>11       0.0173
  29 C22      -6.3429    -0.3502    -6.0776  C.3     1  <O>11      -0.0107
  30 H1       -5.9113    -2.9860    -8.8970  H       1  <O>11       0.0524
  31 H2       -7.4868    -2.8725    -8.0766  H       1  <O>11       0.0524
  32 H3       -5.9825    -2.6749    -7.1459  H       1  <O>11       0.0524
  33 H4       -8.1145    -1.0180    -7.0848  H       1  <O>11       0.0597
  34 H5       -8.1783     0.8522    -8.7396  H       1  <O>11       0.0305
  35 H6       -8.2787     1.4049    -7.0495  H       1  <O>11       0.0305
  36 H7       -5.8113     1.4164    -8.8230  H       1  <O>11       0.0465
  37 H8       -6.7479     2.8339    -8.2929  H       1  <O>11       0.0465
  38 H9       -0.8064     1.2158    -2.8962  H       1  <O>11       0.0377
  39 H10      -1.2455     0.5935    -4.5052  H       1  <O>11       0.0377
  40 H11      -3.9019    -3.0827    -3.7085  H       1  <O>11       0.1921
  41 H12      -4.4797     0.1432    -7.0100  H       1  <O>11       0.0465
  42 H13      -4.6446     0.7226    -5.3349  H       1  <O>11       0.0465
  43 H14      -5.9649    -1.3445    -5.8387  H       1  <O>11       0.0305
  44 H15      -6.9448     0.0193    -5.2475  H       1  <O>11       0.0305
  45 H16      -3.2821     1.3057    -5.5688  H       1  <O>11       0.0629
  46 H17      -3.4104    -2.4846     0.9393  H       1  <O>11       0.0625
  47 H18      -2.2995    -0.8553     2.3405  H       1  <O>11       0.0618
  48 H19      -1.1432     1.0212     1.3343  H       1  <O>11       0.0618
  49 H20      -1.1022     1.2689    -1.0739  H       1  <O>11       0.0624
  50 H21      -2.2574     2.7856    -1.7611  H       1  <O>11       0.0621
  51 H22      -3.9346     4.5265    -1.9953  H       1  <O>11       0.0646
@<TRIPOS>BOND
     1     1     2    1
     2     2     3    1
     3     3     4    1
     4     4     5    1
     5     5     6    1
     6     6     7   am
     7     7     8    2
     8     7     9    1
     9     9    10   ar
    10    10    11   ar
    11    11    12    1
    12    12    13    1
    13    13    14   ar
    14    14    15   ar
    15    15    16   ar
    16    16    17    2
    17    16    18   ar
    18    18    19   ar
    19    19    20   ar
    20    20    21   ar
    21    21    22   ar
    22    22    23   ar
    23    13    23   ar
    24    18    23   ar
    25    11    24   ar
    26    24    25   ar
    27    25    26   ar
    28     9    26   ar
    29    26    27    1
    30     6    28    1
    31    28    29    1
    32     3    29    1
    33     1    30    1
    34     1    31    1
    35     1    32    1
    36     3    33    1
    37     4    34    1
    38     4    35    1
    39     5    36    1
    40     5    37    1
    41    12    38    1
    42    12    39    1
    43    15    40    1
    44    28    41    1
    45    28    42    1
    46    29    43    1
    47    29    44    1
    48    10    45    1
    49    19    46    1
    50    20    47    1
    51    21    48    1
    52    22    49    1
    53    24    50    1
    54    25    51    1
@<TRIPOS>MOLECULE
mol21_1_30
 51 54 0 0 0
SMALL
USER_CHARGES
****
VDW energy = 38.54
@<TRIPOS>ATOM
   1 C1       -6.4677    -2.4869    -8.1037  C.3     1  <O>11       0.0368
   2 O1       -6.4969    -1.0912    -8.3528  O.3     1  <O>11      -0.3797
   3 C2       -7.2210    -0.4410    -7.3210  C.3     1  <O>11       0.0612
   4 C3       -7.6334     0.9465    -7.7996  C.3     1  <O>11      -0.0107
   5 C4       -6.4144     1.8341    -8.0167  C.3     1  <O>11       0.0173
   6 N1       -5.5849     1.9221    -6.7891  N.am    1  <O>11      -0.2973
   7 C5       -5.2205     3.0631    -6.1470  C.2     1  <O>11       0.2494
   8 O2       -5.5818     4.1479    -6.5771  O.2     1  <O>11      -0.2699
   9 C6       -4.4006     2.9921    -4.9452  C.ar    1  <O>11       0.0723
  10 C7       -3.4247     1.9900    -4.8095  C.ar    1  <O>11      -0.0433
  11 C8       -2.6454     1.9158    -3.6492  C.ar    1  <O>11      -0.0406
  12 C9       -1.6264     0.8569    -3.5175  C.3     1  <O>11       0.0171
  13 C10      -0.3311     1.3455    -4.0594  C.ar    1  <O>11       0.0736
  14 N2        0.5766     1.9984    -3.2173  N.ar    1  <O>11      -0.1750
  15 N3        1.7113     2.5395    -3.7153  N.ar    1  <O>11      -0.2425
  16 C11       1.9650     2.4319    -5.0423  C.ar    1  <O>11       0.2725
  17 O3        3.1113     3.1016    -5.5107  O.2     1  <O>11      -0.2658
  18 C12       1.1621     1.7082    -5.9336  C.ar    1  <O>11       0.0496
  19 C13       1.4540     1.5435    -7.3070  C.ar    1  <O>11      -0.0487
  20 C14       0.5935     0.8361    -8.1463  C.ar    1  <O>11      -0.0610
  21 C15      -0.5750     0.2855    -7.6347  C.ar    1  <O>11      -0.0611
  22 C16      -0.8848     0.4427    -6.2824  C.ar    1  <O>11      -0.0521
  23 C17      -0.0209     1.1501    -5.4154  C.ar    1  <O>11       0.0106
  24 C18      -2.8302     2.8409    -2.6178  C.ar    1  <O>11      -0.0555
  25 C19      -3.7971     3.8420    -2.7553  C.ar    1  <O>11      -0.0254
  26 C20      -4.5782     3.9255    -3.9093  C.ar    1  <O>11       0.1355
  27 F1       -5.5217     4.9110    -4.0464  F       1  <O>11      -0.2047
  28 C21      -5.1600     0.5901    -6.2862  C.3     1  <O>11       0.0173
  29 C22      -6.3429    -0.3502    -6.0776  C.3     1  <O>11      -0.0107
  30 H1       -5.9113    -2.9860    -8.8970  H       1  <O>11       0.0524
  31 H2       -7.4868    -2.8725    -8.0766  H       1  <O>11       0.0524
  32 H3       -5.9825    -2.6749    -7.1459  H       1  <O>11       0.0524
  33 H4       -8.1145    -1.0180    -7.0848  H       1  <O>11       0.0597
  34 H5       -8.1783     0.8522    -8.7396  H       1  <O>11       0.0305
  35 H6       -8.2787     1.4049    -7.0495  H       1  <O>11       0.0305
  36 H7       -5.8113     1.4164    -8.8230  H       1  <O>11       0.0465
  37 H8       -6.7479     2.8339    -8.2929  H       1  <O>11       0.0465
  38 H9       -1.9433    -0.0247    -4.0737  H       1  <O>11       0.0377
  39 H10      -1.5046     0.5980    -2.4648  H       1  <O>11       0.0377
  40 H11       2.3601     3.0185    -3.1052  H       1  <O>11       0.1921
  41 H12      -4.4797     0.1432    -7.0100  H       1  <O>11       0.0465
  42 H13      -4.6446     0.7226    -5.3349  H       1  <O>11       0.0465
  43 H14      -5.9649    -1.3445    -5.8387  H       1  <O>11       0.0305
  44 H15      -6.9448     0.0193    -5.2475  H       1  <O>11       0.0305
  45 H16      -3.2821     1.3057    -5.5688  H       1  <O>11       0.0629
  46 H17       2.3179     1.9536    -7.6949  H       1  <O>11       0.0625
  47 H18       0.8244     0.7218    -9.1456  H       1  <O>11       0.0618
  48 H19      -1.2130    -0.2391    -8.2533  H       1  <O>11       0.0618
  49 H20      -1.7575     0.0365    -5.9103  H       1  <O>11       0.0624
  50 H21      -2.2574     2.7856    -1.7611  H       1  <O>11       0.0621
  51 H22      -3.9346     4.5265    -1.9953  H       1  <O>11       0.0646
@<TRIPOS>BOND
     1     1     2    1
     2     2     3    1
     3     3     4    1
     4     4     5    1
     5     5     6    1
     6     6     7   am
     7     7     8    2
     8     7     9    1
     9     9    10   ar
    10    10    11   ar
    11    11    12    1
    12    12    13    1
    13    13    14   ar
    14    14    15   ar
    15    15    16   ar
    16    16    17    2
    17    16    18   ar
    18    18    19   ar
    19    19    20   ar
    20    20    21   ar
    21    21    22   ar
    22    22    23   ar
    23    13    23   ar
    24    18    23   ar
    25    11    24   ar
    26    24    25   ar
    27    25    26   ar
    28     9    26   ar
    29    26    27    1
    30     6    28    1
    31    28    29    1
    32     3    29    1
    33     1    30    1
    34     1    31    1
    35     1    32    1
    36     3    33    1
    37     4    34    1
    38     4    35    1
    39     5    36    1
    40     5    37    1
    41    12    38    1
    42    12    39    1
    43    15    40    1
    44    28    41    1
    45    28    42    1
    46    29    43    1
    47    29    44    1
    48    10    45    1
    49    19    46    1
    50    20    47    1
    51    21    48    1
    52    22    49    1
    53    24    50    1
    54    25    51    1
@<TRIPOS>MOLECULE
mol21_2_1
 51 54 0 0 0
SMALL
USER_CHARGES
****
VDW energy = -4.31
@<TRIPOS>ATOM
   1 C1       -8.5371    -2.3256    -7.0381  C.3     1  <O>11       0.0368
   2 O1       -8.5511    -0.9311    -7.2951  O.3     1  <O>11      -0.3797
   3 C2       -7.2210    -0.4410    -7.3210  C.3     1  <O>11       0.0612
   4 C3       -7.2266     0.9926    -7.8396  C.3     1  <O>11      -0.0107
   5 C4       -5.8347     1.6071    -7.7616  C.3     1  <O>11       0.0173
   6 N1       -5.2938     1.5454    -6.3810  N.am    1  <O>11      -0.2973
   7 C5       -4.8536     2.5989    -5.6437  C.2     1  <O>11       0.2494
   8 O2       -4.4275     2.4176    -4.5134  O.2     1  <O>11      -0.2699
   9 C6       -4.8886     3.9437    -6.2024  C.ar    1  <O>11       0.0723
  10 C7       -6.0232     4.7549    -6.0302  C.ar    1  <O>11      -0.0433
  11 C8       -6.0600     6.0426    -6.5773  C.ar    1  <O>11      -0.0406
  12 C9       -7.2585     6.8833    -6.3924  C.3     1  <O>11       0.0171
  13 C10      -7.1151     7.6836    -5.1478  C.ar    1  <O>11       0.0736
  14 N2       -5.8756     7.7536    -4.5013  N.ar    1  <O>11      -0.1750
  15 N3       -5.7526     8.3907    -3.3150  N.ar    1  <O>11      -0.2425
  16 C11      -6.8456     8.9720    -2.7633  C.ar    1  <O>11       0.2725
  17 O3       -6.6709     9.5312    -1.4832  O.2     1  <O>11      -0.2658
  18 C12      -8.0959     9.0362    -3.3921  C.ar    1  <O>11       0.0496
  19 C13      -9.2232     9.6925    -2.8472  C.ar    1  <O>11      -0.0487
  20 C14     -10.4489     9.6908    -3.5126  C.ar    1  <O>11      -0.0610
  21 C15     -10.5756     9.0310    -4.7287  C.ar    1  <O>11      -0.0611
  22 C16      -9.4760     8.3709    -5.2805  C.ar    1  <O>11      -0.0521
  23 C17      -8.2240     8.3684    -4.6238  C.ar    1  <O>11       0.0106
  24 C18      -4.9663     6.5326    -7.2966  C.ar    1  <O>11      -0.0555
  25 C19      -3.8347     5.7277    -7.4627  C.ar    1  <O>11      -0.0254
  26 C20      -3.7873     4.4426    -6.9195  C.ar    1  <O>11       0.1355
  27 F1       -2.6753     3.6562    -7.0771  F       1  <O>11      -0.2047
  28 C21      -5.2702     0.1640    -5.8343  C.3     1  <O>11       0.0173
  29 C22      -6.6365    -0.5096    -5.9142  C.3     1  <O>11      -0.0107
  30 H1       -9.5600    -2.7016    -7.0183  H       1  <O>11       0.0524
  31 H2       -8.0625    -2.5128    -6.0749  H       1  <O>11       0.0524
  32 H3       -7.9782    -2.8342    -7.8236  H       1  <O>11       0.0524
  33 H4       -6.6181    -1.0589    -7.9872  H       1  <O>11       0.0597
  34 H5       -7.5602     0.9950    -8.8779  H       1  <O>11       0.0305
  35 H6       -7.9128     1.5873    -7.2356  H       1  <O>11       0.0305
  36 H7       -5.1682     1.0600    -8.4284  H       1  <O>11       0.0465
  37 H8       -5.8885     2.6489    -8.0762  H       1  <O>11       0.0465
  38 H9       -8.1405     6.2482    -6.3162  H       1  <O>11       0.0377
  39 H10      -7.3669     7.5549    -7.2451  H       1  <O>11       0.0377
  40 H11      -4.8573     8.4312    -2.8466  H       1  <O>11       0.1921
  41 H12      -4.5540    -0.4261    -6.4047  H       1  <O>11       0.0465
  42 H13      -4.9594     0.2052    -4.7904  H       1  <O>11       0.0465
  43 H14      -6.5310    -1.5558    -5.6261  H       1  <O>11       0.0305
  44 H15      -7.3169    -0.0094    -5.2252  H       1  <O>11       0.0305
  45 H16      -6.8327     4.3994    -5.4979  H       1  <O>11       0.0629
  46 H17      -9.1377    10.1810    -1.9421  H       1  <O>11       0.0625
  47 H18     -11.2604    10.1789    -3.1024  H       1  <O>11       0.0618
  48 H19     -11.4812     9.0288    -5.2235  H       1  <O>11       0.0618
  49 H20      -9.5786     7.8774    -6.1811  H       1  <O>11       0.0624
  50 H21      -4.9935     7.4812    -7.7021  H       1  <O>11       0.0621
  51 H22      -3.0257     6.0878    -7.9928  H       1  <O>11       0.0646
@<TRIPOS>BOND
     1     1     2    1
     2     2     3    1
     3     3     4    1
     4     4     5    1
     5     5     6    1
     6     6     7   am
     7     7     8    2
     8     7     9    1
     9     9    10   ar
    10    10    11   ar
    11    11    12    1
    12    12    13    1
    13    13    14   ar
    14    14    15   ar
    15    15    16   ar
    16    16    17    2
    17    16    18   ar
    18    18    19   ar
    19    19    20   ar
    20    20    21   ar
    21    21    22   ar
    22    22    23   ar
    23    13    23   ar
    24    18    23   ar
    25    11    24   ar
    26    24    25   ar
    27    25    26   ar
    28     9    26   ar
    29    26    27    1
    30     6    28    1
    31    28    29    1
    32     3    29    1
    33     1    30    1
    34     1    31    1
    35     1    32    1
    36     3    33    1
    37     4    34    1
    38     4    35    1
    39     5    36    1
    40     5    37    1
    41    12    38    1
    42    12    39    1
    43    15    40    1
    44    28    41    1
    45    28    42    1
    46    29    43    1
    47    29    44    1
    48    10    45    1
    49    19    46    1
    50    20    47    1
    51    21    48    1
    52    22    49    1
    53    24    50    1
    54    25    51    1
@<TRIPOS>MOLECULE
mol21_2_2
 51 54 0 0 0
SMALL
USER_CHARGES
****
VDW energy = -4.31
@<TRIPOS>ATOM
   1 C1       -8.5371    -2.3256    -7.0381  C.3     1  <O>11       0.0368
   2 O1       -8.5511    -0.9311    -7.2951  O.3     1  <O>11      -0.3797
   3 C2       -7.2210    -0.4410    -7.3210  C.3     1  <O>11       0.0612
   4 C3       -7.2266     0.9926    -7.8396  C.3     1  <O>11      -0.0107
   5 C4       -5.8347     1.6071    -7.7616  C.3     1  <O>11       0.0173
   6 N1       -5.2938     1.5454    -6.3810  N.am    1  <O>11      -0.2973
   7 C5       -4.8536     2.5989    -5.6437  C.2     1  <O>11       0.2494
   8 O2       -4.4275     2.4176    -4.5134  O.2     1  <O>11      -0.2699
   9 C6       -4.8886     3.9437    -6.2024  C.ar    1  <O>11       0.0723
  10 C7       -6.0232     4.7549    -6.0302  C.ar    1  <O>11      -0.0433
  11 C8       -6.0600     6.0426    -6.5773  C.ar    1  <O>11      -0.0406
  12 C9       -7.2585     6.8833    -6.3924  C.3     1  <O>11       0.0171
  13 C10      -8.2068     6.6475    -7.5128  C.ar    1  <O>11       0.0736
  14 N2       -8.0072     5.5680    -8.3813  N.ar    1  <O>11      -0.1750
  15 N3       -8.7991     5.4001    -9.4644  N.ar    1  <O>11      -0.2425
  16 C11      -9.7985     6.2865    -9.6933  C.ar    1  <O>11       0.2725
  17 O3      -10.5208     6.1114   -10.8889  O.2     1  <O>11      -0.2658
  18 C12     -10.1293     7.3313    -8.8206  C.ar    1  <O>11       0.0496
  19 C13     -11.2077     8.2221    -9.0251  C.ar    1  <O>11      -0.0487
  20 C14     -11.4622     9.2621    -8.1313  C.ar    1  <O>11      -0.0610
  21 C15     -10.6444     9.4372    -7.0219  C.ar    1  <O>11      -0.0611
  22 C16      -9.5700     8.5723    -6.8055  C.ar    1  <O>11      -0.0521
  23 C17      -9.3014     7.5083    -7.6968  C.ar    1  <O>11       0.0106
  24 C18      -4.9663     6.5326    -7.2966  C.ar    1  <O>11      -0.0555
  25 C19      -3.8347     5.7277    -7.4627  C.ar    1  <O>11      -0.0254
  26 C20      -3.7873     4.4426    -6.9195  C.ar    1  <O>11       0.1355
  27 F1       -2.6753     3.6562    -7.0771  F       1  <O>11      -0.2047
  28 C21      -5.2702     0.1640    -5.8343  C.3     1  <O>11       0.0173
  29 C22      -6.6365    -0.5096    -5.9142  C.3     1  <O>11      -0.0107
  30 H1       -9.5600    -2.7016    -7.0183  H       1  <O>11       0.0524
  31 H2       -8.0625    -2.5128    -6.0749  H       1  <O>11       0.0524
  32 H3       -7.9782    -2.8342    -7.8236  H       1  <O>11       0.0524
  33 H4       -6.6181    -1.0589    -7.9872  H       1  <O>11       0.0597
  34 H5       -7.5602     0.9950    -8.8779  H       1  <O>11       0.0305
  35 H6       -7.9128     1.5873    -7.2356  H       1  <O>11       0.0305
  36 H7       -5.1682     1.0600    -8.4284  H       1  <O>11       0.0465
  37 H8       -5.8885     2.6489    -8.0762  H       1  <O>11       0.0465
  38 H9       -6.9680     7.9333    -6.3773  H       1  <O>11       0.0377
  39 H10      -7.7412     6.6262    -5.4485  H       1  <O>11       0.0377
  40 H11      -8.6459     4.6242   -10.0946  H       1  <O>11       0.1921
  41 H12      -4.5540    -0.4261    -6.4047  H       1  <O>11       0.0465
  42 H13      -4.9594     0.2052    -4.7904  H       1  <O>11       0.0465
  43 H14      -6.5310    -1.5558    -5.6261  H       1  <O>11       0.0305
  44 H15      -7.3169    -0.0094    -5.2252  H       1  <O>11       0.0305
  45 H16      -6.8327     4.3994    -5.4979  H       1  <O>11       0.0629
  46 H17     -11.8167     8.1009    -9.8494  H       1  <O>11       0.0625
  47 H18     -12.2567     9.9005    -8.2937  H       1  <O>11       0.0618
  48 H19     -10.8310    10.2055    -6.3586  H       1  <O>11       0.0618
  49 H20      -8.9627     8.7118    -5.9828  H       1  <O>11       0.0624
  50 H21      -4.9935     7.4812    -7.7021  H       1  <O>11       0.0621
  51 H22      -3.0257     6.0878    -7.9928  H       1  <O>11       0.0646
@<TRIPOS>BOND
     1     1     2    1
     2     2     3    1
     3     3     4    1
     4     4     5    1
     5     5     6    1
     6     6     7   am
     7     7     8    2
     8     7     9    1
     9     9    10   ar
    10    10    11   ar
    11    11    12    1
    12    12    13    1
    13    13    14   ar
    14    14    15   ar
    15    15    16   ar
    16    16    17    2
    17    16    18   ar
    18    18    19   ar
    19    19    20   ar
    20    20    21   ar
    21    21    22   ar
    22    22    23   ar
    23    13    23   ar
    24    18    23   ar
    25    11    24   ar
    26    24    25   ar
    27    25    26   ar
    28     9    26   ar
    29    26    27    1
    30     6    28    1
    31    28    29    1
    32     3    29    1
    33     1    30    1
    34     1    31    1
    35     1    32    1
    36     3    33    1
    37     4    34    1
    38     4    35    1
    39     5    36    1
    40     5    37    1
    41    12    38    1
    42    12    39    1
    43    15    40    1
    44    28    41    1
    45    28    42    1
    46    29    43    1
    47    29    44    1
    48    10    45    1
    49    19    46    1
    50    20    47    1
    51    21    48    1
    52    22    49    1
    53    24    50    1
    54    25    51    1
@<TRIPOS>MOLECULE
mol21_2_3
 51 54 0 0 0
SMALL
USER_CHARGES
****
VDW energy = -4.25
@<TRIPOS>ATOM
   1 C1       -8.5371    -2.3256    -7.0381  C.3     1  <O>11       0.0368
   2 O1       -8.5511    -0.9311    -7.2951  O.3     1  <O>11      -0.3797
   3 C2       -7.2210    -0.4410    -7.3210  C.3     1  <O>11       0.0612
   4 C3       -7.2266     0.9926    -7.8396  C.3     1  <O>11      -0.0107
   5 C4       -5.8347     1.6071    -7.7616  C.3     1  <O>11       0.0173
   6 N1       -5.2938     1.5454    -6.3810  N.am    1  <O>11      -0.2973
   7 C5       -4.8536     2.5989    -5.6437  C.2     1  <O>11       0.2494
   8 O2       -4.4275     2.4176    -4.5134  O.2     1  <O>11      -0.2699
   9 C6       -4.8886     3.9437    -6.2024  C.ar    1  <O>11       0.0723
  10 C7       -3.7882     4.4438    -6.9193  C.ar    1  <O>11      -0.0433
  11 C8       -3.8186     5.7403    -7.4456  C.ar    1  <O>11      -0.0406
  12 C9       -2.6554     6.2550    -8.1935  C.3     1  <O>11       0.0171
  13 C10      -1.7185     6.9243    -7.2532  C.ar    1  <O>11       0.0736
  14 N2       -1.8858     6.7698    -5.8721  N.ar    1  <O>11      -0.1750
  15 N3       -1.1074     7.4536    -5.0033  N.ar    1  <O>11      -0.2425
  16 C11      -0.1528     8.2846    -5.4878  C.ar    1  <O>11       0.2725
  17 O3        0.5545     9.0399    -4.5333  O.2     1  <O>11      -0.2658
  18 C12       0.1474     8.4176    -6.8498  C.ar    1  <O>11       0.0496
  19 C13       1.1812     9.2381    -7.3561  C.ar    1  <O>11      -0.0487
  20 C14       1.4058     9.3493    -8.7282  C.ar    1  <O>11      -0.0610
  21 C15       0.6016     8.6508    -9.6201  C.ar    1  <O>11      -0.0611
  22 C16      -0.4292     7.8404    -9.1406  C.ar    1  <O>11      -0.0521
  23 C17      -0.6666     7.7098    -7.7531  C.ar    1  <O>11       0.0106
  24 C18      -4.9461     6.5463    -7.2647  C.ar    1  <O>11      -0.0555
  25 C19      -6.0437     6.0466    -6.5566  C.ar    1  <O>11      -0.0254
  26 C20      -6.0239     4.7542    -6.0292  C.ar    1  <O>11       0.1355
  27 F1       -7.1027     4.2623    -5.3405  F       1  <O>11      -0.2047
  28 C21      -5.2702     0.1640    -5.8343  C.3     1  <O>11       0.0173
  29 C22      -6.6365    -0.5096    -5.9142  C.3     1  <O>11      -0.0107
  30 H1       -9.5600    -2.7016    -7.0183  H       1  <O>11       0.0524
  31 H2       -8.0625    -2.5128    -6.0749  H       1  <O>11       0.0524
  32 H3       -7.9782    -2.8342    -7.8236  H       1  <O>11       0.0524
  33 H4       -6.6181    -1.0589    -7.9872  H       1  <O>11       0.0597
  34 H5       -7.5602     0.9950    -8.8779  H       1  <O>11       0.0305
  35 H6       -7.9128     1.5873    -7.2356  H       1  <O>11       0.0305
  36 H7       -5.1682     1.0600    -8.4284  H       1  <O>11       0.0465
  37 H8       -5.8885     2.6489    -8.0762  H       1  <O>11       0.0465
  38 H9       -2.9919     6.9713    -8.9423  H       1  <O>11       0.0377
  39 H10      -2.1445     5.4268    -8.6867  H       1  <O>11       0.0377
  40 H11      -1.2376     7.3463    -4.0062  H       1  <O>11       0.1921
  41 H12      -4.5540    -0.4261    -6.4047  H       1  <O>11       0.0465
  42 H13      -4.9594     0.2052    -4.7904  H       1  <O>11       0.0465
  43 H14      -6.5310    -1.5558    -5.6261  H       1  <O>11       0.0305
  44 H15      -7.3169    -0.0094    -5.2252  H       1  <O>11       0.0305
  45 H16      -2.9539     3.8523    -7.0582  H       1  <O>11       0.0629
  46 H17       1.7797     9.7634    -6.6997  H       1  <O>11       0.0625
  47 H18       2.1680     9.9495    -9.0802  H       1  <O>11       0.0618
  48 H19       0.7660     8.7307   -10.6358  H       1  <O>11       0.0618
  49 H20      -1.0268     7.3292    -9.8089  H       1  <O>11       0.0624
  50 H21      -4.9685     7.5032    -7.6507  H       1  <O>11       0.0621
  51 H22      -6.8775     6.6397    -6.4226  H       1  <O>11       0.0646
@<TRIPOS>BOND
     1     1     2    1
     2     2     3    1
     3     3     4    1
     4     4     5    1
     5     5     6    1
     6     6     7   am
     7     7     8    2
     8     7     9    1
     9     9    10   ar
    10    10    11   ar
    11    11    12    1
    12    12    13    1
    13    13    14   ar
    14    14    15   ar
    15    15    16   ar
    16    16    17    2
    17    16    18   ar
    18    18    19   ar
    19    19    20   ar
    20    20    21   ar
    21    21    22   ar
    22    22    23   ar
    23    13    23   ar
    24    18    23   ar
    25    11    24   ar
    26    24    25   ar
    27    25    26   ar
    28     9    26   ar
    29    26    27    1
    30     6    28    1
    31    28    29    1
    32     3    29    1
    33     1    30    1
    34     1    31    1
    35     1    32    1
    36     3    33    1
    37     4    34    1
    38     4    35    1
    39     5    36    1
    40     5    37    1
    41    12    38    1
    42    12    39    1
    43    15    40    1
    44    28    41    1
    45    28    42    1
    46    29    43    1
    47    29    44    1
    48    10    45    1
    49    19    46    1
    50    20    47    1
    51    21    48    1
    52    22    49    1
    53    24    50    1
    54    25    51    1
@<TRIPOS>MOLECULE
mol21_2_4
 51 54 0 0 0
SMALL
USER_CHARGES
****
VDW energy = -2.64
@<TRIPOS>ATOM
   1 C1       -8.5371    -2.3256    -7.0381  C.3     1  <O>11       0.0368
   2 O1       -8.5511    -0.9311    -7.2951  O.3     1  <O>11      -0.3797
   3 C2       -7.2210    -0.4410    -7.3210  C.3     1  <O>11       0.0612
   4 C3       -6.6838    -0.5283    -8.7451  C.3     1  <O>11      -0.0107
   5 C4       -5.3038     0.1088    -8.8484  C.3     1  <O>11       0.0173
   6 N1       -5.3214     1.5151    -8.3742  N.am    1  <O>11      -0.2973
   7 C5       -4.9228     2.6053    -9.0810  C.2     1  <O>11       0.2494
   8 O2       -4.9851     3.7162    -8.5767  O.2     1  <O>11      -0.2699
   9 C6       -4.4202     2.4486   -10.4391  C.ar    1  <O>11       0.0723
  10 C7       -3.0495     2.2410   -10.6695  C.ar    1  <O>11      -0.0433
  11 C8       -2.5662     2.1021   -11.9757  C.ar    1  <O>11      -0.0406
  12 C9       -1.1244     1.8879   -12.2046  C.3     1  <O>11       0.0171
  13 C10      -0.3593     3.0382   -11.6556  C.ar    1  <O>11       0.0736
  14 N2       -0.9959     3.9681   -10.8253  N.ar    1  <O>11      -0.1750
  15 N3       -0.3431     5.0741   -10.4024  N.ar    1  <O>11      -0.2425
  16 C11       0.9429     5.2663   -10.7846  C.ar    1  <O>11       0.2725
  17 O3        1.5311     6.4837   -10.3924  O.2     1  <O>11      -0.2658
  18 C12       1.6831     4.3368   -11.5270  C.ar    1  <O>11       0.0496
  19 C13       3.0420     4.5059   -11.8776  C.ar    1  <O>11      -0.0487
  20 C14       3.7111     3.5543   -12.6472  C.ar    1  <O>11      -0.0610
  21 C15       3.0376     2.4211   -13.0860  C.ar    1  <O>11      -0.0611
  22 C16       1.6933     2.2387   -12.7562  C.ar    1  <O>11      -0.0521
  23 C17       1.0012     3.1890   -11.9709  C.ar    1  <O>11       0.0106
  24 C18      -3.4448     2.1656   -13.0610  C.ar    1  <O>11      -0.0555
  25 C19      -4.8097     2.3660   -12.8315  C.ar    1  <O>11      -0.0254
  26 C20      -5.3020     2.5040   -11.5324  C.ar    1  <O>11       0.1355
  27 F1       -6.6411     2.6941   -11.3075  F       1  <O>11      -0.2047
  28 C21      -5.8393     1.6475    -6.9878  C.3     1  <O>11       0.0173
  29 C22      -7.2103     0.9998    -6.8216  C.3     1  <O>11      -0.0107
  30 H1       -9.5600    -2.7016    -7.0183  H       1  <O>11       0.0524
  31 H2       -8.0625    -2.5128    -6.0749  H       1  <O>11       0.0524
  32 H3       -7.9782    -2.8342    -7.8236  H       1  <O>11       0.0524
  33 H4       -6.5960    -1.0490    -6.6662  H       1  <O>11       0.0597
  34 H5       -6.6156    -1.5769    -9.0369  H       1  <O>11       0.0305
  35 H6       -7.3676    -0.0076    -9.4163  H       1  <O>11       0.0305
  36 H7       -4.6036    -0.4623    -8.2386  H       1  <O>11       0.0465
  37 H8       -4.9803     0.0884    -9.8886  H       1  <O>11       0.0465
  38 H9       -0.9342     1.8024   -13.2740  H       1  <O>11       0.0377
  39 H10      -0.8089     0.9709   -11.7050  H       1  <O>11       0.0377
  40 H11      -0.8094     5.7482    -9.8101  H       1  <O>11       0.1921
  41 H12      -5.1392     1.1674    -6.3052  H       1  <O>11       0.0465
  42 H13      -5.9191     2.7066    -6.7429  H       1  <O>11       0.0465
  43 H14      -7.4789     1.0095    -5.7650  H       1  <O>11       0.0305
  44 H15      -7.9427     1.5745    -7.3884  H       1  <O>11       0.0305
  45 H16      -2.3964     2.1907    -9.8720  H       1  <O>11       0.0629
  46 H17       3.5474     5.3474   -11.5590  H       1  <O>11       0.0625
  47 H18       4.7046     3.6917   -12.8901  H       1  <O>11       0.0618
  48 H19       3.5304     1.7150   -13.6549  H       1  <O>11       0.0618
  49 H20       1.1973     1.3977   -13.0907  H       1  <O>11       0.0624
  50 H21      -3.0889     2.0653   -14.0245  H       1  <O>11       0.0621
  51 H22      -5.4603     2.4124   -13.6313  H       1  <O>11       0.0646
@<TRIPOS>BOND
     1     1     2    1
     2     2     3    1
     3     3     4    1
     4     4     5    1
     5     5     6    1
     6     6     7   am
     7     7     8    2
     8     7     9    1
     9     9    10   ar
    10    10    11   ar
    11    11    12    1
    12    12    13    1
    13    13    14   ar
    14    14    15   ar
    15    15    16   ar
    16    16    17    2
    17    16    18   ar
    18    18    19   ar
    19    19    20   ar
    20    20    21   ar
    21    21    22   ar
    22    22    23   ar
    23    13    23   ar
    24    18    23   ar
    25    11    24   ar
    26    24    25   ar
    27    25    26   ar
    28     9    26   ar
    29    26    27    1
    30     6    28    1
    31    28    29    1
    32     3    29    1
    33     1    30    1
    34     1    31    1
    35     1    32    1
    36     3    33    1
    37     4    34    1
    38     4    35    1
    39     5    36    1
    40     5    37    1
    41    12    38    1
    42    12    39    1
    43    15    40    1
    44    28    41    1
    45    28    42    1
    46    29    43    1
    47    29    44    1
    48    10    45    1
    49    19    46    1
    50    20    47    1
    51    21    48    1
    52    22    49    1
    53    24    50    1
    54    25    51    1
@<TRIPOS>MOLECULE
mol21_2_5
 51 54 0 0 0
SMALL
USER_CHARGES
****
VDW energy = -2.57
@<TRIPOS>ATOM
   1 C1       -8.5371    -2.3256    -7.0381  C.3     1  <O>11       0.0368
   2 O1       -8.5511    -0.9311    -7.2951  O.3     1  <O>11      -0.3797
   3 C2       -7.2210    -0.4410    -7.3210  C.3     1  <O>11       0.0612
   4 C3       -7.2266     0.9926    -7.8396  C.3     1  <O>11      -0.0107
   5 C4       -5.8347     1.6071    -7.7616  C.3     1  <O>11       0.0173
   6 N1       -5.2938     1.5454    -6.3810  N.am    1  <O>11      -0.2973
   7 C5       -4.8536     2.5989    -5.6437  C.2     1  <O>11       0.2494
   8 O2       -4.4275     2.4176    -4.5134  O.2     1  <O>11      -0.2699
   9 C6       -4.8886     3.9437    -6.2024  C.ar    1  <O>11       0.0723
  10 C7       -6.0232     4.7549    -6.0302  C.ar    1  <O>11      -0.0433
  11 C8       -6.0600     6.0426    -6.5773  C.ar    1  <O>11      -0.0406
  12 C9       -7.2585     6.8833    -6.3924  C.3     1  <O>11       0.0171
  13 C10      -8.2068     6.6475    -7.5128  C.ar    1  <O>11       0.0736
  14 N2       -9.1796     5.6468    -7.4056  N.ar    1  <O>11      -0.1750
  15 N3       -9.9811     5.3505    -8.4535  N.ar    1  <O>11      -0.2425
  16 C11      -9.8378     6.0441    -9.6090  C.ar    1  <O>11       0.2725
  17 O3      -10.6337     5.6197   -10.6899  O.2     1  <O>11      -0.2658
  18 C12      -8.9618     7.1263    -9.7655  C.ar    1  <O>11       0.0496
  19 C13      -8.8512     7.8903   -10.9497  C.ar    1  <O>11      -0.0487
  20 C14      -7.9339     8.9363   -11.0489  C.ar    1  <O>11      -0.0610
  21 C15      -7.1069     9.2361    -9.9735  C.ar    1  <O>11      -0.0611
  22 C16      -7.1958     8.4890    -8.7974  C.ar    1  <O>11      -0.0521
  23 C17      -8.1246     7.4302    -8.6763  C.ar    1  <O>11       0.0106
  24 C18      -4.9663     6.5326    -7.2966  C.ar    1  <O>11      -0.0555
  25 C19      -3.8347     5.7277    -7.4627  C.ar    1  <O>11      -0.0254
  26 C20      -3.7873     4.4426    -6.9195  C.ar    1  <O>11       0.1355
  27 F1       -2.6753     3.6562    -7.0771  F       1  <O>11      -0.2047
  28 C21      -5.2702     0.1640    -5.8343  C.3     1  <O>11       0.0173
  29 C22      -6.6365    -0.5096    -5.9142  C.3     1  <O>11      -0.0107
  30 H1       -9.5600    -2.7016    -7.0183  H       1  <O>11       0.0524
  31 H2       -8.0625    -2.5128    -6.0749  H       1  <O>11       0.0524
  32 H3       -7.9782    -2.8342    -7.8236  H       1  <O>11       0.0524
  33 H4       -6.6181    -1.0589    -7.9872  H       1  <O>11       0.0597
  34 H5       -7.5602     0.9950    -8.8779  H       1  <O>11       0.0305
  35 H6       -7.9128     1.5873    -7.2356  H       1  <O>11       0.0305
  36 H7       -5.1682     1.0600    -8.4284  H       1  <O>11       0.0465
  37 H8       -5.8885     2.6489    -8.0762  H       1  <O>11       0.0465
  38 H9       -6.9680     7.9333    -6.3773  H       1  <O>11       0.0377
  39 H10      -7.7412     6.6262    -5.4485  H       1  <O>11       0.0377
  40 H11     -10.6766     4.6206    -8.3752  H       1  <O>11       0.1921
  41 H12      -4.5540    -0.4261    -6.4047  H       1  <O>11       0.0465
  42 H13      -4.9594     0.2052    -4.7904  H       1  <O>11       0.0465
  43 H14      -6.5310    -1.5558    -5.6261  H       1  <O>11       0.0305
  44 H15      -7.3169    -0.0094    -5.2252  H       1  <O>11       0.0305
  45 H16      -6.8327     4.3994    -5.4979  H       1  <O>11       0.0629
  46 H17      -9.4591     7.6705   -11.7541  H       1  <O>11       0.0625
  47 H18      -7.8697     9.4867   -11.9195  H       1  <O>11       0.0618
  48 H19      -6.4279    10.0100   -10.0439  H       1  <O>11       0.0618
  49 H20      -6.5742     8.7131    -8.0046  H       1  <O>11       0.0624
  50 H21      -4.9935     7.4812    -7.7021  H       1  <O>11       0.0621
  51 H22      -3.0257     6.0878    -7.9928  H       1  <O>11       0.0646
@<TRIPOS>BOND
     1     1     2    1
     2     2     3    1
     3     3     4    1
     4     4     5    1
     5     5     6    1
     6     6     7   am
     7     7     8    2
     8     7     9    1
     9     9    10   ar
    10    10    11   ar
    11    11    12    1
    12    12    13    1
    13    13    14   ar
    14    14    15   ar
    15    15    16   ar
    16    16    17    2
    17    16    18   ar
    18    18    19   ar
    19    19    20   ar
    20    20    21   ar
    21    21    22   ar
    22    22    23   ar
    23    13    23   ar
    24    18    23   ar
    25    11    24   ar
    26    24    25   ar
    27    25    26   ar
    28     9    26   ar
    29    26    27    1
    30     6    28    1
    31    28    29    1
    32     3    29    1
    33     1    30    1
    34     1    31    1
    35     1    32    1
    36     3    33    1
    37     4    34    1
    38     4    35    1
    39     5    36    1
    40     5    37    1
    41    12    38    1
    42    12    39    1
    43    15    40    1
    44    28    41    1
    45    28    42    1
    46    29    43    1
    47    29    44    1
    48    10    45    1
    49    19    46    1
    50    20    47    1
    51    21    48    1
    52    22    49    1
    53    24    50    1
    54    25    51    1
@<TRIPOS>MOLECULE
mol21_2_6
 51 54 0 0 0
SMALL
USER_CHARGES
****
VDW energy = -1.62
@<TRIPOS>ATOM
   1 C1       -8.5371    -2.3256    -7.0381  C.3     1  <O>11       0.0368
   2 O1       -8.5511    -0.9311    -7.2951  O.3     1  <O>11      -0.3797
   3 C2       -7.2210    -0.4410    -7.3210  C.3     1  <O>11       0.0612
   4 C3       -7.2266     0.9926    -7.8396  C.3     1  <O>11      -0.0107
   5 C4       -5.8347     1.6071    -7.7616  C.3     1  <O>11       0.0173
   6 N1       -5.2938     1.5454    -6.3810  N.am    1  <O>11      -0.2973
   7 C5       -4.8536     2.5989    -5.6437  C.2     1  <O>11       0.2494
   8 O2       -4.8841     3.7269    -6.1117  O.2     1  <O>11      -0.2699
   9 C6       -4.3469     2.3828    -4.2953  C.ar    1  <O>11       0.0723
  10 C7       -2.9825     2.1215    -4.0827  C.ar    1  <O>11      -0.0433
  11 C8       -2.4990     1.9027    -2.7876  C.ar    1  <O>11      -0.0406
  12 C9       -1.0649     1.6259    -2.5779  C.3     1  <O>11       0.0171
  13 C10      -0.3390     2.9060    -2.3667  C.ar    1  <O>11       0.0736
  14 N2       -1.0561     4.0862    -2.1383  N.ar    1  <O>11      -0.1750
  15 N3       -0.4165     5.2740    -2.0475  N.ar    1  <O>11      -0.2425
  16 C11       0.9328     5.3064    -2.1698  C.ar    1  <O>11       0.2725
  17 O3        1.5254     6.5834    -2.1649  O.2     1  <O>11      -0.2658
  18 C12       1.7321     4.1628    -2.2964  C.ar    1  <O>11       0.0496
  19 C13       3.1439     4.1873    -2.3648  C.ar    1  <O>11      -0.0487
  20 C14       3.8778     3.0119    -2.5231  C.ar    1  <O>11      -0.0610
  21 C15       3.2192     1.7925    -2.6220  C.ar    1  <O>11      -0.0611
  22 C16       1.8250     1.7476    -2.5636  C.ar    1  <O>11      -0.0521
  23 C17       1.0652     2.9279    -2.3960  C.ar    1  <O>11       0.0106
  24 C18      -3.3700     1.9459    -1.6952  C.ar    1  <O>11      -0.0555
  25 C19      -4.7267     2.2120    -1.9060  C.ar    1  <O>11      -0.0254
  26 C20      -5.2185     2.4334    -3.1937  C.ar    1  <O>11       0.1355
  27 F1       -6.5475     2.7006    -3.3993  F       1  <O>11      -0.2047
  28 C21      -5.2702     0.1640    -5.8343  C.3     1  <O>11       0.0173
  29 C22      -6.6365    -0.5096    -5.9142  C.3     1  <O>11      -0.0107
  30 H1       -9.5600    -2.7016    -7.0183  H       1  <O>11       0.0524
  31 H2       -8.0625    -2.5128    -6.0749  H       1  <O>11       0.0524
  32 H3       -7.9782    -2.8342    -7.8236  H       1  <O>11       0.0524
  33 H4       -6.6181    -1.0589    -7.9872  H       1  <O>11       0.0597
  34 H5       -7.5602     0.9950    -8.8779  H       1  <O>11       0.0305
  35 H6       -7.9128     1.5873    -7.2356  H       1  <O>11       0.0305
  36 H7       -5.1682     1.0600    -8.4284  H       1  <O>11       0.0465
  37 H8       -5.8885     2.6489    -8.0762  H       1  <O>11       0.0465
  38 H9       -0.6601     1.1190    -3.4532  H       1  <O>11       0.0377
  39 H10      -0.9416     0.9899    -1.7002  H       1  <O>11       0.0377
  40 H11      -0.9390     6.1257    -1.8916  H       1  <O>11       0.1921
  41 H12      -4.5540    -0.4261    -6.4047  H       1  <O>11       0.0465
  42 H13      -4.9594     0.2052    -4.7904  H       1  <O>11       0.0465
  43 H14      -6.5310    -1.5558    -5.6261  H       1  <O>11       0.0305
  44 H15      -7.3169    -0.0094    -5.2252  H       1  <O>11       0.0305
  45 H16      -2.3343     2.0909    -4.8851  H       1  <O>11       0.0629
  46 H17       3.6396     5.0898    -2.2965  H       1  <O>11       0.0625
  47 H18       4.9082     3.0478    -2.5666  H       1  <O>11       0.0618
  48 H19       3.7598     0.9213    -2.7385  H       1  <O>11       0.0618
  49 H20       1.3418     0.8392    -2.6441  H       1  <O>11       0.0624
  50 H21      -3.0146     1.7825    -0.7402  H       1  <O>11       0.0621
  51 H22      -5.3714     2.2452    -1.1008  H       1  <O>11       0.0646
@<TRIPOS>BOND
     1     1     2    1
     2     2     3    1
     3     3     4    1
     4     4     5    1
     5     5     6    1
     6     6     7   am
     7     7     8    2
     8     7     9    1
     9     9    10   ar
    10    10    11   ar
    11    11    12    1
    12    12    13    1
    13    13    14   ar
    14    14    15   ar
    15    15    16   ar
    16    16    17    2
    17    16    18   ar
    18    18    19   ar
    19    19    20   ar
    20    20    21   ar
    21    21    22   ar
    22    22    23   ar
    23    13    23   ar
    24    18    23   ar
    25    11    24   ar
    26    24    25   ar
    27    25    26   ar
    28     9    26   ar
    29    26    27    1
    30     6    28    1
    31    28    29    1
    32     3    29    1
    33     1    30    1
    34     1    31    1
    35     1    32    1
    36     3    33    1
    37     4    34    1
    38     4    35    1
    39     5    36    1
    40     5    37    1
    41    12    38    1
    42    12    39    1
    43    15    40    1
    44    28    41    1
    45    28    42    1
    46    29    43    1
    47    29    44    1
    48    10    45    1
    49    19    46    1
    50    20    47    1
    51    21    48    1
    52    22    49    1
    53    24    50    1
    54    25    51    1
@<TRIPOS>MOLECULE
mol21_2_7
 51 54 0 0 0
SMALL
USER_CHARGES
****
VDW energy = -1.35
@<TRIPOS>ATOM
   1 C1       -8.5371    -2.3256    -7.0381  C.3     1  <O>11       0.0368
   2 O1       -8.5511    -0.9311    -7.2951  O.3     1  <O>11      -0.3797
   3 C2       -7.2210    -0.4410    -7.3210  C.3     1  <O>11       0.0612
   4 C3       -6.6838    -0.5283    -8.7451  C.3     1  <O>11      -0.0107
   5 C4       -5.3038     0.1088    -8.8484  C.3     1  <O>11       0.0173
   6 N1       -5.3214     1.5151    -8.3742  N.am    1  <O>11      -0.2973
   7 C5       -4.9228     2.6053    -9.0810  C.2     1  <O>11       0.2494
   8 O2       -4.5011     2.4739   -10.2199  O.2     1  <O>11      -0.2699
   9 C6       -5.0001     3.9302    -8.4808  C.ar    1  <O>11       0.0723
  10 C7       -6.1629     4.7069    -8.6214  C.ar    1  <O>11      -0.0433
  11 C8       -6.2315     5.9845    -8.0540  C.ar    1  <O>11      -0.0406
  12 C9       -7.4568     6.7914    -8.2117  C.3     1  <O>11       0.0171
  13 C10      -7.7151     7.0227    -9.6573  C.ar    1  <O>11       0.0736
  14 N2       -7.0021     6.2974   -10.6190  N.ar    1  <O>11      -0.1750
  15 N3       -7.1501     6.5685   -11.9355  N.ar    1  <O>11      -0.2425
  16 C11      -8.0082     7.5468   -12.3139  C.ar    1  <O>11       0.2725
  17 O3       -8.0407     7.8451   -13.6894  O.2     1  <O>11      -0.2658
  18 C12      -8.8334     8.2475   -11.4246  C.ar    1  <O>11       0.0496
  19 C13      -9.7724     9.2272   -11.8207  C.ar    1  <O>11      -0.0487
  20 C14     -10.5409     9.9107   -10.8786  C.ar    1  <O>11      -0.0610
  21 C15     -10.3839     9.6354    -9.5259  C.ar    1  <O>11      -0.0611
  22 C16      -9.4569     8.6762    -9.1136  C.ar    1  <O>11      -0.0521
  23 C17      -8.6748     7.9683   -10.0548  C.ar    1  <O>11       0.0106
  24 C18      -5.1443     6.4960    -7.3398  C.ar    1  <O>11      -0.0555
  25 C19      -3.9894     5.7208    -7.1945  C.ar    1  <O>11      -0.0254
  26 C20      -3.9117     4.4446    -7.7552  C.ar    1  <O>11       0.1355
  27 F1       -2.7816     3.6824    -7.6070  F       1  <O>11      -0.2047
  28 C21      -5.8393     1.6475    -6.9878  C.3     1  <O>11       0.0173
  29 C22      -7.2103     0.9998    -6.8216  C.3     1  <O>11      -0.0107
  30 H1       -9.5600    -2.7016    -7.0183  H       1  <O>11       0.0524
  31 H2       -8.0625    -2.5128    -6.0749  H       1  <O>11       0.0524
  32 H3       -7.9782    -2.8342    -7.8236  H       1  <O>11       0.0524
  33 H4       -6.5960    -1.0490    -6.6662  H       1  <O>11       0.0597
  34 H5       -6.6156    -1.5769    -9.0369  H       1  <O>11       0.0305
  35 H6       -7.3676    -0.0076    -9.4163  H       1  <O>11       0.0305
  36 H7       -4.6036    -0.4623    -8.2386  H       1  <O>11       0.0465
  37 H8       -4.9803     0.0884    -9.8886  H       1  <O>11       0.0465
  38 H9       -7.3296     7.7489    -7.7077  H       1  <O>11       0.0377
  39 H10      -8.3019     6.2592    -7.7728  H       1  <O>11       0.0377
  40 H11      -6.6263     6.0485   -12.6268  H       1  <O>11       0.1921
  41 H12      -5.1392     1.1674    -6.3052  H       1  <O>11       0.0465
  42 H13      -5.9191     2.7066    -6.7429  H       1  <O>11       0.0465
  43 H14      -7.4789     1.0095    -5.7650  H       1  <O>11       0.0305
  44 H15      -7.9427     1.5745    -7.3884  H       1  <O>11       0.0305
  45 H16      -6.9697     4.3335    -9.1455  H       1  <O>11       0.0629
  46 H17      -9.8912     9.4401   -12.8235  H       1  <O>11       0.0625
  47 H18     -11.2250    10.6197   -11.1858  H       1  <O>11       0.0618
  48 H19     -10.9517    10.1392    -8.8268  H       1  <O>11       0.0618
  49 H20      -9.3409     8.4811    -8.1069  H       1  <O>11       0.0624
  50 H21      -5.1934     7.4387    -6.9229  H       1  <O>11       0.0621
  51 H22      -3.1858     6.0962    -6.6669  H       1  <O>11       0.0646
@<TRIPOS>BOND
     1     1     2    1
     2     2     3    1
     3     3     4    1
     4     4     5    1
     5     5     6    1
     6     6     7   am
     7     7     8    2
     8     7     9    1
     9     9    10   ar
    10    10    11   ar
    11    11    12    1
    12    12    13    1
    13    13    14   ar
    14    14    15   ar
    15    15    16   ar
    16    16    17    2
    17    16    18   ar
    18    18    19   ar
    19    19    20   ar
    20    20    21   ar
    21    21    22   ar
    22    22    23   ar
    23    13    23   ar
    24    18    23   ar
    25    11    24   ar
    26    24    25   ar
    27    25    26   ar
    28     9    26   ar
    29    26    27    1
    30     6    28    1
    31    28    29    1
    32     3    29    1
    33     1    30    1
    34     1    31    1
    35     1    32    1
    36     3    33    1
    37     4    34    1
    38     4    35    1
    39     5    36    1
    40     5    37    1
    41    12    38    1
    42    12    39    1
    43    15    40    1
    44    28    41    1
    45    28    42    1
    46    29    43    1
    47    29    44    1
    48    10    45    1
    49    19    46    1
    50    20    47    1
    51    21    48    1
    52    22    49    1
    53    24    50    1
    54    25    51    1
@<TRIPOS>MOLECULE
mol21_2_8
 51 54 0 0 0
SMALL
USER_CHARGES
****
VDW energy = 1.98
@<TRIPOS>ATOM
   1 C1       -8.5371    -2.3256    -7.0381  C.3     1  <O>11       0.0368
   2 O1       -8.5511    -0.9311    -7.2951  O.3     1  <O>11      -0.3797
   3 C2       -7.2210    -0.4410    -7.3210  C.3     1  <O>11       0.0612
   4 C3       -7.2266     0.9926    -7.8396  C.3     1  <O>11      -0.0107
   5 C4       -5.8347     1.6071    -7.7616  C.3     1  <O>11       0.0173
   6 N1       -5.2938     1.5454    -6.3810  N.am    1  <O>11      -0.2973
   7 C5       -4.8536     2.5989    -5.6437  C.2     1  <O>11       0.2494
   8 O2       -4.4275     2.4176    -4.5134  O.2     1  <O>11      -0.2699
   9 C6       -4.8886     3.9437    -6.2024  C.ar    1  <O>11       0.0723
  10 C7       -6.0232     4.7549    -6.0302  C.ar    1  <O>11      -0.0433
  11 C8       -6.0600     6.0426    -6.5773  C.ar    1  <O>11      -0.0406
  12 C9       -7.2585     6.8833    -6.3924  C.3     1  <O>11       0.0171
  13 C10      -7.4926     7.0998    -4.9404  C.ar    1  <O>11       0.0736
  14 N2       -6.9108     8.1972    -4.2950  N.ar    1  <O>11      -0.1750
  15 N3       -7.0284     8.3510    -2.9568  N.ar    1  <O>11      -0.2425
  16 C11      -7.7282     7.4324    -2.2474  C.ar    1  <O>11       0.2725
  17 O3       -7.7282     7.5974    -0.8492  O.2     1  <O>11      -0.2658
  18 C12      -8.4255     6.3647    -2.8276  C.ar    1  <O>11       0.0496
  19 C13      -9.2051     5.4385    -2.0978  C.ar    1  <O>11      -0.0487
  20 C14      -9.8485     4.3782    -2.7358  C.ar    1  <O>11      -0.0610
  21 C15      -9.7222     4.2178    -4.1101  C.ar    1  <O>11      -0.0611
  22 C16      -8.9511     5.1179    -4.8481  C.ar    1  <O>11      -0.0521
  23 C17      -8.2980     6.2027    -4.2194  C.ar    1  <O>11       0.0106
  24 C18      -4.9663     6.5326    -7.2966  C.ar    1  <O>11      -0.0555
  25 C19      -3.8347     5.7277    -7.4627  C.ar    1  <O>11      -0.0254
  26 C20      -3.7873     4.4426    -6.9195  C.ar    1  <O>11       0.1355
  27 F1       -2.6753     3.6562    -7.0771  F       1  <O>11      -0.2047
  28 C21      -5.2702     0.1640    -5.8343  C.3     1  <O>11       0.0173
  29 C22      -6.6365    -0.5096    -5.9142  C.3     1  <O>11      -0.0107
  30 H1       -9.5600    -2.7016    -7.0183  H       1  <O>11       0.0524
  31 H2       -8.0625    -2.5128    -6.0749  H       1  <O>11       0.0524
  32 H3       -7.9782    -2.8342    -7.8236  H       1  <O>11       0.0524
  33 H4       -6.6181    -1.0589    -7.9872  H       1  <O>11       0.0597
  34 H5       -7.5602     0.9950    -8.8779  H       1  <O>11       0.0305
  35 H6       -7.9128     1.5873    -7.2356  H       1  <O>11       0.0305
  36 H7       -5.1682     1.0600    -8.4284  H       1  <O>11       0.0465
  37 H8       -5.8885     2.6489    -8.0762  H       1  <O>11       0.0465
  38 H9       -8.1235     6.3854    -6.8294  H       1  <O>11       0.0377
  39 H10      -7.1070     7.8458    -6.8829  H       1  <O>11       0.0377
  40 H11      -6.5989     9.1403    -2.4930  H       1  <O>11       0.1921
  41 H12      -4.5540    -0.4261    -6.4047  H       1  <O>11       0.0465
  42 H13      -4.9594     0.2052    -4.7904  H       1  <O>11       0.0465
  43 H14      -6.5310    -1.5558    -5.6261  H       1  <O>11       0.0305
  44 H15      -7.3169    -0.0094    -5.2252  H       1  <O>11       0.0305
  45 H16      -6.8327     4.3994    -5.4979  H       1  <O>11       0.0629
  46 H17      -9.2998     5.5488    -1.0761  H       1  <O>11       0.0625
  47 H18     -10.4174     3.7139    -2.1880  H       1  <O>11       0.0618
  48 H19     -10.1978     3.4346    -4.5847  H       1  <O>11       0.0618
  49 H20      -8.8564     4.9893    -5.8677  H       1  <O>11       0.0624
  50 H21      -4.9935     7.4812    -7.7021  H       1  <O>11       0.0621
  51 H22      -3.0257     6.0878    -7.9928  H       1  <O>11       0.0646
@<TRIPOS>BOND
     1     1     2    1
     2     2     3    1
     3     3     4    1
     4     4     5    1
     5     5     6    1
     6     6     7   am
     7     7     8    2
     8     7     9    1
     9     9    10   ar
    10    10    11   ar
    11    11    12    1
    12    12    13    1
    13    13    14   ar
    14    14    15   ar
    15    15    16   ar
    16    16    17    2
    17    16    18   ar
    18    18    19   ar
    19    19    20   ar
    20    20    21   ar
    21    21    22   ar
    22    22    23   ar
    23    13    23   ar
    24    18    23   ar
    25    11    24   ar
    26    24    25   ar
    27    25    26   ar
    28     9    26   ar
    29    26    27    1
    30     6    28    1
    31    28    29    1
    32     3    29    1
    33     1    30    1
    34     1    31    1
    35     1    32    1
    36     3    33    1
    37     4    34    1
    38     4    35    1
    39     5    36    1
    40     5    37    1
    41    12    38    1
    42    12    39    1
    43    15    40    1
    44    28    41    1
    45    28    42    1
    46    29    43    1
    47    29    44    1
    48    10    45    1
    49    19    46    1
    50    20    47    1
    51    21    48    1
    52    22    49    1
    53    24    50    1
    54    25    51    1
@<TRIPOS>MOLECULE
mol21_2_9
 51 54 0 0 0
SMALL
USER_CHARGES
****
VDW energy = 2.54
@<TRIPOS>ATOM
   1 C1       -8.5371    -2.3256    -7.0381  C.3     1  <O>11       0.0368
   2 O1       -8.5511    -0.9311    -7.2951  O.3     1  <O>11      -0.3797
   3 C2       -7.2210    -0.4410    -7.3210  C.3     1  <O>11       0.0612
   4 C3       -7.2266     0.9926    -7.8396  C.3     1  <O>11      -0.0107
   5 C4       -5.8347     1.6071    -7.7616  C.3     1  <O>11       0.0173
   6 N1       -5.2938     1.5454    -6.3810  N.am    1  <O>11      -0.2973
   7 C5       -4.8536     2.5989    -5.6437  C.2     1  <O>11       0.2494
   8 O2       -4.8827     3.7267    -6.1122  O.2     1  <O>11      -0.2699
   9 C6       -4.3485     2.3831    -4.2947  C.ar    1  <O>11       0.0723
  10 C7       -5.2200     2.4348    -3.1934  C.ar    1  <O>11      -0.0433
  11 C8       -4.7314     2.2386    -1.8965  C.ar    1  <O>11      -0.0406
  12 C9       -5.6561     2.2988    -0.7483  C.3     1  <O>11       0.0171
  13 C10      -6.2943     3.6404    -0.6958  C.ar    1  <O>11       0.0736
  14 N2       -6.1731     4.5145    -1.7824  N.ar    1  <O>11      -0.1750
  15 N3       -6.6584     5.7745    -1.7101  N.ar    1  <O>11      -0.2425
  16 C11      -7.2753     6.1783    -0.5729  C.ar    1  <O>11       0.2725
  17 O3       -7.6681     7.5294    -0.5268  O.2     1  <O>11      -0.2658
  18 C12      -7.5283     5.3367     0.5182  C.ar    1  <O>11       0.0496
  19 C13      -8.2235     5.7371     1.6821  C.ar    1  <O>11      -0.0487
  20 C14      -8.4131     4.8560     2.7466  C.ar    1  <O>11      -0.0610
  21 C15      -7.9090     3.5633     2.6735  C.ar    1  <O>11      -0.0611
  22 C16      -7.2135     3.1506     1.5354  C.ar    1  <O>11      -0.0521
  23 C17      -7.0183     4.0276     0.4439  C.ar    1  <O>11       0.0106
  24 C18      -3.3726     1.9862    -1.6878  C.ar    1  <O>11      -0.0555
  25 C19      -2.5063     1.9286    -2.7842  C.ar    1  <O>11      -0.0254
  26 C20      -2.9840     2.1211    -4.0817  C.ar    1  <O>11       0.1355
  27 F1       -2.1355     2.0582    -5.1569  F       1  <O>11      -0.2047
  28 C21      -5.2702     0.1640    -5.8343  C.3     1  <O>11       0.0173
  29 C22      -6.6365    -0.5096    -5.9142  C.3     1  <O>11      -0.0107
  30 H1       -9.5600    -2.7016    -7.0183  H       1  <O>11       0.0524
  31 H2       -8.0625    -2.5128    -6.0749  H       1  <O>11       0.0524
  32 H3       -7.9782    -2.8342    -7.8236  H       1  <O>11       0.0524
  33 H4       -6.6181    -1.0589    -7.9872  H       1  <O>11       0.0597
  34 H5       -7.5602     0.9950    -8.8779  H       1  <O>11       0.0305
  35 H6       -7.9128     1.5873    -7.2356  H       1  <O>11       0.0305
  36 H7       -5.1682     1.0600    -8.4284  H       1  <O>11       0.0465
  37 H8       -5.8885     2.6489    -8.0762  H       1  <O>11       0.0465
  38 H9       -5.1032     2.1233     0.1741  H       1  <O>11       0.0377
  39 H10      -6.4265     1.5347    -0.8611  H       1  <O>11       0.0377
  40 H11      -6.5607     6.4060    -2.4939  H       1  <O>11       0.1921
  41 H12      -4.5540    -0.4261    -6.4047  H       1  <O>11       0.0465
  42 H13      -4.9594     0.2052    -4.7904  H       1  <O>11       0.0465
  43 H14      -6.5310    -1.5558    -5.6261  H       1  <O>11       0.0305
  44 H15      -7.3169    -0.0094    -5.2252  H       1  <O>11       0.0305
  45 H16      -6.2247     2.6183    -3.3416  H       1  <O>11       0.0629
  46 H17      -8.5968     6.6971     1.7453  H       1  <O>11       0.0625
  47 H18      -8.9269     5.1637     3.5870  H       1  <O>11       0.0618
  48 H19      -8.0485     2.9092     3.4594  H       1  <O>11       0.0618
  49 H20      -6.8363     2.1910     1.4903  H       1  <O>11       0.0624
  50 H21      -3.0112     1.8435    -0.7317  H       1  <O>11       0.0621
  51 H22      -1.5027     1.7416    -2.6324  H       1  <O>11       0.0646
@<TRIPOS>BOND
     1     1     2    1
     2     2     3    1
     3     3     4    1
     4     4     5    1
     5     5     6    1
     6     6     7   am
     7     7     8    2
     8     7     9    1
     9     9    10   ar
    10    10    11   ar
    11    11    12    1
    12    12    13    1
    13    13    14   ar
    14    14    15   ar
    15    15    16   ar
    16    16    17    2
    17    16    18   ar
    18    18    19   ar
    19    19    20   ar
    20    20    21   ar
    21    21    22   ar
    22    22    23   ar
    23    13    23   ar
    24    18    23   ar
    25    11    24   ar
    26    24    25   ar
    27    25    26   ar
    28     9    26   ar
    29    26    27    1
    30     6    28    1
    31    28    29    1
    32     3    29    1
    33     1    30    1
    34     1    31    1
    35     1    32    1
    36     3    33    1
    37     4    34    1
    38     4    35    1
    39     5    36    1
    40     5    37    1
    41    12    38    1
    42    12    39    1
    43    15    40    1
    44    28    41    1
    45    28    42    1
    46    29    43    1
    47    29    44    1
    48    10    45    1
    49    19    46    1
    50    20    47    1
    51    21    48    1
    52    22    49    1
    53    24    50    1
    54    25    51    1
@<TRIPOS>MOLECULE
mol21_2_10
 51 54 0 0 0
SMALL
USER_CHARGES
****
VDW energy = 3.32
@<TRIPOS>ATOM
   1 C1       -8.5371    -2.3256    -7.0381  C.3     1  <O>11       0.0368
   2 O1       -8.5511    -0.9311    -7.2951  O.3     1  <O>11      -0.3797
   3 C2       -7.2210    -0.4410    -7.3210  C.3     1  <O>11       0.0612
   4 C3       -6.6838    -0.5283    -8.7451  C.3     1  <O>11      -0.0107
   5 C4       -5.3038     0.1088    -8.8484  C.3     1  <O>11       0.0173
   6 N1       -5.3214     1.5151    -8.3742  N.am    1  <O>11      -0.2973
   7 C5       -4.9228     2.6053    -9.0810  C.2     1  <O>11       0.2494
   8 O2       -4.5011     2.4739   -10.2199  O.2     1  <O>11      -0.2699
   9 C6       -5.0001     3.9302    -8.4808  C.ar    1  <O>11       0.0723
  10 C7       -6.1629     4.7069    -8.6214  C.ar    1  <O>11      -0.0433
  11 C8       -6.2315     5.9845    -8.0540  C.ar    1  <O>11      -0.0406
  12 C9       -7.4568     6.7914    -8.2117  C.3     1  <O>11       0.0171
  13 C10      -7.7151     7.0227    -9.6573  C.ar    1  <O>11       0.0736
  14 N2       -7.1730     8.1460   -10.2927  N.ar    1  <O>11      -0.1750
  15 N3       -7.4826     8.4260   -11.5788  N.ar    1  <O>11      -0.2425
  16 C11      -8.3181     7.5970   -12.2505  C.ar    1  <O>11       0.2725
  17 O3       -8.6772     7.9990   -13.5511  O.2     1  <O>11      -0.2658
  18 C12      -8.8205     6.4005   -11.7225  C.ar    1  <O>11       0.0496
  19 C13      -9.6444     5.5031   -12.4395  C.ar    1  <O>11      -0.0487
  20 C14     -10.1369     4.3431   -11.8417  C.ar    1  <O>11      -0.0610
  21 C15      -9.8229     4.0594   -10.5184  C.ar    1  <O>11      -0.0611
  22 C16      -9.0162     4.9364    -9.7908  C.ar    1  <O>11      -0.0521
  23 C17      -8.5020     6.1129   -10.3825  C.ar    1  <O>11       0.0106
  24 C18      -5.1443     6.4960    -7.3398  C.ar    1  <O>11      -0.0555
  25 C19      -3.9894     5.7208    -7.1945  C.ar    1  <O>11      -0.0254
  26 C20      -3.9117     4.4446    -7.7552  C.ar    1  <O>11       0.1355
  27 F1       -2.7816     3.6824    -7.6070  F       1  <O>11      -0.2047
  28 C21      -5.8393     1.6475    -6.9878  C.3     1  <O>11       0.0173
  29 C22      -7.2103     0.9998    -6.8216  C.3     1  <O>11      -0.0107
  30 H1       -9.5600    -2.7016    -7.0183  H       1  <O>11       0.0524
  31 H2       -8.0625    -2.5128    -6.0749  H       1  <O>11       0.0524
  32 H3       -7.9782    -2.8342    -7.8236  H       1  <O>11       0.0524
  33 H4       -6.5960    -1.0490    -6.6662  H       1  <O>11       0.0597
  34 H5       -6.6156    -1.5769    -9.0369  H       1  <O>11       0.0305
  35 H6       -7.3676    -0.0076    -9.4163  H       1  <O>11       0.0305
  36 H7       -4.6036    -0.4623    -8.2386  H       1  <O>11       0.0465
  37 H8       -4.9803     0.0884    -9.8886  H       1  <O>11       0.0465
  38 H9       -7.3296     7.7489    -7.7077  H       1  <O>11       0.0377
  39 H10      -8.3019     6.2592    -7.7728  H       1  <O>11       0.0377
  40 H11      -7.0962     9.2436   -12.0315  H       1  <O>11       0.1921
  41 H12      -5.1392     1.1674    -6.3052  H       1  <O>11       0.0465
  42 H13      -5.9191     2.7066    -6.7429  H       1  <O>11       0.0465
  43 H14      -7.4789     1.0095    -5.7650  H       1  <O>11       0.0305
  44 H15      -7.9427     1.5745    -7.3884  H       1  <O>11       0.0305
  45 H16      -6.9697     4.3335    -9.1455  H       1  <O>11       0.0629
  46 H17      -9.8855     5.7096   -13.4215  H       1  <O>11       0.0625
  47 H18     -10.7335     3.6968   -12.3814  H       1  <O>11       0.0618
  48 H19     -10.1854     3.2015   -10.0739  H       1  <O>11       0.0618
  49 H20      -8.7919     4.7227    -8.8064  H       1  <O>11       0.0624
  50 H21      -5.1934     7.4387    -6.9229  H       1  <O>11       0.0621
  51 H22      -3.1858     6.0962    -6.6669  H       1  <O>11       0.0646
@<TRIPOS>BOND
     1     1     2    1
     2     2     3    1
     3     3     4    1
     4     4     5    1
     5     5     6    1
     6     6     7   am
     7     7     8    2
     8     7     9    1
     9     9    10   ar
    10    10    11   ar
    11    11    12    1
    12    12    13    1
    13    13    14   ar
    14    14    15   ar
    15    15    16   ar
    16    16    17    2
    17    16    18   ar
    18    18    19   ar
    19    19    20   ar
    20    20    21   ar
    21    21    22   ar
    22    22    23   ar
    23    13    23   ar
    24    18    23   ar
    25    11    24   ar
    26    24    25   ar
    27    25    26   ar
    28     9    26   ar
    29    26    27    1
    30     6    28    1
    31    28    29    1
    32     3    29    1
    33     1    30    1
    34     1    31    1
    35     1    32    1
    36     3    33    1
    37     4    34    1
    38     4    35    1
    39     5    36    1
    40     5    37    1
    41    12    38    1
    42    12    39    1
    43    15    40    1
    44    28    41    1
    45    28    42    1
    46    29    43    1
    47    29    44    1
    48    10    45    1
    49    19    46    1
    50    20    47    1
    51    21    48    1
    52    22    49    1
    53    24    50    1
    54    25    51    1
@<TRIPOS>MOLECULE
mol21_2_11
 51 54 0 0 0
SMALL
USER_CHARGES
****
VDW energy = 4.85
@<TRIPOS>ATOM
   1 C1       -8.5371    -2.3256    -7.0381  C.3     1  <O>11       0.0368
   2 O1       -8.5511    -0.9311    -7.2951  O.3     1  <O>11      -0.3797
   3 C2       -7.2210    -0.4410    -7.3210  C.3     1  <O>11       0.0612
   4 C3       -7.2266     0.9926    -7.8396  C.3     1  <O>11      -0.0107
   5 C4       -5.8347     1.6071    -7.7616  C.3     1  <O>11       0.0173
   6 N1       -5.2938     1.5454    -6.3810  N.am    1  <O>11      -0.2973
   7 C5       -4.8536     2.5989    -5.6437  C.2     1  <O>11       0.2494
   8 O2       -4.8827     3.7267    -6.1122  O.2     1  <O>11      -0.2699
   9 C6       -4.3485     2.3831    -4.2947  C.ar    1  <O>11       0.0723
  10 C7       -2.9846     2.1208    -4.0805  C.ar    1  <O>11      -0.0433
  11 C8       -2.5026     1.9022    -2.7847  C.ar    1  <O>11      -0.0406
  12 C9       -1.0690     1.6245    -2.5734  C.3     1  <O>11       0.0171
  13 C10      -0.2636     2.7708    -3.0708  C.ar    1  <O>11       0.0736
  14 N2        0.0543     3.8271    -2.2092  N.ar    1  <O>11      -0.1750
  15 N3        0.6961     4.9238    -2.6717  N.ar    1  <O>11      -0.2425
  16 C11       1.0385     4.9829    -3.9817  C.ar    1  <O>11       0.2725
  17 O3        1.6140     6.1912    -4.4183  O.2     1  <O>11      -0.2658
  18 C12       0.8496     3.9291    -4.8855  C.ar    1  <O>11       0.0496
  19 C13       1.2585     3.9637    -6.2382  C.ar    1  <O>11      -0.0487
  20 C14       1.0104     2.8900    -7.0932  C.ar    1  <O>11      -0.0610
  21 C15       0.3458     1.7661    -6.6183  C.ar    1  <O>11      -0.0611
  22 C16      -0.0724     1.7151    -5.2872  C.ar    1  <O>11      -0.0521
  23 C17       0.1771     2.7908    -4.4044  C.ar    1  <O>11       0.0106
  24 C18      -3.3748     1.9465    -1.6933  C.ar    1  <O>11      -0.0555
  25 C19      -4.7310     2.2136    -1.9057  C.ar    1  <O>11      -0.0254
  26 C20      -5.2213     2.4348    -3.1940  C.ar    1  <O>11       0.1355
  27 F1       -6.5499     2.7029    -3.4012  F       1  <O>11      -0.2047
  28 C21      -5.2702     0.1640    -5.8343  C.3     1  <O>11       0.0173
  29 C22      -6.6365    -0.5096    -5.9142  C.3     1  <O>11      -0.0107
  30 H1       -9.5600    -2.7016    -7.0183  H       1  <O>11       0.0524
  31 H2       -8.0625    -2.5128    -6.0749  H       1  <O>11       0.0524
  32 H3       -7.9782    -2.8342    -7.8236  H       1  <O>11       0.0524
  33 H4       -6.6181    -1.0589    -7.9872  H       1  <O>11       0.0597
  34 H5       -7.5602     0.9950    -8.8779  H       1  <O>11       0.0305
  35 H6       -7.9128     1.5873    -7.2356  H       1  <O>11       0.0305
  36 H7       -5.1682     1.0600    -8.4284  H       1  <O>11       0.0465
  37 H8       -5.8885     2.6489    -8.0762  H       1  <O>11       0.0465
  38 H9       -0.7892     0.7217    -3.1154  H       1  <O>11       0.0377
  39 H10      -0.8789     1.4826    -1.5086  H       1  <O>11       0.0377
  40 H11       0.9158     5.6889    -2.0480  H       1  <O>11       0.1921
  41 H12      -4.5540    -0.4261    -6.4047  H       1  <O>11       0.0465
  42 H13      -4.9594     0.2052    -4.7904  H       1  <O>11       0.0465
  43 H14      -6.5310    -1.5558    -5.6261  H       1  <O>11       0.0305
  44 H15      -7.3169    -0.0094    -5.2252  H       1  <O>11       0.0305
  45 H16      -2.3355     2.0893    -4.8822  H       1  <O>11       0.0629
  46 H17       1.7487     4.7970    -6.5991  H       1  <O>11       0.0625
  47 H18       1.3199     2.9303    -8.0769  H       1  <O>11       0.0618
  48 H19       0.1616     0.9700    -7.2486  H       1  <O>11       0.0618
  49 H20      -0.5710     0.8799    -4.9426  H       1  <O>11       0.0624
  50 H21      -3.0205     1.7834    -0.7379  H       1  <O>11       0.0621
  51 H22      -5.3766     2.2476    -1.1012  H       1  <O>11       0.0646
@<TRIPOS>BOND
     1     1     2    1
     2     2     3    1
     3     3     4    1
     4     4     5    1
     5     5     6    1
     6     6     7   am
     7     7     8    2
     8     7     9    1
     9     9    10   ar
    10    10    11   ar
    11    11    12    1
    12    12    13    1
    13    13    14   ar
    14    14    15   ar
    15    15    16   ar
    16    16    17    2
    17    16    18   ar
    18    18    19   ar
    19    19    20   ar
    20    20    21   ar
    21    21    22   ar
    22    22    23   ar
    23    13    23   ar
    24    18    23   ar
    25    11    24   ar
    26    24    25   ar
    27    25    26   ar
    28     9    26   ar
    29    26    27    1
    30     6    28    1
    31    28    29    1
    32     3    29    1
    33     1    30    1
    34     1    31    1
    35     1    32    1
    36     3    33    1
    37     4    34    1
    38     4    35    1
    39     5    36    1
    40     5    37    1
    41    12    38    1
    42    12    39    1
    43    15    40    1
    44    28    41    1
    45    28    42    1
    46    29    43    1
    47    29    44    1
    48    10    45    1
    49    19    46    1
    50    20    47    1
    51    21    48    1
    52    22    49    1
    53    24    50    1
    54    25    51    1
@<TRIPOS>MOLECULE
mol21_2_12
 51 54 0 0 0
SMALL
USER_CHARGES
****
VDW energy = 5.33
@<TRIPOS>ATOM
   1 C1       -8.5371    -2.3256    -7.0381  C.3     1  <O>11       0.0368
   2 O1       -8.5511    -0.9311    -7.2951  O.3     1  <O>11      -0.3797
   3 C2       -7.2210    -0.4410    -7.3210  C.3     1  <O>11       0.0612
   4 C3       -6.3322    -1.4457    -8.0456  C.3     1  <O>11      -0.0107
   5 C4       -4.9188    -0.9025    -8.2142  C.3     1  <O>11       0.0173
   6 N1       -4.9228     0.4047    -8.9169  N.am    1  <O>11      -0.2973
   7 C5       -4.2422     0.7066   -10.0539  C.2     1  <O>11       0.2494
   8 O2       -4.3265     1.8253   -10.5372  O.2     1  <O>11      -0.2699
   9 C6       -3.4111    -0.3035   -10.6948  C.ar    1  <O>11       0.0723
  10 C7       -2.0568    -0.4360   -10.3438  C.ar    1  <O>11      -0.0433
  11 C8       -1.2565    -1.3993   -10.9688  C.ar    1  <O>11      -0.0406
  12 C9        0.1650    -1.5262   -10.5938  C.3     1  <O>11       0.0171
  13 C10       0.9867    -0.6396   -11.4591  C.ar    1  <O>11       0.0736
  14 N2        0.3652     0.3229   -12.2632  N.ar    1  <O>11      -0.1750
  15 N3        1.0880     1.0658   -13.1315  N.ar    1  <O>11      -0.2425
  16 C11       2.4275     0.8739   -13.2060  C.ar    1  <O>11       0.2725
  17 O3        3.1048     1.6077   -14.1983  O.2     1  <O>11      -0.2658
  18 C12       3.1391     0.0068   -12.3666  C.ar    1  <O>11       0.0496
  19 C13       4.5433    -0.1528   -12.4006  C.ar    1  <O>11      -0.0487
  20 C14       5.1858    -1.0588   -11.5569  C.ar    1  <O>11      -0.0610
  21 C15       4.4414    -1.8257   -10.6691  C.ar    1  <O>11      -0.0611
  22 C16       3.0528    -1.6879   -10.6248  C.ar    1  <O>11      -0.0521
  23 C17       2.3854    -0.7695   -11.4672  C.ar    1  <O>11       0.0106
  24 C18      -1.8000    -2.2393   -11.9448  C.ar    1  <O>11      -0.0555
  25 C19      -3.1493    -2.1117   -12.2898  C.ar    1  <O>11      -0.0254
  26 C20      -3.9563    -1.1552   -11.6711  C.ar    1  <O>11       0.1355
  27 F1       -5.2807    -1.0347   -12.0050  F       1  <O>11      -0.2047
  28 C21      -5.7785     1.4161    -8.2442  C.3     1  <O>11       0.0173
  29 C22      -7.2012     0.9116    -8.0249  C.3     1  <O>11      -0.0107
  30 H1       -9.5600    -2.7016    -7.0183  H       1  <O>11       0.0524
  31 H2       -8.0625    -2.5128    -6.0749  H       1  <O>11       0.0524
  32 H3       -7.9782    -2.8342    -7.8236  H       1  <O>11       0.0524
  33 H4       -6.8590    -0.3159    -6.3000  H       1  <O>11       0.0597
  34 H5       -6.2931    -2.3694    -7.4673  H       1  <O>11       0.0305
  35 H6       -6.7548    -1.6502    -9.0299  H       1  <O>11       0.0305
  36 H7       -4.4690    -0.7744    -7.2295  H       1  <O>11       0.0465
  37 H8       -4.3312    -1.6151    -8.7921  H       1  <O>11       0.0465
  38 H9        0.4852    -2.5594   -10.7244  H       1  <O>11       0.0377
  39 H10       0.2934    -1.2352    -9.5504  H       1  <O>11       0.0377
  40 H11       0.6340     1.7538   -13.7173  H       1  <O>11       0.1921
  41 H12      -5.3393     1.6590    -7.2774  H       1  <O>11       0.0465
  42 H13      -5.8151     2.3123    -8.8635  H       1  <O>11       0.0465
  43 H14      -7.7417     1.6354    -7.4145  H       1  <O>11       0.0305
  44 H15      -7.6931     0.8124    -8.9925  H       1  <O>11       0.0305
  45 H16      -1.6506     0.1797    -9.6221  H       1  <O>11       0.0629
  46 H17       5.1022     0.4102   -13.0606  H       1  <O>11       0.0625
  47 H18       6.2123    -1.1592   -11.5920  H       1  <O>11       0.0618
  48 H19       4.9144    -2.4962   -10.0433  H       1  <O>11       0.0618
  49 H20       2.5054    -2.2652    -9.9674  H       1  <O>11       0.0624
  50 H21      -1.2100    -2.9484   -12.4075  H       1  <O>11       0.0621
  51 H22      -3.5528    -2.7314   -13.0096  H       1  <O>11       0.0646
@<TRIPOS>BOND
     1     1     2    1
     2     2     3    1
     3     3     4    1
     4     4     5    1
     5     5     6    1
     6     6     7   am
     7     7     8    2
     8     7     9    1
     9     9    10   ar
    10    10    11   ar
    11    11    12    1
    12    12    13    1
    13    13    14   ar
    14    14    15   ar
    15    15    16   ar
    16    16    17    2
    17    16    18   ar
    18    18    19   ar
    19    19    20   ar
    20    20    21   ar
    21    21    22   ar
    22    22    23   ar
    23    13    23   ar
    24    18    23   ar
    25    11    24   ar
    26    24    25   ar
    27    25    26   ar
    28     9    26   ar
    29    26    27    1
    30     6    28    1
    31    28    29    1
    32     3    29    1
    33     1    30    1
    34     1    31    1
    35     1    32    1
    36     3    33    1
    37     4    34    1
    38     4    35    1
    39     5    36    1
    40     5    37    1
    41    12    38    1
    42    12    39    1
    43    15    40    1
    44    28    41    1
    45    28    42    1
    46    29    43    1
    47    29    44    1
    48    10    45    1
    49    19    46    1
    50    20    47    1
    51    21    48    1
    52    22    49    1
    53    24    50    1
    54    25    51    1
@<TRIPOS>MOLECULE
mol21_2_13
 51 54 0 0 0
SMALL
USER_CHARGES
****
VDW energy = 5.39
@<TRIPOS>ATOM
   1 C1       -8.5371    -2.3256    -7.0381  C.3     1  <O>11       0.0368
   2 O1       -8.5511    -0.9311    -7.2951  O.3     1  <O>11      -0.3797
   3 C2       -7.2210    -0.4410    -7.3210  C.3     1  <O>11       0.0612
   4 C3       -6.3322    -1.4457    -8.0456  C.3     1  <O>11      -0.0107
   5 C4       -4.9188    -0.9025    -8.2142  C.3     1  <O>11       0.0173
   6 N1       -4.9228     0.4047    -8.9169  N.am    1  <O>11      -0.2973
   7 C5       -4.2422     0.7066   -10.0539  C.2     1  <O>11       0.2494
   8 O2       -4.3265     1.8253   -10.5372  O.2     1  <O>11      -0.2699
   9 C6       -3.4111    -0.3035   -10.6948  C.ar    1  <O>11       0.0723
  10 C7       -3.9551    -1.1558   -11.6708  C.ar    1  <O>11      -0.0433
  11 C8       -3.1584    -2.1336   -12.2777  C.ar    1  <O>11      -0.0406
  12 C9       -3.7422    -3.0246   -13.2986  C.3     1  <O>11       0.0171
  13 C10      -4.2960    -4.2369   -12.6399  C.ar    1  <O>11       0.0736
  14 N2       -4.4371    -4.2726   -11.2478  N.ar    1  <O>11      -0.1750
  15 N3       -4.8411    -5.4029   -10.6253  N.ar    1  <O>11      -0.2425
  16 C11      -5.1193    -6.5010   -11.3694  C.ar    1  <O>11       0.2725
  17 O3       -5.4380    -7.6706   -10.6536  O.2     1  <O>11      -0.2658
  18 C12      -5.1030    -6.5185   -12.7702  C.ar    1  <O>11       0.0496
  19 C13      -5.4496    -7.6443   -13.5518  C.ar    1  <O>11      -0.0487
  20 C14      -5.3806    -7.6030   -14.9442  C.ar    1  <O>11      -0.0610
  21 C15      -4.9598    -6.4429   -15.5825  C.ar    1  <O>11      -0.0611
  22 C16      -4.6065    -5.3224   -14.8283  C.ar    1  <O>11      -0.0521
  23 C17      -4.6773    -5.3435   -13.4165  C.ar    1  <O>11       0.0106
  24 C18      -1.8139    -2.2670   -11.9193  C.ar    1  <O>11      -0.0555
  25 C19      -1.2709    -1.4147   -10.9525  C.ar    1  <O>11      -0.0254
  26 C20      -2.0567    -0.4352   -10.3427  C.ar    1  <O>11       0.1355
  27 F1       -1.5223     0.4043    -9.3995  F       1  <O>11      -0.2047
  28 C21      -5.7785     1.4161    -8.2442  C.3     1  <O>11       0.0173
  29 C22      -7.2012     0.9116    -8.0249  C.3     1  <O>11      -0.0107
  30 H1       -9.5600    -2.7016    -7.0183  H       1  <O>11       0.0524
  31 H2       -8.0625    -2.5128    -6.0749  H       1  <O>11       0.0524
  32 H3       -7.9782    -2.8342    -7.8236  H       1  <O>11       0.0524
  33 H4       -6.8590    -0.3159    -6.3000  H       1  <O>11       0.0597
  34 H5       -6.2931    -2.3694    -7.4673  H       1  <O>11       0.0305
  35 H6       -6.7548    -1.6502    -9.0299  H       1  <O>11       0.0305
  36 H7       -4.4690    -0.7744    -7.2295  H       1  <O>11       0.0465
  37 H8       -4.3312    -1.6151    -8.7921  H       1  <O>11       0.0465
  38 H9       -2.9709    -3.3181   -14.0099  H       1  <O>11       0.0377
  39 H10      -4.5413    -2.5006   -13.8248  H       1  <O>11       0.0377
  40 H11      -4.9329    -5.4276    -9.6185  H       1  <O>11       0.1921
  41 H12      -5.3393     1.6590    -7.2774  H       1  <O>11       0.0465
  42 H13      -5.8151     2.3123    -8.8635  H       1  <O>11       0.0465
  43 H14      -7.7417     1.6354    -7.4145  H       1  <O>11       0.0305
  44 H15      -7.6931     0.8124    -8.9925  H       1  <O>11       0.0305
  45 H16      -4.9464    -1.0604   -11.9413  H       1  <O>11       0.0629
  46 H17      -5.7588    -8.5108   -13.0844  H       1  <O>11       0.0625
  47 H18      -5.6417    -8.4328   -15.4995  H       1  <O>11       0.0618
  48 H19      -4.9085    -6.4095   -16.6126  H       1  <O>11       0.0618
  49 H20      -4.2888    -4.4659   -15.3085  H       1  <O>11       0.0624
  50 H21      -1.2264    -2.9890   -12.3648  H       1  <O>11       0.0621
  51 H22      -0.2782    -1.5110   -10.6870  H       1  <O>11       0.0646
@<TRIPOS>BOND
     1     1     2    1
     2     2     3    1
     3     3     4    1
     4     4     5    1
     5     5     6    1
     6     6     7   am
     7     7     8    2
     8     7     9    1
     9     9    10   ar
    10    10    11   ar
    11    11    12    1
    12    12    13    1
    13    13    14   ar
    14    14    15   ar
    15    15    16   ar
    16    16    17    2
    17    16    18   ar
    18    18    19   ar
    19    19    20   ar
    20    20    21   ar
    21    21    22   ar
    22    22    23   ar
    23    13    23   ar
    24    18    23   ar
    25    11    24   ar
    26    24    25   ar
    27    25    26   ar
    28     9    26   ar
    29    26    27    1
    30     6    28    1
    31    28    29    1
    32     3    29    1
    33     1    30    1
    34     1    31    1
    35     1    32    1
    36     3    33    1
    37     4    34    1
    38     4    35    1
    39     5    36    1
    40     5    37    1
    41    12    38    1
    42    12    39    1
    43    15    40    1
    44    28    41    1
    45    28    42    1
    46    29    43    1
    47    29    44    1
    48    10    45    1
    49    19    46    1
    50    20    47    1
    51    21    48    1
    52    22    49    1
    53    24    50    1
    54    25    51    1
@<TRIPOS>MOLECULE
mol21_2_14
 51 54 0 0 0
SMALL
USER_CHARGES
****
VDW energy = 8.80
@<TRIPOS>ATOM
   1 C1       -8.5371    -2.3256    -7.0381  C.3     1  <O>11       0.0368
   2 O1       -8.5511    -0.9311    -7.2951  O.3     1  <O>11      -0.3797
   3 C2       -7.2210    -0.4410    -7.3210  C.3     1  <O>11       0.0612
   4 C3       -6.3322    -1.4457    -8.0456  C.3     1  <O>11      -0.0107
   5 C4       -4.9188    -0.9025    -8.2142  C.3     1  <O>11       0.0173
   6 N1       -4.9228     0.4047    -8.9169  N.am    1  <O>11      -0.2973
   7 C5       -4.2422     0.7066   -10.0539  C.2     1  <O>11       0.2494
   8 O2       -4.3265     1.8253   -10.5372  O.2     1  <O>11      -0.2699
   9 C6       -3.4111    -0.3035   -10.6948  C.ar    1  <O>11       0.0723
  10 C7       -3.9551    -1.1558   -11.6708  C.ar    1  <O>11      -0.0433
  11 C8       -3.1584    -2.1336   -12.2777  C.ar    1  <O>11      -0.0406
  12 C9       -3.7422    -3.0246   -13.2986  C.3     1  <O>11       0.0171
  13 C10      -4.2960    -4.2369   -12.6399  C.ar    1  <O>11       0.0736
  14 N2       -3.4859    -5.3634   -12.4555  N.ar    1  <O>11      -0.1750
  15 N3       -4.0018    -6.5078   -11.9531  N.ar    1  <O>11      -0.2425
  16 C11      -5.3146    -6.5474   -11.6190  C.ar    1  <O>11       0.2725
  17 O3       -5.8095    -7.7957   -11.1961  O.2     1  <O>11      -0.2658
  18 C12      -6.1676    -5.4374   -11.6756  C.ar    1  <O>11       0.0496
  19 C13      -7.5224    -5.4589   -11.2724  C.ar    1  <O>11      -0.0487
  20 C14      -8.3254    -4.3241   -11.3855  C.ar    1  <O>11      -0.0610
  21 C15      -7.7958    -3.1504   -11.9072  C.ar    1  <O>11      -0.0611
  22 C16      -6.4619    -3.1105   -12.3175  C.ar    1  <O>11      -0.0521
  23 C17      -5.6311    -4.2487   -12.2034  C.ar    1  <O>11       0.0106
  24 C18      -1.8139    -2.2670   -11.9193  C.ar    1  <O>11      -0.0555
  25 C19      -1.2709    -1.4147   -10.9525  C.ar    1  <O>11      -0.0254
  26 C20      -2.0567    -0.4352   -10.3427  C.ar    1  <O>11       0.1355
  27 F1       -1.5223     0.4043    -9.3995  F       1  <O>11      -0.2047
  28 C21      -5.7785     1.4161    -8.2442  C.3     1  <O>11       0.0173
  29 C22      -7.2012     0.9116    -8.0249  C.3     1  <O>11      -0.0107
  30 H1       -9.5600    -2.7016    -7.0183  H       1  <O>11       0.0524
  31 H2       -8.0625    -2.5128    -6.0749  H       1  <O>11       0.0524
  32 H3       -7.9782    -2.8342    -7.8236  H       1  <O>11       0.0524
  33 H4       -6.8590    -0.3159    -6.3000  H       1  <O>11       0.0597
  34 H5       -6.2931    -2.3694    -7.4673  H       1  <O>11       0.0305
  35 H6       -6.7548    -1.6502    -9.0299  H       1  <O>11       0.0305
  36 H7       -4.4690    -0.7744    -7.2295  H       1  <O>11       0.0465
  37 H8       -4.3312    -1.6151    -8.7921  H       1  <O>11       0.0465
  38 H9       -2.9709    -3.3181   -14.0099  H       1  <O>11       0.0377
  39 H10      -4.5413    -2.5006   -13.8248  H       1  <O>11       0.0377
  40 H11      -3.4153    -7.3224   -11.8299  H       1  <O>11       0.1921
  41 H12      -5.3393     1.6590    -7.2774  H       1  <O>11       0.0465
  42 H13      -5.8151     2.3123    -8.8635  H       1  <O>11       0.0465
  43 H14      -7.7417     1.6354    -7.4145  H       1  <O>11       0.0305
  44 H15      -7.6931     0.8124    -8.9925  H       1  <O>11       0.0305
  45 H16      -4.9464    -1.0604   -11.9413  H       1  <O>11       0.0629
  46 H17      -7.9238    -6.3284   -10.8881  H       1  <O>11       0.0625
  47 H18      -9.3113    -4.3563   -11.0820  H       1  <O>11       0.0618
  48 H19      -8.3876    -2.3091   -11.9913  H       1  <O>11       0.0618
  49 H20      -6.0766    -2.2372   -12.7100  H       1  <O>11       0.0624
  50 H21      -1.2264    -2.9890   -12.3648  H       1  <O>11       0.0621
  51 H22      -0.2782    -1.5110   -10.6870  H       1  <O>11       0.0646
@<TRIPOS>BOND
     1     1     2    1
     2     2     3    1
     3     3     4    1
     4     4     5    1
     5     5     6    1
     6     6     7   am
     7     7     8    2
     8     7     9    1
     9     9    10   ar
    10    10    11   ar
    11    11    12    1
    12    12    13    1
    13    13    14   ar
    14    14    15   ar
    15    15    16   ar
    16    16    17    2
    17    16    18   ar
    18    18    19   ar
    19    19    20   ar
    20    20    21   ar
    21    21    22   ar
    22    22    23   ar
    23    13    23   ar
    24    18    23   ar
    25    11    24   ar
    26    24    25   ar
    27    25    26   ar
    28     9    26   ar
    29    26    27    1
    30     6    28    1
    31    28    29    1
    32     3    29    1
    33     1    30    1
    34     1    31    1
    35     1    32    1
    36     3    33    1
    37     4    34    1
    38     4    35    1
    39     5    36    1
    40     5    37    1
    41    12    38    1
    42    12    39    1
    43    15    40    1
    44    28    41    1
    45    28    42    1
    46    29    43    1
    47    29    44    1
    48    10    45    1
    49    19    46    1
    50    20    47    1
    51    21    48    1
    52    22    49    1
    53    24    50    1
    54    25    51    1
@<TRIPOS>MOLECULE
mol21_2_15
 51 54 0 0 0
SMALL
USER_CHARGES
****
VDW energy = 13.71
@<TRIPOS>ATOM
   1 C1       -8.5371    -2.3256    -7.0381  C.3     1  <O>11       0.0368
   2 O1       -8.5511    -0.9311    -7.2951  O.3     1  <O>11      -0.3797
   3 C2       -7.2210    -0.4410    -7.3210  C.3     1  <O>11       0.0612
   4 C3       -6.8204    -0.0081    -5.9151  C.3     1  <O>11      -0.0107
   5 C4       -5.3543     0.4034    -5.8673  C.3     1  <O>11       0.0173
   6 N1       -4.4718    -0.6841    -6.3584  N.am    1  <O>11      -0.2973
   7 C5       -3.4374    -1.2464    -5.6794  C.2     1  <O>11       0.2494
   8 O2       -2.7815    -2.1385    -6.1953  O.2     1  <O>11      -0.2699
   9 C6       -3.1103    -0.7839    -4.3375  C.ar    1  <O>11       0.0723
  10 C7       -3.7067    -1.3830    -3.2148  C.ar    1  <O>11      -0.0433
  11 C8       -3.4003    -0.9301    -1.9265  C.ar    1  <O>11      -0.0406
  12 C9       -4.0358    -1.5652    -0.7560  C.3     1  <O>11       0.0171
  13 C10      -5.3035    -0.8578    -0.4359  C.ar    1  <O>11       0.0736
  14 N2       -5.8406     0.0597    -1.3465  N.ar    1  <O>11      -0.1750
  15 N3       -6.9349     0.7868    -1.0271  N.ar    1  <O>11      -0.2425
  16 C11      -7.5137     0.6078     0.1853  C.ar    1  <O>11       0.2725
  17 O3       -8.5872     1.4651     0.4926  O.2     1  <O>11      -0.2658
  18 C12      -7.1019    -0.3601     1.1108  C.ar    1  <O>11       0.0496
  19 C13      -7.7390    -0.5906     2.3515  C.ar    1  <O>11      -0.0487
  20 C14      -7.2568    -1.5502     3.2414  C.ar    1  <O>11      -0.0610
  21 C15      -6.1289    -2.2927     2.9145  C.ar    1  <O>11      -0.0611
  22 C16      -5.4811    -2.0755     1.6970  C.ar    1  <O>11      -0.0521
  23 C17      -5.9600    -1.1123     0.7796  C.ar    1  <O>11       0.0106
  24 C18      -2.4954     0.1201    -1.7471  C.ar    1  <O>11      -0.0555
  25 C19      -1.8971     0.7122    -2.8638  C.ar    1  <O>11      -0.0254
  26 C20      -2.1947     0.2666    -4.1529  C.ar    1  <O>11       0.1355
  27 F1       -1.6031     0.8431    -5.2472  F       1  <O>11      -0.2047
  28 C21      -4.8272    -1.1383    -7.7277  C.3     1  <O>11       0.0173
  29 C22      -6.2954    -1.5368    -7.8386  C.3     1  <O>11      -0.0107
  30 H1       -9.5600    -2.7016    -7.0183  H       1  <O>11       0.0524
  31 H2       -8.0625    -2.5128    -6.0749  H       1  <O>11       0.0524
  32 H3       -7.9782    -2.8342    -7.8236  H       1  <O>11       0.0524
  33 H4       -7.1626     0.4188    -7.9891  H       1  <O>11       0.0597
  34 H5       -7.4387     0.8377    -5.6126  H       1  <O>11       0.0305
  35 H6       -6.9795    -0.8395    -5.2275  H       1  <O>11       0.0305
  36 H7       -5.2133     1.2845    -6.4935  H       1  <O>11       0.0465
  37 H8       -5.0859     0.6420    -4.8386  H       1  <O>11       0.0465
  38 H9       -3.3627    -1.5091     0.0989  H       1  <O>11       0.0377
  39 H10      -4.2507    -2.6107    -0.9813  H       1  <O>11       0.0377
  40 H11      -7.3145     1.4553    -1.6841  H       1  <O>11       0.1921
  41 H12      -4.6298    -0.3275    -8.4278  H       1  <O>11       0.0465
  42 H13      -4.2093    -1.9991    -7.9831  H       1  <O>11       0.0465
  43 H14      -6.5297    -1.7318    -8.8854  H       1  <O>11       0.0305
  44 H15      -6.4601    -2.4421    -7.2544  H       1  <O>11       0.0305
  45 H16      -4.3736    -2.1604    -3.3410  H       1  <O>11       0.0629
  46 H17      -8.5747    -0.0397     2.6029  H       1  <O>11       0.0625
  47 H18      -7.7370    -1.7085     4.1410  H       1  <O>11       0.0618
  48 H19      -5.7704    -3.0038     3.5709  H       1  <O>11       0.0618
  49 H20      -4.6401    -2.6261     1.4632  H       1  <O>11       0.0624
  50 H21      -2.2705     0.4560    -0.7975  H       1  <O>11       0.0621
  51 H22      -1.2281     1.4872    -2.7336  H       1  <O>11       0.0646
@<TRIPOS>BOND
     1     1     2    1
     2     2     3    1
     3     3     4    1
     4     4     5    1
     5     5     6    1
     6     6     7   am
     7     7     8    2
     8     7     9    1
     9     9    10   ar
    10    10    11   ar
    11    11    12    1
    12    12    13    1
    13    13    14   ar
    14    14    15   ar
    15    15    16   ar
    16    16    17    2
    17    16    18   ar
    18    18    19   ar
    19    19    20   ar
    20    20    21   ar
    21    21    22   ar
    22    22    23   ar
    23    13    23   ar
    24    18    23   ar
    25    11    24   ar
    26    24    25   ar
    27    25    26   ar
    28     9    26   ar
    29    26    27    1
    30     6    28    1
    31    28    29    1
    32     3    29    1
    33     1    30    1
    34     1    31    1
    35     1    32    1
    36     3    33    1
    37     4    34    1
    38     4    35    1
    39     5    36    1
    40     5    37    1
    41    12    38    1
    42    12    39    1
    43    15    40    1
    44    28    41    1
    45    28    42    1
    46    29    43    1
    47    29    44    1
    48    10    45    1
    49    19    46    1
    50    20    47    1
    51    21    48    1
    52    22    49    1
    53    24    50    1
    54    25    51    1
@<TRIPOS>MOLECULE
mol21_2_16
 51 54 0 0 0
SMALL
USER_CHARGES
****
VDW energy = 18.65
@<TRIPOS>ATOM
   1 C1       -8.5371    -2.3256    -7.0381  C.3     1  <O>11       0.0368
   2 O1       -8.5511    -0.9311    -7.2951  O.3     1  <O>11      -0.3797
   3 C2       -7.2210    -0.4410    -7.3210  C.3     1  <O>11       0.0612
   4 C3       -6.4209    -1.1078    -6.2077  C.3     1  <O>11      -0.0107
   5 C4       -4.9516    -0.7112    -6.2781  C.3     1  <O>11       0.0173
   6 N1       -4.3711    -1.0236    -7.6078  N.am    1  <O>11      -0.2973
   7 C5       -3.2774    -1.7949    -7.8448  C.2     1  <O>11       0.2494
   8 O2       -2.8954    -1.9770    -8.9906  O.2     1  <O>11      -0.2699
   9 C6       -2.5604    -2.4029    -6.7322  C.ar    1  <O>11       0.0723
  10 C7       -2.9198    -3.6799    -6.2686  C.ar    1  <O>11      -0.0433
  11 C8       -2.2375    -4.2582    -5.1920  C.ar    1  <O>11      -0.0406
  12 C9       -2.6268    -5.5983    -4.7125  C.3     1  <O>11       0.0171
  13 C10      -2.4676    -6.5841    -5.8138  C.ar    1  <O>11       0.0736
  14 N2       -1.2502    -7.2545    -5.9806  N.ar    1  <O>11      -0.1750
  15 N3       -1.0552    -8.0755    -7.0372  N.ar    1  <O>11      -0.2425
  16 C11      -2.0602    -8.2503    -7.9295  C.ar    1  <O>11       0.2725
  17 O3       -1.7585    -9.0378    -9.0568  O.2     1  <O>11      -0.2658
  18 C12      -3.3398    -7.6994    -7.7809  C.ar    1  <O>11       0.0496
  19 C13      -4.4085    -7.9268    -8.6778  C.ar    1  <O>11      -0.0487
  20 C14      -5.6500    -7.3203    -8.4873  C.ar    1  <O>11      -0.0610
  21 C15      -5.8473    -6.4723    -7.4045  C.ar    1  <O>11      -0.0611
  22 C16      -4.8024    -6.2292    -6.5110  C.ar    1  <O>11      -0.0521
  23 C17      -3.5398    -6.8411    -6.6841  C.ar    1  <O>11       0.0106
  24 C18      -1.1906    -3.5703    -4.5719  C.ar    1  <O>11      -0.0555
  25 C19      -0.8287    -2.3020    -5.0371  C.ar    1  <O>11      -0.0254
  26 C20      -1.5019    -1.7173    -6.1113  C.ar    1  <O>11       0.1355
  27 F1       -1.1426    -0.4766    -6.5712  F       1  <O>11      -0.2047
  28 C21      -5.1212    -0.3931    -8.7247  C.3     1  <O>11       0.0173
  29 C22      -6.6071    -0.7358    -8.6854  C.3     1  <O>11      -0.0107
  30 H1       -9.5600    -2.7016    -7.0183  H       1  <O>11       0.0524
  31 H2       -8.0625    -2.5128    -6.0749  H       1  <O>11       0.0524
  32 H3       -7.9782    -2.8342    -7.8236  H       1  <O>11       0.0524
  33 H4       -7.2270     0.6374    -7.1592  H       1  <O>11       0.0597
  34 H5       -6.8276    -0.8012    -5.2434  H       1  <O>11       0.0305
  35 H6       -6.5028    -2.1905    -6.3095  H       1  <O>11       0.0305
  36 H7       -4.8649     0.3601    -6.0961  H       1  <O>11       0.0465
  37 H8       -4.3999    -1.2556    -5.5124  H       1  <O>11       0.0465
  38 H9       -3.6667    -5.5810    -4.3880  H       1  <O>11       0.0377
  39 H10      -1.9894    -5.8842    -3.8747  H       1  <O>11       0.0377
  40 H11      -0.1711    -8.5509    -7.1592  H       1  <O>11       0.1921
  41 H12      -5.0084     0.6881    -8.6560  H       1  <O>11       0.0465
  42 H13      -4.7047    -0.7438    -9.6689  H       1  <O>11       0.0465
  43 H14      -7.1252    -0.1448    -9.4410  H       1  <O>11       0.0305
  44 H15      -6.7302    -1.7962    -8.9054  H       1  <O>11       0.0305
  45 H16      -3.6903    -4.1936    -6.7241  H       1  <O>11       0.0629
  46 H17      -4.2679    -8.5519    -9.4867  H       1  <O>11       0.0625
  47 H18      -6.4206    -7.5010    -9.1495  H       1  <O>11       0.0618
  48 H19      -6.7651    -6.0228    -7.2609  H       1  <O>11       0.0618
  49 H20      -4.9540    -5.5934    -5.7124  H       1  <O>11       0.0624
  50 H21      -0.6884    -3.9951    -3.7767  H       1  <O>11       0.0621
  51 H22      -0.0555    -1.7927    -4.5812  H       1  <O>11       0.0646
@<TRIPOS>BOND
     1     1     2    1
     2     2     3    1
     3     3     4    1
     4     4     5    1
     5     5     6    1
     6     6     7   am
     7     7     8    2
     8     7     9    1
     9     9    10   ar
    10    10    11   ar
    11    11    12    1
    12    12    13    1
    13    13    14   ar
    14    14    15   ar
    15    15    16   ar
    16    16    17    2
    17    16    18   ar
    18    18    19   ar
    19    19    20   ar
    20    20    21   ar
    21    21    22   ar
    22    22    23   ar
    23    13    23   ar
    24    18    23   ar
    25    11    24   ar
    26    24    25   ar
    27    25    26   ar
    28     9    26   ar
    29    26    27    1
    30     6    28    1
    31    28    29    1
    32     3    29    1
    33     1    30    1
    34     1    31    1
    35     1    32    1
    36     3    33    1
    37     4    34    1
    38     4    35    1
    39     5    36    1
    40     5    37    1
    41    12    38    1
    42    12    39    1
    43    15    40    1
    44    28    41    1
    45    28    42    1
    46    29    43    1
    47    29    44    1
    48    10    45    1
    49    19    46    1
    50    20    47    1
    51    21    48    1
    52    22    49    1
    53    24    50    1
    54    25    51    1
@<TRIPOS>MOLECULE
mol21_2_17
 51 54 0 0 0
SMALL
USER_CHARGES
****
VDW energy = 20.58
@<TRIPOS>ATOM
   1 C1       -8.5371    -2.3256    -7.0381  C.3     1  <O>11       0.0368
   2 O1       -8.5511    -0.9311    -7.2951  O.3     1  <O>11      -0.3797
   3 C2       -7.2210    -0.4410    -7.3210  C.3     1  <O>11       0.0612
   4 C3       -6.8204    -0.0081    -5.9151  C.3     1  <O>11      -0.0107
   5 C4       -5.3543     0.4034    -5.8673  C.3     1  <O>11       0.0173
   6 N1       -4.4718    -0.6841    -6.3584  N.am    1  <O>11      -0.2973
   7 C5       -3.4374    -1.2464    -5.6794  C.2     1  <O>11       0.2494
   8 O2       -3.1629    -0.8585    -4.5541  O.2     1  <O>11      -0.2699
   9 C6       -2.6573    -2.3124    -6.2933  C.ar    1  <O>11       0.0723
  10 C7       -3.0329    -3.6558    -6.1227  C.ar    1  <O>11      -0.0433
  11 C8       -2.2758    -4.6798    -6.7036  C.ar    1  <O>11      -0.0406
  12 C9       -2.6786    -6.0866    -6.5142  C.3     1  <O>11       0.0171
  13 C10      -2.6754    -6.4119    -5.0636  C.ar    1  <O>11       0.0736
  14 N2       -2.5708    -5.3853    -4.1178  N.ar    1  <O>11      -0.1750
  15 N3       -2.4623    -5.6709    -2.8006  N.ar    1  <O>11      -0.2425
  16 C11      -2.4672    -6.9673    -2.4053  C.ar    1  <O>11       0.2725
  17 O3       -2.2514    -7.1980    -1.0334  O.2     1  <O>11      -0.2658
  18 C12      -2.6707    -8.0470    -3.2746  C.ar    1  <O>11       0.0496
  19 C13      -2.7356    -9.3965    -2.8589  C.ar    1  <O>11      -0.0487
  20 C14      -2.9089   -10.4271    -3.7827  C.ar    1  <O>11      -0.0610
  21 C15      -3.0145   -10.1328    -5.1364  C.ar    1  <O>11      -0.0611
  22 C16      -2.9459    -8.8068    -5.5681  C.ar    1  <O>11      -0.0521
  23 C17      -2.7781    -7.7489    -4.6454  C.ar    1  <O>11       0.0106
  24 C18      -1.1419    -4.3728    -7.4610  C.ar    1  <O>11      -0.0555
  25 C19      -0.7716    -3.0356    -7.6360  C.ar    1  <O>11      -0.0254
  26 C20      -1.5210    -2.0070    -7.0623  C.ar    1  <O>11       0.1355
  27 F1       -1.1613    -0.6958    -7.2394  F       1  <O>11      -0.2047
  28 C21      -4.8272    -1.1383    -7.7277  C.3     1  <O>11       0.0173
  29 C22      -6.2954    -1.5368    -7.8386  C.3     1  <O>11      -0.0107
  30 H1       -9.5600    -2.7016    -7.0183  H       1  <O>11       0.0524
  31 H2       -8.0625    -2.5128    -6.0749  H       1  <O>11       0.0524
  32 H3       -7.9782    -2.8342    -7.8236  H       1  <O>11       0.0524
  33 H4       -7.1626     0.4188    -7.9891  H       1  <O>11       0.0597
  34 H5       -7.4387     0.8377    -5.6126  H       1  <O>11       0.0305
  35 H6       -6.9795    -0.8395    -5.2275  H       1  <O>11       0.0305
  36 H7       -5.2133     1.2845    -6.4935  H       1  <O>11       0.0465
  37 H8       -5.0859     0.6420    -4.8386  H       1  <O>11       0.0465
  38 H9       -1.9781    -6.7391    -7.0343  H       1  <O>11       0.0377
  39 H10      -3.6814    -6.2353    -6.9171  H       1  <O>11       0.0377
  40 H11      -2.3777    -4.9268    -2.1211  H       1  <O>11       0.1921
  41 H12      -4.6298    -0.3275    -8.4278  H       1  <O>11       0.0465
  42 H13      -4.2093    -1.9991    -7.9831  H       1  <O>11       0.0465
  43 H14      -6.5297    -1.7318    -8.8854  H       1  <O>11       0.0305
  44 H15      -6.4601    -2.4421    -7.2544  H       1  <O>11       0.0305
  45 H16      -3.8705    -3.8883    -5.5666  H       1  <O>11       0.0629
  46 H17      -2.6535    -9.6230    -1.8555  H       1  <O>11       0.0625
  47 H18      -2.9586   -11.4064    -3.4612  H       1  <O>11       0.0618
  48 H19      -3.1434   -10.8933    -5.8220  H       1  <O>11       0.0618
  49 H20      -3.0188    -8.5958    -6.5757  H       1  <O>11       0.0624
  50 H21      -0.5820    -5.1274    -7.8879  H       1  <O>11       0.0621
  51 H22       0.0648    -2.8067    -8.1956  H       1  <O>11       0.0646
@<TRIPOS>BOND
     1     1     2    1
     2     2     3    1
     3     3     4    1
     4     4     5    1
     5     5     6    1
     6     6     7   am
     7     7     8    2
     8     7     9    1
     9     9    10   ar
    10    10    11   ar
    11    11    12    1
    12    12    13    1
    13    13    14   ar
    14    14    15   ar
    15    15    16   ar
    16    16    17    2
    17    16    18   ar
    18    18    19   ar
    19    19    20   ar
    20    20    21   ar
    21    21    22   ar
    22    22    23   ar
    23    13    23   ar
    24    18    23   ar
    25    11    24   ar
    26    24    25   ar
    27    25    26   ar
    28     9    26   ar
    29    26    27    1
    30     6    28    1
    31    28    29    1
    32     3    29    1
    33     1    30    1
    34     1    31    1
    35     1    32    1
    36     3    33    1
    37     4    34    1
    38     4    35    1
    39     5    36    1
    40     5    37    1
    41    12    38    1
    42    12    39    1
    43    15    40    1
    44    28    41    1
    45    28    42    1
    46    29    43    1
    47    29    44    1
    48    10    45    1
    49    19    46    1
    50    20    47    1
    51    21    48    1
    52    22    49    1
    53    24    50    1
    54    25    51    1
@<TRIPOS>MOLECULE
mol21_2_18
 51 54 0 0 0
SMALL
USER_CHARGES
****
VDW energy = 22.30
@<TRIPOS>ATOM
   1 C1       -8.5371    -2.3256    -7.0381  C.3     1  <O>11       0.0368
   2 O1       -8.5511    -0.9311    -7.2951  O.3     1  <O>11      -0.3797
   3 C2       -7.2210    -0.4410    -7.3210  C.3     1  <O>11       0.0612
   4 C3       -6.8204    -0.0081    -5.9151  C.3     1  <O>11      -0.0107
   5 C4       -5.3543     0.4034    -5.8673  C.3     1  <O>11       0.0173
   6 N1       -4.4718    -0.6841    -6.3584  N.am    1  <O>11      -0.2973
   7 C5       -3.4374    -1.2464    -5.6794  C.2     1  <O>11       0.2494
   8 O2       -3.1629    -0.8585    -4.5541  O.2     1  <O>11      -0.2699
   9 C6       -2.6573    -2.3124    -6.2933  C.ar    1  <O>11       0.0723
  10 C7       -1.5212    -2.0083    -7.0625  C.ar    1  <O>11      -0.0433
  11 C8       -0.7792    -3.0329    -7.6614  C.ar    1  <O>11      -0.0406
  12 C9        0.4098    -2.7005    -8.4695  C.3     1  <O>11       0.0171
  13 C10       1.3996    -1.9836    -7.6230  C.ar    1  <O>11       0.0736
  14 N2        2.3699    -2.7061    -6.9190  N.ar    1  <O>11      -0.1750
  15 N3        3.2104    -2.0794    -6.0651  N.ar    1  <O>11      -0.2425
  16 C11       3.1086    -0.7372    -5.9072  C.ar    1  <O>11       0.2725
  17 O3        3.9451    -0.1624    -4.9316  O.2     1  <O>11      -0.2658
  18 C12       2.2368     0.0713    -6.6481  C.ar    1  <O>11       0.0496
  19 C13       2.1686     1.4783    -6.5292  C.ar    1  <O>11      -0.0487
  20 C14       1.2535     2.2206    -7.2755  C.ar    1  <O>11      -0.0610
  21 C15       0.3864     1.5750    -8.1483  C.ar    1  <O>11      -0.0611
  22 C16       0.4331     0.1854    -8.2751  C.ar    1  <O>11      -0.0521
  23 C17       1.3591    -0.5824    -7.5323  C.ar    1  <O>11       0.0106
  24 C18      -1.1614    -4.3671    -7.4956  C.ar    1  <O>11      -0.0555
  25 C19      -2.2884    -4.6702    -6.7250  C.ar    1  <O>11      -0.0254
  26 C20      -3.0342    -3.6557    -6.1221  C.ar    1  <O>11       0.1355
  27 F1       -4.1353    -3.9536    -5.3615  F       1  <O>11      -0.2047
  28 C21      -4.8272    -1.1383    -7.7277  C.3     1  <O>11       0.0173
  29 C22      -6.2954    -1.5368    -7.8386  C.3     1  <O>11      -0.0107
  30 H1       -9.5600    -2.7016    -7.0183  H       1  <O>11       0.0524
  31 H2       -8.0625    -2.5128    -6.0749  H       1  <O>11       0.0524
  32 H3       -7.9782    -2.8342    -7.8236  H       1  <O>11       0.0524
  33 H4       -7.1626     0.4188    -7.9891  H       1  <O>11       0.0597
  34 H5       -7.4387     0.8377    -5.6126  H       1  <O>11       0.0305
  35 H6       -6.9795    -0.8395    -5.2275  H       1  <O>11       0.0305
  36 H7       -5.2133     1.2845    -6.4935  H       1  <O>11       0.0465
  37 H8       -5.0859     0.6420    -4.8386  H       1  <O>11       0.0465
  38 H9        0.1167    -2.0639    -9.3037  H       1  <O>11       0.0377
  39 H10       0.8576    -3.6184    -8.8527  H       1  <O>11       0.0377
  40 H11       3.9041    -2.6062    -5.5513  H       1  <O>11       0.1921
  41 H12      -4.6298    -0.3275    -8.4278  H       1  <O>11       0.0465
  42 H13      -4.2093    -1.9991    -7.9831  H       1  <O>11       0.0465
  43 H14      -6.5297    -1.7318    -8.8854  H       1  <O>11       0.0305
  44 H15      -6.4601    -2.4421    -7.2544  H       1  <O>11       0.0305
  45 H16      -1.2327    -1.0252    -7.1864  H       1  <O>11       0.0629
  46 H17       2.8065     1.9642    -5.8797  H       1  <O>11       0.0625
  47 H18       1.2205     3.2476    -7.1795  H       1  <O>11       0.0618
  48 H19      -0.2912     2.1219    -8.7021  H       1  <O>11       0.0618
  49 H20      -0.2180    -0.2884    -8.9205  H       1  <O>11       0.0624
  50 H21      -0.6160    -5.1230    -7.9386  H       1  <O>11       0.0621
  51 H22      -2.5719    -5.6547    -6.6007  H       1  <O>11       0.0646
@<TRIPOS>BOND
     1     1     2    1
     2     2     3    1
     3     3     4    1
     4     4     5    1
     5     5     6    1
     6     6     7   am
     7     7     8    2
     8     7     9    1
     9     9    10   ar
    10    10    11   ar
    11    11    12    1
    12    12    13    1
    13    13    14   ar
    14    14    15   ar
    15    15    16   ar
    16    16    17    2
    17    16    18   ar
    18    18    19   ar
    19    19    20   ar
    20    20    21   ar
    21    21    22   ar
    22    22    23   ar
    23    13    23   ar
    24    18    23   ar
    25    11    24   ar
    26    24    25   ar
    27    25    26   ar
    28     9    26   ar
    29    26    27    1
    30     6    28    1
    31    28    29    1
    32     3    29    1
    33     1    30    1
    34     1    31    1
    35     1    32    1
    36     3    33    1
    37     4    34    1
    38     4    35    1
    39     5    36    1
    40     5    37    1
    41    12    38    1
    42    12    39    1
    43    15    40    1
    44    28    41    1
    45    28    42    1
    46    29    43    1
    47    29    44    1
    48    10    45    1
    49    19    46    1
    50    20    47    1
    51    21    48    1
    52    22    49    1
    53    24    50    1
    54    25    51    1
@<TRIPOS>MOLECULE
mol21_2_19
 51 54 0 0 0
SMALL
USER_CHARGES
****
VDW energy = 26.66
@<TRIPOS>ATOM
   1 C1       -8.5371    -2.3256    -7.0381  C.3     1  <O>11       0.0368
   2 O1       -8.5511    -0.9311    -7.2951  O.3     1  <O>11      -0.3797
   3 C2       -7.2210    -0.4410    -7.3210  C.3     1  <O>11       0.0612
   4 C3       -7.2266     0.9926    -7.8396  C.3     1  <O>11      -0.0107
   5 C4       -5.8347     1.6071    -7.7616  C.3     1  <O>11       0.0173
   6 N1       -5.2938     1.5454    -6.3810  N.am    1  <O>11      -0.2973
   7 C5       -4.8536     2.5989    -5.6437  C.2     1  <O>11       0.2494
   8 O2       -4.4275     2.4176    -4.5134  O.2     1  <O>11      -0.2699
   9 C6       -4.8886     3.9437    -6.2024  C.ar    1  <O>11       0.0723
  10 C7       -3.8302     4.8379    -5.9678  C.ar    1  <O>11      -0.0433
  11 C8       -3.8704     6.1336    -6.4955  C.ar    1  <O>11      -0.0406
  12 C9       -2.7544     7.0642    -6.2392  C.3     1  <O>11       0.0171
  13 C10      -3.0234     7.8291    -4.9931  C.ar    1  <O>11       0.0736
  14 N2       -4.0599     7.4326    -4.1401  N.ar    1  <O>11      -0.1750
  15 N3       -4.3840     8.1762    -3.0583  N.ar    1  <O>11      -0.2425
  16 C11      -3.6834     9.3079    -2.8031  C.ar    1  <O>11       0.2725
  17 O3       -4.1352    10.0862    -1.7205  O.2     1  <O>11      -0.2658
  18 C12      -2.5689     9.7194    -3.5458  C.ar    1  <O>11       0.0496
  19 C13      -1.7991    10.8670    -3.2480  C.ar    1  <O>11      -0.0487
  20 C14      -0.7193    11.2376    -4.0493  C.ar    1  <O>11      -0.0610
  21 C15      -0.3908    10.4760    -5.1639  C.ar    1  <O>11      -0.0611
  22 C16      -1.1429     9.3428    -5.4791  C.ar    1  <O>11      -0.0521
  23 C17      -2.2359     8.9478    -4.6743  C.ar    1  <O>11       0.0106
  24 C18      -4.9631     6.5465    -7.2632  C.ar    1  <O>11      -0.0555
  25 C19      -6.0136     5.6547    -7.5019  C.ar    1  <O>11      -0.0254
  26 C20      -5.9821     4.3597    -6.9814  C.ar    1  <O>11       0.1355
  27 F1       -7.0092     3.4836    -7.2211  F       1  <O>11      -0.2047
  28 C21      -5.2702     0.1640    -5.8343  C.3     1  <O>11       0.0173
  29 C22      -6.6365    -0.5096    -5.9142  C.3     1  <O>11      -0.0107
  30 H1       -9.5600    -2.7016    -7.0183  H       1  <O>11       0.0524
  31 H2       -8.0625    -2.5128    -6.0749  H       1  <O>11       0.0524
  32 H3       -7.9782    -2.8342    -7.8236  H       1  <O>11       0.0524
  33 H4       -6.6181    -1.0589    -7.9872  H       1  <O>11       0.0597
  34 H5       -7.5602     0.9950    -8.8779  H       1  <O>11       0.0305
  35 H6       -7.9128     1.5873    -7.2356  H       1  <O>11       0.0305
  36 H7       -5.1682     1.0600    -8.4284  H       1  <O>11       0.0465
  37 H8       -5.8885     2.6489    -8.0762  H       1  <O>11       0.0465
  38 H9       -2.6571     7.7554    -7.0758  H       1  <O>11       0.0377
  39 H10      -1.8283     6.4991    -6.1251  H       1  <O>11       0.0377
  40 H11      -5.1396     7.8913    -2.4495  H       1  <O>11       0.1921
  41 H12      -4.5540    -0.4261    -6.4047  H       1  <O>11       0.0465
  42 H13      -4.9594     0.2052    -4.7904  H       1  <O>11       0.0465
  43 H14      -6.5310    -1.5558    -5.6261  H       1  <O>11       0.0305
  44 H15      -7.3169    -0.0094    -5.2252  H       1  <O>11       0.0305
  45 H16      -3.0196     4.5379    -5.4038  H       1  <O>11       0.0629
  46 H17      -2.0400    11.4399    -2.4242  H       1  <O>11       0.0625
  47 H18      -0.1653    12.0760    -3.8146  H       1  <O>11       0.0618
  48 H19       0.4081    10.7476    -5.7581  H       1  <O>11       0.0618
  49 H20      -0.8972     8.7851    -6.3121  H       1  <O>11       0.0624
  50 H21      -4.9945     7.5024    -7.6509  H       1  <O>11       0.0621
  51 H22      -6.8209     5.9572    -8.0691  H       1  <O>11       0.0646
@<TRIPOS>BOND
     1     1     2    1
     2     2     3    1
     3     3     4    1
     4     4     5    1
     5     5     6    1
     6     6     7   am
     7     7     8    2
     8     7     9    1
     9     9    10   ar
    10    10    11   ar
    11    11    12    1
    12    12    13    1
    13    13    14   ar
    14    14    15   ar
    15    15    16   ar
    16    16    17    2
    17    16    18   ar
    18    18    19   ar
    19    19    20   ar
    20    20    21   ar
    21    21    22   ar
    22    22    23   ar
    23    13    23   ar
    24    18    23   ar
    25    11    24   ar
    26    24    25   ar
    27    25    26   ar
    28     9    26   ar
    29    26    27    1
    30     6    28    1
    31    28    29    1
    32     3    29    1
    33     1    30    1
    34     1    31    1
    35     1    32    1
    36     3    33    1
    37     4    34    1
    38     4    35    1
    39     5    36    1
    40     5    37    1
    41    12    38    1
    42    12    39    1
    43    15    40    1
    44    28    41    1
    45    28    42    1
    46    29    43    1
    47    29    44    1
    48    10    45    1
    49    19    46    1
    50    20    47    1
    51    21    48    1
    52    22    49    1
    53    24    50    1
    54    25    51    1
@<TRIPOS>MOLECULE
mol21_2_20
 51 54 0 0 0
SMALL
USER_CHARGES
****
VDW energy = 29.15
@<TRIPOS>ATOM
   1 C1       -8.5371    -2.3256    -7.0381  C.3     1  <O>11       0.0368
   2 O1       -8.5511    -0.9311    -7.2951  O.3     1  <O>11      -0.3797
   3 C2       -7.2210    -0.4410    -7.3210  C.3     1  <O>11       0.0612
   4 C3       -7.2266     0.9926    -7.8396  C.3     1  <O>11      -0.0107
   5 C4       -5.8347     1.6071    -7.7616  C.3     1  <O>11       0.0173
   6 N1       -5.2938     1.5454    -6.3810  N.am    1  <O>11      -0.2973
   7 C5       -4.8536     2.5989    -5.6437  C.2     1  <O>11       0.2494
   8 O2       -4.4275     2.4176    -4.5134  O.2     1  <O>11      -0.2699
   9 C6       -4.8886     3.9437    -6.2024  C.ar    1  <O>11       0.0723
  10 C7       -3.8302     4.8379    -5.9678  C.ar    1  <O>11      -0.0433
  11 C8       -3.8704     6.1336    -6.4955  C.ar    1  <O>11      -0.0406
  12 C9       -2.7544     7.0642    -6.2392  C.3     1  <O>11       0.0171
  13 C10      -3.0234     7.8291    -4.9931  C.ar    1  <O>11       0.0736
  14 N2       -2.5840     7.3329    -3.7603  N.ar    1  <O>11      -0.1750
  15 N3       -2.9096     7.9626    -2.6088  N.ar    1  <O>11      -0.2425
  16 C11      -3.6598     9.0899    -2.6642  C.ar    1  <O>11       0.2725
  17 O3       -4.0461     9.6391    -1.4268  O.2     1  <O>11      -0.2658
  18 C12      -4.0522     9.7077    -3.8589  C.ar    1  <O>11       0.0496
  19 C13      -4.7842    10.9154    -3.9222  C.ar    1  <O>11      -0.0487
  20 C14      -5.1705    11.4600    -5.1467  C.ar    1  <O>11      -0.0610
  21 C15      -4.8403    10.8091    -6.3289  C.ar    1  <O>11      -0.0611
  22 C16      -4.1237     9.6116    -6.2876  C.ar    1  <O>11      -0.0521
  23 C17      -3.7173     9.0488    -5.0561  C.ar    1  <O>11       0.0106
  24 C18      -4.9631     6.5465    -7.2632  C.ar    1  <O>11      -0.0555
  25 C19      -6.0136     5.6547    -7.5019  C.ar    1  <O>11      -0.0254
  26 C20      -5.9821     4.3597    -6.9814  C.ar    1  <O>11       0.1355
  27 F1       -7.0092     3.4836    -7.2211  F       1  <O>11      -0.2047
  28 C21      -5.2702     0.1640    -5.8343  C.3     1  <O>11       0.0173
  29 C22      -6.6365    -0.5096    -5.9142  C.3     1  <O>11      -0.0107
  30 H1       -9.5600    -2.7016    -7.0183  H       1  <O>11       0.0524
  31 H2       -8.0625    -2.5128    -6.0749  H       1  <O>11       0.0524
  32 H3       -7.9782    -2.8342    -7.8236  H       1  <O>11       0.0524
  33 H4       -6.6181    -1.0589    -7.9872  H       1  <O>11       0.0597
  34 H5       -7.5602     0.9950    -8.8779  H       1  <O>11       0.0305
  35 H6       -7.9128     1.5873    -7.2356  H       1  <O>11       0.0305
  36 H7       -5.1682     1.0600    -8.4284  H       1  <O>11       0.0465
  37 H8       -5.8885     2.6489    -8.0762  H       1  <O>11       0.0465
  38 H9       -2.6571     7.7554    -7.0758  H       1  <O>11       0.0377
  39 H10      -1.8283     6.4991    -6.1251  H       1  <O>11       0.0377
  40 H11      -2.5980     7.5958    -1.7195  H       1  <O>11       0.1921
  41 H12      -4.5540    -0.4261    -6.4047  H       1  <O>11       0.0465
  42 H13      -4.9594     0.2052    -4.7904  H       1  <O>11       0.0465
  43 H14      -6.5310    -1.5558    -5.6261  H       1  <O>11       0.0305
  44 H15      -7.3169    -0.0094    -5.2252  H       1  <O>11       0.0305
  45 H16      -3.0196     4.5379    -5.4038  H       1  <O>11       0.0629
  46 H17      -5.0368    11.4022    -3.0480  H       1  <O>11       0.0625
  47 H18      -5.7007    12.3450    -5.1746  H       1  <O>11       0.0618
  48 H19      -5.1243    11.2102    -7.2363  H       1  <O>11       0.0618
  49 H20      -3.8871     9.1301    -7.1692  H       1  <O>11       0.0624
  50 H21      -4.9945     7.5024    -7.6509  H       1  <O>11       0.0621
  51 H22      -6.8209     5.9572    -8.0691  H       1  <O>11       0.0646
@<TRIPOS>BOND
     1     1     2    1
     2     2     3    1
     3     3     4    1
     4     4     5    1
     5     5     6    1
     6     6     7   am
     7     7     8    2
     8     7     9    1
     9     9    10   ar
    10    10    11   ar
    11    11    12    1
    12    12    13    1
    13    13    14   ar
    14    14    15   ar
    15    15    16   ar
    16    16    17    2
    17    16    18   ar
    18    18    19   ar
    19    19    20   ar
    20    20    21   ar
    21    21    22   ar
    22    22    23   ar
    23    13    23   ar
    24    18    23   ar
    25    11    24   ar
    26    24    25   ar
    27    25    26   ar
    28     9    26   ar
    29    26    27    1
    30     6    28    1
    31    28    29    1
    32     3    29    1
    33     1    30    1
    34     1    31    1
    35     1    32    1
    36     3    33    1
    37     4    34    1
    38     4    35    1
    39     5    36    1
    40     5    37    1
    41    12    38    1
    42    12    39    1
    43    15    40    1
    44    28    41    1
    45    28    42    1
    46    29    43    1
    47    29    44    1
    48    10    45    1
    49    19    46    1
    50    20    47    1
    51    21    48    1
    52    22    49    1
    53    24    50    1
    54    25    51    1
@<TRIPOS>MOLECULE
mol21_2_21
 51 54 0 0 0
SMALL
USER_CHARGES
****
VDW energy = 30.54
@<TRIPOS>ATOM
   1 C1       -8.5371    -2.3256    -7.0381  C.3     1  <O>11       0.0368
   2 O1       -8.5511    -0.9311    -7.2951  O.3     1  <O>11      -0.3797
   3 C2       -7.2210    -0.4410    -7.3210  C.3     1  <O>11       0.0612
   4 C3       -7.2266     0.9926    -7.8396  C.3     1  <O>11      -0.0107
   5 C4       -5.8347     1.6071    -7.7616  C.3     1  <O>11       0.0173
   6 N1       -5.2938     1.5454    -6.3810  N.am    1  <O>11      -0.2973
   7 C5       -4.8536     2.5989    -5.6437  C.2     1  <O>11       0.2494
   8 O2       -4.8827     3.7267    -6.1122  O.2     1  <O>11      -0.2699
   9 C6       -4.3485     2.3831    -4.2947  C.ar    1  <O>11       0.0723
  10 C7       -4.6538     3.2929    -3.2680  C.ar    1  <O>11      -0.0433
  11 C8       -4.1584     3.0904    -1.9748  C.ar    1  <O>11      -0.0406
  12 C9       -4.4833     4.0548    -0.9063  C.3     1  <O>11       0.0171
  13 C10      -3.4480     5.1211    -0.8697  C.ar    1  <O>11       0.0736
  14 N2       -2.5271     5.2368    -1.9175  N.ar    1  <O>11      -0.1750
  15 N3       -1.5169     6.1331    -1.8507  N.ar    1  <O>11      -0.2425
  16 C11      -1.4132     6.9282    -0.7580  C.ar    1  <O>11       0.2725
  17 O3       -0.2843     7.7678    -0.7070  O.2     1  <O>11      -0.2658
  18 C12      -2.3493     6.9474     0.2842  C.ar    1  <O>11       0.0496
  19 C13      -2.2772     7.8163     1.3969  C.ar    1  <O>11      -0.0487
  20 C14      -3.2271     7.7606     2.4168  C.ar    1  <O>11      -0.0610
  21 C15      -4.2613     6.8354     2.3498  C.ar    1  <O>11      -0.0611
  22 C16      -4.3464     5.9637     1.2625  C.ar    1  <O>11      -0.0521
  23 C17      -3.3969     6.0108     0.2161  C.ar    1  <O>11       0.0106
  24 C18      -3.3585     1.9790    -1.6942  C.ar    1  <O>11      -0.0555
  25 C19      -3.0597     1.0702    -2.7144  C.ar    1  <O>11      -0.0254
  26 C20      -3.5505     1.2622    -4.0071  C.ar    1  <O>11       0.1355
  27 F1       -3.2626     0.3676    -5.0054  F       1  <O>11      -0.2047
  28 C21      -5.2702     0.1640    -5.8343  C.3     1  <O>11       0.0173
  29 C22      -6.6365    -0.5096    -5.9142  C.3     1  <O>11      -0.0107
  30 H1       -9.5600    -2.7016    -7.0183  H       1  <O>11       0.0524
  31 H2       -8.0625    -2.5128    -6.0749  H       1  <O>11       0.0524
  32 H3       -7.9782    -2.8342    -7.8236  H       1  <O>11       0.0524
  33 H4       -6.6181    -1.0589    -7.9872  H       1  <O>11       0.0597
  34 H5       -7.5602     0.9950    -8.8779  H       1  <O>11       0.0305
  35 H6       -7.9128     1.5873    -7.2356  H       1  <O>11       0.0305
  36 H7       -5.1682     1.0600    -8.4284  H       1  <O>11       0.0465
  37 H8       -5.8885     2.6489    -8.0762  H       1  <O>11       0.0465
  38 H9       -4.5084     3.5400     0.0536  H       1  <O>11       0.0377
  39 H10      -5.4582     4.5024    -1.1043  H       1  <O>11       0.0377
  40 H11      -0.8481     6.2073    -2.6056  H       1  <O>11       0.1921
  41 H12      -4.5540    -0.4261    -6.4047  H       1  <O>11       0.0465
  42 H13      -4.9594     0.2052    -4.7904  H       1  <O>11       0.0465
  43 H14      -6.5310    -1.5558    -5.6261  H       1  <O>11       0.0305
  44 H15      -7.3169    -0.0094    -5.2252  H       1  <O>11       0.0305
  45 H16      -5.2459     4.1140    -3.4687  H       1  <O>11       0.0629
  46 H17      -1.5092     8.5031     1.4556  H       1  <O>11       0.0625
  47 H18      -3.1617     8.4057     3.2197  H       1  <O>11       0.0618
  48 H19      -4.9658     6.7926     3.1027  H       1  <O>11       0.0618
  49 H20      -5.1136     5.2746     1.2222  H       1  <O>11       0.0624
  50 H21      -2.9911     1.8302    -0.7414  H       1  <O>11       0.0621
  51 H22      -2.4700     0.2485    -2.5092  H       1  <O>11       0.0646
@<TRIPOS>BOND
     1     1     2    1
     2     2     3    1
     3     3     4    1
     4     4     5    1
     5     5     6    1
     6     6     7   am
     7     7     8    2
     8     7     9    1
     9     9    10   ar
    10    10    11   ar
    11    11    12    1
    12    12    13    1
    13    13    14   ar
    14    14    15   ar
    15    15    16   ar
    16    16    17    2
    17    16    18   ar
    18    18    19   ar
    19    19    20   ar
    20    20    21   ar
    21    21    22   ar
    22    22    23   ar
    23    13    23   ar
    24    18    23   ar
    25    11    24   ar
    26    24    25   ar
    27    25    26   ar
    28     9    26   ar
    29    26    27    1
    30     6    28    1
    31    28    29    1
    32     3    29    1
    33     1    30    1
    34     1    31    1
    35     1    32    1
    36     3    33    1
    37     4    34    1
    38     4    35    1
    39     5    36    1
    40     5    37    1
    41    12    38    1
    42    12    39    1
    43    15    40    1
    44    28    41    1
    45    28    42    1
    46    29    43    1
    47    29    44    1
    48    10    45    1
    49    19    46    1
    50    20    47    1
    51    21    48    1
    52    22    49    1
    53    24    50    1
    54    25    51    1
@<TRIPOS>MOLECULE
mol21_2_22
 51 54 0 0 0
SMALL
USER_CHARGES
****
VDW energy = 31.23
@<TRIPOS>ATOM
   1 C1       -8.5371    -2.3256    -7.0381  C.3     1  <O>11       0.0368
   2 O1       -8.5511    -0.9311    -7.2951  O.3     1  <O>11      -0.3797
   3 C2       -7.2210    -0.4410    -7.3210  C.3     1  <O>11       0.0612
   4 C3       -7.2266     0.9926    -7.8396  C.3     1  <O>11      -0.0107
   5 C4       -5.8347     1.6071    -7.7616  C.3     1  <O>11       0.0173
   6 N1       -5.2938     1.5454    -6.3810  N.am    1  <O>11      -0.2973
   7 C5       -4.8536     2.5989    -5.6437  C.2     1  <O>11       0.2494
   8 O2       -4.4275     2.4176    -4.5134  O.2     1  <O>11      -0.2699
   9 C6       -4.8886     3.9437    -6.2024  C.ar    1  <O>11       0.0723
  10 C7       -3.8302     4.8379    -5.9678  C.ar    1  <O>11      -0.0433
  11 C8       -3.8704     6.1336    -6.4955  C.ar    1  <O>11      -0.0406
  12 C9       -2.7544     7.0642    -6.2392  C.3     1  <O>11       0.0171
  13 C10      -2.6106     7.2739    -4.7744  C.ar    1  <O>11       0.0736
  14 N2       -3.2947     6.4431    -3.8794  N.ar    1  <O>11      -0.1750
  15 N3       -3.2571     6.6845    -2.5495  N.ar    1  <O>11      -0.2425
  16 C11      -2.5376     7.7378    -2.0916  C.ar    1  <O>11       0.2725
  17 O3       -2.6210     7.9917    -0.7093  O.2     1  <O>11      -0.2658
  18 C12      -1.7438     8.5541    -2.9079  C.ar    1  <O>11       0.0496
  19 C13      -0.9453     9.6169    -2.4272  C.ar    1  <O>11      -0.0487
  20 C14      -0.2027    10.4117    -3.3002  C.ar    1  <O>11      -0.0610
  21 C15      -0.2466    10.1663    -4.6670  C.ar    1  <O>11      -0.0611
  22 C16      -1.0345     9.1256    -5.1626  C.ar    1  <O>11      -0.0521
  23 C17      -1.7879     8.3052    -4.2920  C.ar    1  <O>11       0.0106
  24 C18      -4.9631     6.5465    -7.2632  C.ar    1  <O>11      -0.0555
  25 C19      -6.0136     5.6547    -7.5019  C.ar    1  <O>11      -0.0254
  26 C20      -5.9821     4.3597    -6.9814  C.ar    1  <O>11       0.1355
  27 F1       -7.0092     3.4836    -7.2211  F       1  <O>11      -0.2047
  28 C21      -5.2702     0.1640    -5.8343  C.3     1  <O>11       0.0173
  29 C22      -6.6365    -0.5096    -5.9142  C.3     1  <O>11      -0.0107
  30 H1       -9.5600    -2.7016    -7.0183  H       1  <O>11       0.0524
  31 H2       -8.0625    -2.5128    -6.0749  H       1  <O>11       0.0524
  32 H3       -7.9782    -2.8342    -7.8236  H       1  <O>11       0.0524
  33 H4       -6.6181    -1.0589    -7.9872  H       1  <O>11       0.0597
  34 H5       -7.5602     0.9950    -8.8779  H       1  <O>11       0.0305
  35 H6       -7.9128     1.5873    -7.2356  H       1  <O>11       0.0305
  36 H7       -5.1682     1.0600    -8.4284  H       1  <O>11       0.0465
  37 H8       -5.8885     2.6489    -8.0762  H       1  <O>11       0.0465
  38 H9       -2.9571     8.0184    -6.7245  H       1  <O>11       0.0377
  39 H10      -1.8305     6.6429    -6.6377  H       1  <O>11       0.0377
  40 H11      -3.7601     6.0874    -1.9068  H       1  <O>11       0.1921
  41 H12      -4.5540    -0.4261    -6.4047  H       1  <O>11       0.0465
  42 H13      -4.9594     0.2052    -4.7904  H       1  <O>11       0.0465
  43 H14      -6.5310    -1.5558    -5.6261  H       1  <O>11       0.0305
  44 H15      -7.3169    -0.0094    -5.2252  H       1  <O>11       0.0305
  45 H16      -3.0196     4.5379    -5.4038  H       1  <O>11       0.0629
  46 H17      -0.9112     9.8079    -1.4136  H       1  <O>11       0.0625
  47 H18       0.3785    11.1807    -2.9316  H       1  <O>11       0.0618
  48 H19       0.3024    10.7524    -5.3151  H       1  <O>11       0.0618
  49 H20      -1.0675     8.9528    -6.1795  H       1  <O>11       0.0624
  50 H21      -4.9945     7.5024    -7.6509  H       1  <O>11       0.0621
  51 H22      -6.8209     5.9572    -8.0691  H       1  <O>11       0.0646
@<TRIPOS>BOND
     1     1     2    1
     2     2     3    1
     3     3     4    1
     4     4     5    1
     5     5     6    1
     6     6     7   am
     7     7     8    2
     8     7     9    1
     9     9    10   ar
    10    10    11   ar
    11    11    12    1
    12    12    13    1
    13    13    14   ar
    14    14    15   ar
    15    15    16   ar
    16    16    17    2
    17    16    18   ar
    18    18    19   ar
    19    19    20   ar
    20    20    21   ar
    21    21    22   ar
    22    22    23   ar
    23    13    23   ar
    24    18    23   ar
    25    11    24   ar
    26    24    25   ar
    27    25    26   ar
    28     9    26   ar
    29    26    27    1
    30     6    28    1
    31    28    29    1
    32     3    29    1
    33     1    30    1
    34     1    31    1
    35     1    32    1
    36     3    33    1
    37     4    34    1
    38     4    35    1
    39     5    36    1
    40     5    37    1
    41    12    38    1
    42    12    39    1
    43    15    40    1
    44    28    41    1
    45    28    42    1
    46    29    43    1
    47    29    44    1
    48    10    45    1
    49    19    46    1
    50    20    47    1
    51    21    48    1
    52    22    49    1
    53    24    50    1
    54    25    51    1
@<TRIPOS>MOLECULE
mol21_2_23
 51 54 0 0 0
SMALL
USER_CHARGES
****
VDW energy = 31.38
@<TRIPOS>ATOM
   1 C1       -8.5371    -2.3256    -7.0381  C.3     1  <O>11       0.0368
   2 O1       -8.5511    -0.9311    -7.2951  O.3     1  <O>11      -0.3797
   3 C2       -7.2210    -0.4410    -7.3210  C.3     1  <O>11       0.0612
   4 C3       -6.6838    -0.5283    -8.7451  C.3     1  <O>11      -0.0107
   5 C4       -5.3038     0.1088    -8.8484  C.3     1  <O>11       0.0173
   6 N1       -5.3214     1.5151    -8.3742  N.am    1  <O>11      -0.2973
   7 C5       -4.9228     2.6053    -9.0810  C.2     1  <O>11       0.2494
   8 O2       -4.5011     2.4739   -10.2199  O.2     1  <O>11      -0.2699
   9 C6       -5.0001     3.9302    -8.4808  C.ar    1  <O>11       0.0723
  10 C7       -5.4118     5.0340    -9.2470  C.ar    1  <O>11      -0.0433
  11 C8       -5.4746     6.3086    -8.6721  C.ar    1  <O>11      -0.0406
  12 C9       -5.9051     7.4601    -9.4881  C.3     1  <O>11       0.0171
  13 C10      -4.9779     7.6267   -10.6381  C.ar    1  <O>11       0.0736
  14 N2       -4.0584     6.6172   -10.9460  N.ar    1  <O>11      -0.1750
  15 N3       -3.1401     6.7964   -11.9222  N.ar    1  <O>11      -0.2425
  16 C11      -3.1281     7.9649   -12.6085  C.ar    1  <O>11       0.2725
  17 O3       -2.0861     8.1254   -13.5414  O.2     1  <O>11      -0.2658
  18 C12      -4.0756     8.9820   -12.4334  C.ar    1  <O>11       0.0496
  19 C13      -4.1025    10.1772   -13.1879  C.ar    1  <O>11      -0.0487
  20 C14      -5.0562    11.1643   -12.9396  C.ar    1  <O>11      -0.0610
  21 C15      -5.9956    10.9815   -11.9324  C.ar    1  <O>11      -0.0611
  22 C16      -5.9817     9.8111   -11.1714  C.ar    1  <O>11      -0.0521
  23 C17      -5.0273     8.7967   -11.4138  C.ar    1  <O>11       0.0106
  24 C18      -5.1312     6.4921    -7.3296  C.ar    1  <O>11      -0.0555
  25 C19      -4.7274     5.3927    -6.5654  C.ar    1  <O>11      -0.0254
  26 C20      -4.6632     4.1171    -7.1290  C.ar    1  <O>11       0.1355
  27 F1       -4.2734     3.0384    -6.3776  F       1  <O>11      -0.2047
  28 C21      -5.8393     1.6475    -6.9878  C.3     1  <O>11       0.0173
  29 C22      -7.2103     0.9998    -6.8216  C.3     1  <O>11      -0.0107
  30 H1       -9.5600    -2.7016    -7.0183  H       1  <O>11       0.0524
  31 H2       -8.0625    -2.5128    -6.0749  H       1  <O>11       0.0524
  32 H3       -7.9782    -2.8342    -7.8236  H       1  <O>11       0.0524
  33 H4       -6.5960    -1.0490    -6.6662  H       1  <O>11       0.0597
  34 H5       -6.6156    -1.5769    -9.0369  H       1  <O>11       0.0305
  35 H6       -7.3676    -0.0076    -9.4163  H       1  <O>11       0.0305
  36 H7       -4.6036    -0.4623    -8.2386  H       1  <O>11       0.0465
  37 H8       -4.9803     0.0884    -9.8886  H       1  <O>11       0.0465
  38 H9       -5.8935     8.3631    -8.8785  H       1  <O>11       0.0377
  39 H10      -6.9159     7.2853    -9.8594  H       1  <O>11       0.0377
  40 H11      -2.4716     6.0682   -12.1354  H       1  <O>11       0.1921
  41 H12      -5.1392     1.1674    -6.3052  H       1  <O>11       0.0465
  42 H13      -5.9191     2.7066    -6.7429  H       1  <O>11       0.0465
  43 H14      -7.4789     1.0095    -5.7650  H       1  <O>11       0.0305
  44 H15      -7.9427     1.5745    -7.3884  H       1  <O>11       0.0305
  45 H16      -5.6690     4.9042   -10.2380  H       1  <O>11       0.0629
  46 H17      -3.4050    10.3218   -13.9346  H       1  <O>11       0.0625
  47 H18      -5.0640    12.0288   -13.5031  H       1  <O>11       0.0618
  48 H19      -6.7027    11.7099   -11.7472  H       1  <O>11       0.0618
  49 H20      -6.6785     9.6846   -10.4207  H       1  <O>11       0.0624
  50 H21      -5.1752     7.4320    -6.9056  H       1  <O>11       0.0621
  51 H22      -4.4742     5.5258    -5.5738  H       1  <O>11       0.0646
@<TRIPOS>BOND
     1     1     2    1
     2     2     3    1
     3     3     4    1
     4     4     5    1
     5     5     6    1
     6     6     7   am
     7     7     8    2
     8     7     9    1
     9     9    10   ar
    10    10    11   ar
    11    11    12    1
    12    12    13    1
    13    13    14   ar
    14    14    15   ar
    15    15    16   ar
    16    16    17    2
    17    16    18   ar
    18    18    19   ar
    19    19    20   ar
    20    20    21   ar
    21    21    22   ar
    22    22    23   ar
    23    13    23   ar
    24    18    23   ar
    25    11    24   ar
    26    24    25   ar
    27    25    26   ar
    28     9    26   ar
    29    26    27    1
    30     6    28    1
    31    28    29    1
    32     3    29    1
    33     1    30    1
    34     1    31    1
    35     1    32    1
    36     3    33    1
    37     4    34    1
    38     4    35    1
    39     5    36    1
    40     5    37    1
    41    12    38    1
    42    12    39    1
    43    15    40    1
    44    28    41    1
    45    28    42    1
    46    29    43    1
    47    29    44    1
    48    10    45    1
    49    19    46    1
    50    20    47    1
    51    21    48    1
    52    22    49    1
    53    24    50    1
    54    25    51    1
@<TRIPOS>MOLECULE
mol21_2_24
 51 54 0 0 0
SMALL
USER_CHARGES
****
VDW energy = 32.94
@<TRIPOS>ATOM
   1 C1       -8.5371    -2.3256    -7.0381  C.3     1  <O>11       0.0368
   2 O1       -8.5511    -0.9311    -7.2951  O.3     1  <O>11      -0.3797
   3 C2       -7.2210    -0.4410    -7.3210  C.3     1  <O>11       0.0612
   4 C3       -7.2266     0.9926    -7.8396  C.3     1  <O>11      -0.0107
   5 C4       -5.8347     1.6071    -7.7616  C.3     1  <O>11       0.0173
   6 N1       -5.2938     1.5454    -6.3810  N.am    1  <O>11      -0.2973
   7 C5       -4.8536     2.5989    -5.6437  C.2     1  <O>11       0.2494
   8 O2       -4.8827     3.7267    -6.1122  O.2     1  <O>11      -0.2699
   9 C6       -4.3485     2.3831    -4.2947  C.ar    1  <O>11       0.0723
  10 C7       -4.6538     3.2929    -3.2680  C.ar    1  <O>11      -0.0433
  11 C8       -4.1584     3.0904    -1.9748  C.ar    1  <O>11      -0.0406
  12 C9       -4.4833     4.0548    -0.9063  C.3     1  <O>11       0.0171
  13 C10      -3.4480     5.1211    -0.8697  C.ar    1  <O>11       0.0736
  14 N2       -3.6095     6.2782    -1.6407  N.ar    1  <O>11      -0.1750
  15 N3       -2.6306     7.2092    -1.6989  N.ar    1  <O>11      -0.2425
  16 C11      -1.4921     7.0128    -0.9904  C.ar    1  <O>11       0.2725
  17 O3       -0.4754     7.9693    -1.1728  O.2     1  <O>11      -0.2658
  18 C12      -1.2934     5.9360    -0.1163  C.ar    1  <O>11       0.0496
  19 C13      -0.1318     5.7583     0.6694  C.ar    1  <O>11      -0.0487
  20 C14       0.0149     4.6446     1.4963  C.ar    1  <O>11      -0.0610
  21 C15      -0.9890     3.6858     1.5507  C.ar    1  <O>11      -0.0611
  22 C16      -2.1412     3.8393     0.7772  C.ar    1  <O>11      -0.0521
  23 C17      -2.3103     4.9653    -0.0607  C.ar    1  <O>11       0.0106
  24 C18      -3.3585     1.9790    -1.6942  C.ar    1  <O>11      -0.0555
  25 C19      -3.0597     1.0702    -2.7144  C.ar    1  <O>11      -0.0254
  26 C20      -3.5505     1.2622    -4.0071  C.ar    1  <O>11       0.1355
  27 F1       -3.2626     0.3676    -5.0054  F       1  <O>11      -0.2047
  28 C21      -5.2702     0.1640    -5.8343  C.3     1  <O>11       0.0173
  29 C22      -6.6365    -0.5096    -5.9142  C.3     1  <O>11      -0.0107
  30 H1       -9.5600    -2.7016    -7.0183  H       1  <O>11       0.0524
  31 H2       -8.0625    -2.5128    -6.0749  H       1  <O>11       0.0524
  32 H3       -7.9782    -2.8342    -7.8236  H       1  <O>11       0.0524
  33 H4       -6.6181    -1.0589    -7.9872  H       1  <O>11       0.0597
  34 H5       -7.5602     0.9950    -8.8779  H       1  <O>11       0.0305
  35 H6       -7.9128     1.5873    -7.2356  H       1  <O>11       0.0305
  36 H7       -5.1682     1.0600    -8.4284  H       1  <O>11       0.0465
  37 H8       -5.8885     2.6489    -8.0762  H       1  <O>11       0.0465
  38 H9       -4.5084     3.5400     0.0536  H       1  <O>11       0.0377
  39 H10      -5.4582     4.5024    -1.1043  H       1  <O>11       0.0377
  40 H11      -2.7473     8.0394    -2.2643  H       1  <O>11       0.1921
  41 H12      -4.5540    -0.4261    -6.4047  H       1  <O>11       0.0465
  42 H13      -4.9594     0.2052    -4.7904  H       1  <O>11       0.0465
  43 H14      -6.5310    -1.5558    -5.6261  H       1  <O>11       0.0305
  44 H15      -7.3169    -0.0094    -5.2252  H       1  <O>11       0.0305
  45 H16      -5.2459     4.1140    -3.4687  H       1  <O>11       0.0629
  46 H17       0.6200     6.4642     0.6307  H       1  <O>11       0.0625
  47 H18       0.8678     4.5331     2.0666  H       1  <O>11       0.0618
  48 H19      -0.8833     2.8612     2.1622  H       1  <O>11       0.0618
  49 H20      -2.8802     3.1202     0.8178  H       1  <O>11       0.0624
  50 H21      -2.9911     1.8302    -0.7414  H       1  <O>11       0.0621
  51 H22      -2.4700     0.2485    -2.5092  H       1  <O>11       0.0646
@<TRIPOS>BOND
     1     1     2    1
     2     2     3    1
     3     3     4    1
     4     4     5    1
     5     5     6    1
     6     6     7   am
     7     7     8    2
     8     7     9    1
     9     9    10   ar
    10    10    11   ar
    11    11    12    1
    12    12    13    1
    13    13    14   ar
    14    14    15   ar
    15    15    16   ar
    16    16    17    2
    17    16    18   ar
    18    18    19   ar
    19    19    20   ar
    20    20    21   ar
    21    21    22   ar
    22    22    23   ar
    23    13    23   ar
    24    18    23   ar
    25    11    24   ar
    26    24    25   ar
    27    25    26   ar
    28     9    26   ar
    29    26    27    1
    30     6    28    1
    31    28    29    1
    32     3    29    1
    33     1    30    1
    34     1    31    1
    35     1    32    1
    36     3    33    1
    37     4    34    1
    38     4    35    1
    39     5    36    1
    40     5    37    1
    41    12    38    1
    42    12    39    1
    43    15    40    1
    44    28    41    1
    45    28    42    1
    46    29    43    1
    47    29    44    1
    48    10    45    1
    49    19    46    1
    50    20    47    1
    51    21    48    1
    52    22    49    1
    53    24    50    1
    54    25    51    1
@<TRIPOS>MOLECULE
mol21_2_25
 51 54 0 0 0
SMALL
USER_CHARGES
****
VDW energy = 33.22
@<TRIPOS>ATOM
   1 C1       -8.5371    -2.3256    -7.0381  C.3     1  <O>11       0.0368
   2 O1       -8.5511    -0.9311    -7.2951  O.3     1  <O>11      -0.3797
   3 C2       -7.2210    -0.4410    -7.3210  C.3     1  <O>11       0.0612
   4 C3       -7.2266     0.9926    -7.8396  C.3     1  <O>11      -0.0107
   5 C4       -5.8347     1.6071    -7.7616  C.3     1  <O>11       0.0173
   6 N1       -5.2938     1.5454    -6.3810  N.am    1  <O>11      -0.2973
   7 C5       -4.8536     2.5989    -5.6437  C.2     1  <O>11       0.2494
   8 O2       -4.8827     3.7267    -6.1122  O.2     1  <O>11      -0.2699
   9 C6       -4.3485     2.3831    -4.2947  C.ar    1  <O>11       0.0723
  10 C7       -4.6538     3.2929    -3.2680  C.ar    1  <O>11      -0.0433
  11 C8       -4.1584     3.0904    -1.9748  C.ar    1  <O>11      -0.0406
  12 C9       -4.4833     4.0548    -0.9063  C.3     1  <O>11       0.0171
  13 C10      -5.7367     3.6362    -0.2254  C.ar    1  <O>11       0.0736
  14 N2       -5.6781     2.7844     0.8838  N.ar    1  <O>11      -0.1750
  15 N3       -6.8115     2.3120     1.4501  N.ar    1  <O>11      -0.2425
  16 C11      -8.0090     2.6835     0.9355  C.ar    1  <O>11       0.2725
  17 O3       -9.1442     2.0789     1.5078  O.2     1  <O>11      -0.2658
  18 C12      -8.1572     3.6105    -0.1045  C.ar    1  <O>11       0.0496
  19 C13      -9.4056     4.0458    -0.6049  C.ar    1  <O>11      -0.0487
  20 C14      -9.4812     4.9483    -1.6656  C.ar    1  <O>11      -0.0610
  21 C15      -8.3160     5.4285    -2.2504  C.ar    1  <O>11      -0.0611
  22 C16      -7.0731     5.0056    -1.7753  C.ar    1  <O>11      -0.0521
  23 C17      -6.9772     4.0972    -0.6964  C.ar    1  <O>11       0.0106
  24 C18      -3.3585     1.9790    -1.6942  C.ar    1  <O>11      -0.0555
  25 C19      -3.0597     1.0702    -2.7144  C.ar    1  <O>11      -0.0254
  26 C20      -3.5505     1.2622    -4.0071  C.ar    1  <O>11       0.1355
  27 F1       -3.2626     0.3676    -5.0054  F       1  <O>11      -0.2047
  28 C21      -5.2702     0.1640    -5.8343  C.3     1  <O>11       0.0173
  29 C22      -6.6365    -0.5096    -5.9142  C.3     1  <O>11      -0.0107
  30 H1       -9.5600    -2.7016    -7.0183  H       1  <O>11       0.0524
  31 H2       -8.0625    -2.5128    -6.0749  H       1  <O>11       0.0524
  32 H3       -7.9782    -2.8342    -7.8236  H       1  <O>11       0.0524
  33 H4       -6.6181    -1.0589    -7.9872  H       1  <O>11       0.0597
  34 H5       -7.5602     0.9950    -8.8779  H       1  <O>11       0.0305
  35 H6       -7.9128     1.5873    -7.2356  H       1  <O>11       0.0305
  36 H7       -5.1682     1.0600    -8.4284  H       1  <O>11       0.0465
  37 H8       -5.8885     2.6489    -8.0762  H       1  <O>11       0.0465
  38 H9       -4.6185     5.0457    -1.3389  H       1  <O>11       0.0377
  39 H10      -3.6686     4.0829    -0.1814  H       1  <O>11       0.0377
  40 H11      -6.7648     1.6895     2.2456  H       1  <O>11       0.1921
  41 H12      -4.5540    -0.4261    -6.4047  H       1  <O>11       0.0465
  42 H13      -4.9594     0.2052    -4.7904  H       1  <O>11       0.0465
  43 H14      -6.5310    -1.5558    -5.6261  H       1  <O>11       0.0305
  44 H15      -7.3169    -0.0094    -5.2252  H       1  <O>11       0.0305
  45 H16      -5.2459     4.1140    -3.4687  H       1  <O>11       0.0629
  46 H17     -10.2753     3.6899    -0.1784  H       1  <O>11       0.0625
  47 H18     -10.4011     5.2589    -2.0154  H       1  <O>11       0.0618
  48 H19      -8.3691     6.0969    -3.0349  H       1  <O>11       0.0618
  49 H20      -6.2116     5.3615    -2.2183  H       1  <O>11       0.0624
  50 H21      -2.9911     1.8302    -0.7414  H       1  <O>11       0.0621
  51 H22      -2.4700     0.2485    -2.5092  H       1  <O>11       0.0646
@<TRIPOS>BOND
     1     1     2    1
     2     2     3    1
     3     3     4    1
     4     4     5    1
     5     5     6    1
     6     6     7   am
     7     7     8    2
     8     7     9    1
     9     9    10   ar
    10    10    11   ar
    11    11    12    1
    12    12    13    1
    13    13    14   ar
    14    14    15   ar
    15    15    16   ar
    16    16    17    2
    17    16    18   ar
    18    18    19   ar
    19    19    20   ar
    20    20    21   ar
    21    21    22   ar
    22    22    23   ar
    23    13    23   ar
    24    18    23   ar
    25    11    24   ar
    26    24    25   ar
    27    25    26   ar
    28     9    26   ar
    29    26    27    1
    30     6    28    1
    31    28    29    1
    32     3    29    1
    33     1    30    1
    34     1    31    1
    35     1    32    1
    36     3    33    1
    37     4    34    1
    38     4    35    1
    39     5    36    1
    40     5    37    1
    41    12    38    1
    42    12    39    1
    43    15    40    1
    44    28    41    1
    45    28    42    1
    46    29    43    1
    47    29    44    1
    48    10    45    1
    49    19    46    1
    50    20    47    1
    51    21    48    1
    52    22    49    1
    53    24    50    1
    54    25    51    1
@<TRIPOS>MOLECULE
mol21_2_26
 51 54 0 0 0
SMALL
USER_CHARGES
****
VDW energy = 33.62
@<TRIPOS>ATOM
   1 C1       -8.5371    -2.3256    -7.0381  C.3     1  <O>11       0.0368
   2 O1       -8.5511    -0.9311    -7.2951  O.3     1  <O>11      -0.3797
   3 C2       -7.2210    -0.4410    -7.3210  C.3     1  <O>11       0.0612
   4 C3       -7.2266     0.9926    -7.8396  C.3     1  <O>11      -0.0107
   5 C4       -5.8347     1.6071    -7.7616  C.3     1  <O>11       0.0173
   6 N1       -5.2938     1.5454    -6.3810  N.am    1  <O>11      -0.2973
   7 C5       -4.8536     2.5989    -5.6437  C.2     1  <O>11       0.2494
   8 O2       -4.4275     2.4176    -4.5134  O.2     1  <O>11      -0.2699
   9 C6       -4.8886     3.9437    -6.2024  C.ar    1  <O>11       0.0723
  10 C7       -3.8302     4.8379    -5.9678  C.ar    1  <O>11      -0.0433
  11 C8       -3.8704     6.1336    -6.4955  C.ar    1  <O>11      -0.0406
  12 C9       -2.7544     7.0642    -6.2392  C.3     1  <O>11       0.0171
  13 C10      -3.0326     8.3659    -6.9013  C.ar    1  <O>11       0.0736
  14 N2       -3.7197     9.3693    -6.2082  N.ar    1  <O>11      -0.1750
  15 N3       -4.0712    10.5180    -6.8289  N.ar    1  <O>11      -0.2425
  16 C11      -3.7391    10.6909    -8.1314  C.ar    1  <O>11       0.2725
  17 O3       -4.2204    11.8637    -8.7437  O.2     1  <O>11      -0.2658
  18 C12      -2.9650     9.7832    -8.8661  C.ar    1  <O>11       0.0496
  19 C13      -2.5662     9.9868   -10.2070  C.ar    1  <O>11      -0.0487
  20 C14      -1.8215     9.0259   -10.8906  C.ar    1  <O>11      -0.0610
  21 C15      -1.4659     7.8434   -10.2536  C.ar    1  <O>11      -0.0611
  22 C16      -1.8558     7.6202    -8.9317  C.ar    1  <O>11      -0.0521
  23 C17      -2.6045     8.5860    -8.2209  C.ar    1  <O>11       0.0106
  24 C18      -4.9631     6.5465    -7.2632  C.ar    1  <O>11      -0.0555
  25 C19      -6.0136     5.6547    -7.5019  C.ar    1  <O>11      -0.0254
  26 C20      -5.9821     4.3597    -6.9814  C.ar    1  <O>11       0.1355
  27 F1       -7.0092     3.4836    -7.2211  F       1  <O>11      -0.2047
  28 C21      -5.2702     0.1640    -5.8343  C.3     1  <O>11       0.0173
  29 C22      -6.6365    -0.5096    -5.9142  C.3     1  <O>11      -0.0107
  30 H1       -9.5600    -2.7016    -7.0183  H       1  <O>11       0.0524
  31 H2       -8.0625    -2.5128    -6.0749  H       1  <O>11       0.0524
  32 H3       -7.9782    -2.8342    -7.8236  H       1  <O>11       0.0524
  33 H4       -6.6181    -1.0589    -7.9872  H       1  <O>11       0.0597
  34 H5       -7.5602     0.9950    -8.8779  H       1  <O>11       0.0305
  35 H6       -7.9128     1.5873    -7.2356  H       1  <O>11       0.0305
  36 H7       -5.1682     1.0600    -8.4284  H       1  <O>11       0.0465
  37 H8       -5.8885     2.6489    -8.0762  H       1  <O>11       0.0465
  38 H9       -1.8313     6.6442    -6.6373  H       1  <O>11       0.0377
  39 H10      -2.6493     7.2190    -5.1645  H       1  <O>11       0.0377
  40 H11      -4.5756    11.2368    -6.3274  H       1  <O>11       0.1921
  41 H12      -4.5540    -0.4261    -6.4047  H       1  <O>11       0.0465
  42 H13      -4.9594     0.2052    -4.7904  H       1  <O>11       0.0465
  43 H14      -6.5310    -1.5558    -5.6261  H       1  <O>11       0.0305
  44 H15      -7.3169    -0.0094    -5.2252  H       1  <O>11       0.0305
  45 H16      -3.0196     4.5379    -5.4038  H       1  <O>11       0.0629
  46 H17      -2.8305    10.8607   -10.6879  H       1  <O>11       0.0625
  47 H18      -1.5350     9.1929   -11.8678  H       1  <O>11       0.0618
  48 H19      -0.9143     7.1311   -10.7569  H       1  <O>11       0.0618
  49 H20      -1.5937     6.7370    -8.4666  H       1  <O>11       0.0624
  50 H21      -4.9945     7.5024    -7.6509  H       1  <O>11       0.0621
  51 H22      -6.8209     5.9572    -8.0691  H       1  <O>11       0.0646
@<TRIPOS>BOND
     1     1     2    1
     2     2     3    1
     3     3     4    1
     4     4     5    1
     5     5     6    1
     6     6     7   am
     7     7     8    2
     8     7     9    1
     9     9    10   ar
    10    10    11   ar
    11    11    12    1
    12    12    13    1
    13    13    14   ar
    14    14    15   ar
    15    15    16   ar
    16    16    17    2
    17    16    18   ar
    18    18    19   ar
    19    19    20   ar
    20    20    21   ar
    21    21    22   ar
    22    22    23   ar
    23    13    23   ar
    24    18    23   ar
    25    11    24   ar
    26    24    25   ar
    27    25    26   ar
    28     9    26   ar
    29    26    27    1
    30     6    28    1
    31    28    29    1
    32     3    29    1
    33     1    30    1
    34     1    31    1
    35     1    32    1
    36     3    33    1
    37     4    34    1
    38     4    35    1
    39     5    36    1
    40     5    37    1
    41    12    38    1
    42    12    39    1
    43    15    40    1
    44    28    41    1
    45    28    42    1
    46    29    43    1
    47    29    44    1
    48    10    45    1
    49    19    46    1
    50    20    47    1
    51    21    48    1
    52    22    49    1
    53    24    50    1
    54    25    51    1
@<TRIPOS>MOLECULE
mol21_2_27
 51 54 0 0 0
SMALL
USER_CHARGES
****
VDW energy = 37.26
@<TRIPOS>ATOM
   1 C1       -8.5371    -2.3256    -7.0381  C.3     1  <O>11       0.0368
   2 O1       -8.5511    -0.9311    -7.2951  O.3     1  <O>11      -0.3797
   3 C2       -7.2210    -0.4410    -7.3210  C.3     1  <O>11       0.0612
   4 C3       -7.2266     0.9926    -7.8396  C.3     1  <O>11      -0.0107
   5 C4       -5.8347     1.6071    -7.7616  C.3     1  <O>11       0.0173
   6 N1       -5.2938     1.5454    -6.3810  N.am    1  <O>11      -0.2973
   7 C5       -4.8536     2.5989    -5.6437  C.2     1  <O>11       0.2494
   8 O2       -4.8827     3.7267    -6.1122  O.2     1  <O>11      -0.2699
   9 C6       -4.3485     2.3831    -4.2947  C.ar    1  <O>11       0.0723
  10 C7       -4.6538     3.2929    -3.2680  C.ar    1  <O>11      -0.0433
  11 C8       -4.1584     3.0904    -1.9748  C.ar    1  <O>11      -0.0406
  12 C9       -4.4833     4.0548    -0.9063  C.3     1  <O>11       0.0171
  13 C10      -5.9575     4.1145    -0.7243  C.ar    1  <O>11       0.0736
  14 N2       -6.5845     3.2539     0.1844  N.ar    1  <O>11      -0.1750
  15 N3       -7.9324     3.2236     0.2864  N.ar    1  <O>11      -0.2425
  16 C11      -8.6708     4.0472    -0.4967  C.ar    1  <O>11       0.2725
  17 O3      -10.0678     3.8952    -0.4125  O.2     1  <O>11      -0.2658
  18 C12      -8.1203     5.0081    -1.3549  C.ar    1  <O>11       0.0496
  19 C13      -8.8861     5.9094    -2.1292  C.ar    1  <O>11      -0.0487
  20 C14      -8.2735     6.8211    -2.9888  C.ar    1  <O>11      -0.0610
  21 C15      -6.8886     6.8474    -3.0970  C.ar    1  <O>11      -0.0611
  22 C16      -6.1145     5.9608    -2.3460  C.ar    1  <O>11      -0.0521
  23 C17      -6.7179     5.0351    -1.4641  C.ar    1  <O>11       0.0106
  24 C18      -3.3585     1.9790    -1.6942  C.ar    1  <O>11      -0.0555
  25 C19      -3.0597     1.0702    -2.7144  C.ar    1  <O>11      -0.0254
  26 C20      -3.5505     1.2622    -4.0071  C.ar    1  <O>11       0.1355
  27 F1       -3.2626     0.3676    -5.0054  F       1  <O>11      -0.2047
  28 C21      -5.2702     0.1640    -5.8343  C.3     1  <O>11       0.0173
  29 C22      -6.6365    -0.5096    -5.9142  C.3     1  <O>11      -0.0107
  30 H1       -9.5600    -2.7016    -7.0183  H       1  <O>11       0.0524
  31 H2       -8.0625    -2.5128    -6.0749  H       1  <O>11       0.0524
  32 H3       -7.9782    -2.8342    -7.8236  H       1  <O>11       0.0524
  33 H4       -6.6181    -1.0589    -7.9872  H       1  <O>11       0.0597
  34 H5       -7.5602     0.9950    -8.8779  H       1  <O>11       0.0305
  35 H6       -7.9128     1.5873    -7.2356  H       1  <O>11       0.0305
  36 H7       -5.1682     1.0600    -8.4284  H       1  <O>11       0.0465
  37 H8       -5.8885     2.6489    -8.0762  H       1  <O>11       0.0465
  38 H9       -4.1110     5.0414    -1.1807  H       1  <O>11       0.0377
  39 H10      -4.0152     3.7362     0.0261  H       1  <O>11       0.0377
  40 H11      -8.3821     2.5939     0.9375  H       1  <O>11       0.1921
  41 H12      -4.5540    -0.4261    -6.4047  H       1  <O>11       0.0465
  42 H13      -4.9594     0.2052    -4.7904  H       1  <O>11       0.0465
  43 H14      -6.5310    -1.5558    -5.6261  H       1  <O>11       0.0305
  44 H15      -7.3169    -0.0094    -5.2252  H       1  <O>11       0.0305
  45 H16      -5.2459     4.1140    -3.4687  H       1  <O>11       0.0629
  46 H17      -9.9155     5.8926    -2.0572  H       1  <O>11       0.0625
  47 H18      -8.8478     7.4750    -3.5433  H       1  <O>11       0.0618
  48 H19      -6.4327     7.5214    -3.7318  H       1  <O>11       0.0618
  49 H20      -5.0866     5.9815    -2.4359  H       1  <O>11       0.0624
  50 H21      -2.9911     1.8302    -0.7414  H       1  <O>11       0.0621
  51 H22      -2.4700     0.2485    -2.5092  H       1  <O>11       0.0646
@<TRIPOS>BOND
     1     1     2    1
     2     2     3    1
     3     3     4    1
     4     4     5    1
     5     5     6    1
     6     6     7   am
     7     7     8    2
     8     7     9    1
     9     9    10   ar
    10    10    11   ar
    11    11    12    1
    12    12    13    1
    13    13    14   ar
    14    14    15   ar
    15    15    16   ar
    16    16    17    2
    17    16    18   ar
    18    18    19   ar
    19    19    20   ar
    20    20    21   ar
    21    21    22   ar
    22    22    23   ar
    23    13    23   ar
    24    18    23   ar
    25    11    24   ar
    26    24    25   ar
    27    25    26   ar
    28     9    26   ar
    29    26    27    1
    30     6    28    1
    31    28    29    1
    32     3    29    1
    33     1    30    1
    34     1    31    1
    35     1    32    1
    36     3    33    1
    37     4    34    1
    38     4    35    1
    39     5    36    1
    40     5    37    1
    41    12    38    1
    42    12    39    1
    43    15    40    1
    44    28    41    1
    45    28    42    1
    46    29    43    1
    47    29    44    1
    48    10    45    1
    49    19    46    1
    50    20    47    1
    51    21    48    1
    52    22    49    1
    53    24    50    1
    54    25    51    1
@<TRIPOS>MOLECULE
mol21_2_28
 51 54 0 0 0
SMALL
USER_CHARGES
****
VDW energy = 37.43
@<TRIPOS>ATOM
   1 C1       -8.5371    -2.3256    -7.0381  C.3     1  <O>11       0.0368
   2 O1       -8.5511    -0.9311    -7.2951  O.3     1  <O>11      -0.3797
   3 C2       -7.2210    -0.4410    -7.3210  C.3     1  <O>11       0.0612
   4 C3       -7.2266     0.9926    -7.8396  C.3     1  <O>11      -0.0107
   5 C4       -5.8347     1.6071    -7.7616  C.3     1  <O>11       0.0173
   6 N1       -5.2938     1.5454    -6.3810  N.am    1  <O>11      -0.2973
   7 C5       -4.8536     2.5989    -5.6437  C.2     1  <O>11       0.2494
   8 O2       -4.8827     3.7267    -6.1122  O.2     1  <O>11      -0.2699
   9 C6       -4.3485     2.3831    -4.2947  C.ar    1  <O>11       0.0723
  10 C7       -4.6538     3.2929    -3.2680  C.ar    1  <O>11      -0.0433
  11 C8       -4.1584     3.0904    -1.9748  C.ar    1  <O>11      -0.0406
  12 C9       -4.4833     4.0548    -0.9063  C.3     1  <O>11       0.0171
  13 C10      -3.8442     3.6210     0.3639  C.ar    1  <O>11       0.0736
  14 N2       -2.5538     4.0603     0.6822  N.ar    1  <O>11      -0.1750
  15 N3       -1.9190     3.5936     1.7811  N.ar    1  <O>11      -0.2425
  16 C11      -2.5538     2.7008     2.5789  C.ar    1  <O>11       0.2725
  17 O3       -1.8012     2.1807     3.6490  O.2     1  <O>11      -0.2658
  18 C12      -3.8795     2.2895     2.3887  C.ar    1  <O>11       0.0496
  19 C13      -4.5651     1.4041     3.2514  C.ar    1  <O>11      -0.0487
  20 C14      -5.8764     1.0102     2.9852  C.ar    1  <O>11      -0.0610
  21 C15      -6.5257     1.4859     1.8527  C.ar    1  <O>11      -0.0611
  22 C16      -5.8636     2.3558     0.9843  C.ar    1  <O>11      -0.0521
  23 C17      -4.5372     2.7716     1.2422  C.ar    1  <O>11       0.0106
  24 C18      -3.3585     1.9790    -1.6942  C.ar    1  <O>11      -0.0555
  25 C19      -3.0597     1.0702    -2.7144  C.ar    1  <O>11      -0.0254
  26 C20      -3.5505     1.2622    -4.0071  C.ar    1  <O>11       0.1355
  27 F1       -3.2626     0.3676    -5.0054  F       1  <O>11      -0.2047
  28 C21      -5.2702     0.1640    -5.8343  C.3     1  <O>11       0.0173
  29 C22      -6.6365    -0.5096    -5.9142  C.3     1  <O>11      -0.0107
  30 H1       -9.5600    -2.7016    -7.0183  H       1  <O>11       0.0524
  31 H2       -8.0625    -2.5128    -6.0749  H       1  <O>11       0.0524
  32 H3       -7.9782    -2.8342    -7.8236  H       1  <O>11       0.0524
  33 H4       -6.6181    -1.0589    -7.9872  H       1  <O>11       0.0597
  34 H5       -7.5602     0.9950    -8.8779  H       1  <O>11       0.0305
  35 H6       -7.9128     1.5873    -7.2356  H       1  <O>11       0.0305
  36 H7       -5.1682     1.0600    -8.4284  H       1  <O>11       0.0465
  37 H8       -5.8885     2.6489    -8.0762  H       1  <O>11       0.0465
  38 H9       -5.5636     4.0997    -0.7725  H       1  <O>11       0.0377
  39 H10      -4.1099     5.0422    -1.1815  H       1  <O>11       0.0377
  40 H11      -0.9832     3.9065     2.0027  H       1  <O>11       0.1921
  41 H12      -4.5540    -0.4261    -6.4047  H       1  <O>11       0.0465
  42 H13      -4.9594     0.2052    -4.7904  H       1  <O>11       0.0465
  43 H14      -6.5310    -1.5558    -5.6261  H       1  <O>11       0.0305
  44 H15      -7.3169    -0.0094    -5.2252  H       1  <O>11       0.0305
  45 H16      -5.2459     4.1140    -3.4687  H       1  <O>11       0.0629
  46 H17      -4.0876     1.0433     4.0921  H       1  <O>11       0.0625
  47 H18      -6.3634     0.3667     3.6283  H       1  <O>11       0.0618
  48 H19      -7.4961     1.1966     1.6537  H       1  <O>11       0.0618
  49 H20      -6.3496     2.7004     0.1416  H       1  <O>11       0.0624
  50 H21      -2.9911     1.8302    -0.7414  H       1  <O>11       0.0621
  51 H22      -2.4700     0.2485    -2.5092  H       1  <O>11       0.0646
@<TRIPOS>BOND
     1     1     2    1
     2     2     3    1
     3     3     4    1
     4     4     5    1
     5     5     6    1
     6     6     7   am
     7     7     8    2
     8     7     9    1
     9     9    10   ar
    10    10    11   ar
    11    11    12    1
    12    12    13    1
    13    13    14   ar
    14    14    15   ar
    15    15    16   ar
    16    16    17    2
    17    16    18   ar
    18    18    19   ar
    19    19    20   ar
    20    20    21   ar
    21    21    22   ar
    22    22    23   ar
    23    13    23   ar
    24    18    23   ar
    25    11    24   ar
    26    24    25   ar
    27    25    26   ar
    28     9    26   ar
    29    26    27    1
    30     6    28    1
    31    28    29    1
    32     3    29    1
    33     1    30    1
    34     1    31    1
    35     1    32    1
    36     3    33    1
    37     4    34    1
    38     4    35    1
    39     5    36    1
    40     5    37    1
    41    12    38    1
    42    12    39    1
    43    15    40    1
    44    28    41    1
    45    28    42    1
    46    29    43    1
    47    29    44    1
    48    10    45    1
    49    19    46    1
    50    20    47    1
    51    21    48    1
    52    22    49    1
    53    24    50    1
    54    25    51    1
@<TRIPOS>MOLECULE
mol21_2_29
 51 54 0 0 0
SMALL
USER_CHARGES
****
VDW energy = 39.36
@<TRIPOS>ATOM
   1 C1       -8.5371    -2.3256    -7.0381  C.3     1  <O>11       0.0368
   2 O1       -8.5511    -0.9311    -7.2951  O.3     1  <O>11      -0.3797
   3 C2       -7.2210    -0.4410    -7.3210  C.3     1  <O>11       0.0612
   4 C3       -6.3322    -1.4457    -8.0456  C.3     1  <O>11      -0.0107
   5 C4       -4.9188    -0.9025    -8.2142  C.3     1  <O>11       0.0173
   6 N1       -4.9228     0.4047    -8.9169  N.am    1  <O>11      -0.2973
   7 C5       -4.2422     0.7066   -10.0539  C.2     1  <O>11       0.2494
   8 O2       -3.5451    -0.1404   -10.5914  O.2     1  <O>11      -0.2699
   9 C6       -4.3453     2.0395   -10.6320  C.ar    1  <O>11       0.0723
  10 C7       -4.4236     2.2052   -12.0253  C.ar    1  <O>11      -0.0433
  11 C8       -4.5111     3.4872   -12.5801  C.ar    1  <O>11      -0.0406
  12 C9       -4.5892     3.6480   -14.0448  C.3     1  <O>11       0.0171
  13 C10      -3.2170     3.7684   -14.6039  C.ar    1  <O>11       0.0736
  14 N2       -2.1080     3.4712   -13.8032  N.ar    1  <O>11      -0.1750
  15 N3       -0.8526     3.6744   -14.2627  N.ar    1  <O>11      -0.2425
  16 C11      -0.6808     4.1605   -15.5161  C.ar    1  <O>11       0.2725
  17 O3        0.6454     4.4419   -15.8956  O.2     1  <O>11      -0.2658
  18 C12      -1.7307     4.3860   -16.4159  C.ar    1  <O>11       0.0496
  19 C13      -1.5520     4.8367   -17.7438  C.ar    1  <O>11      -0.0487
  20 C14      -2.6451     5.0717   -18.5777  C.ar    1  <O>11      -0.0610
  21 C15      -3.9347     4.8681   -18.1026  C.ar    1  <O>11      -0.0611
  22 C16      -4.1327     4.4298   -16.7919  C.ar    1  <O>11      -0.0521
  23 C17      -3.0366     4.1793   -15.9350  C.ar    1  <O>11       0.0106
  24 C18      -4.5247     4.6126   -11.7512  C.ar    1  <O>11      -0.0555
  25 C19      -4.4532     4.4476   -10.3643  C.ar    1  <O>11      -0.0254
  26 C20      -4.3674     3.1731    -9.8011  C.ar    1  <O>11       0.1355
  27 F1       -4.3037     3.0114    -8.4410  F       1  <O>11      -0.2047
  28 C21      -5.7785     1.4161    -8.2442  C.3     1  <O>11       0.0173
  29 C22      -7.2012     0.9116    -8.0249  C.3     1  <O>11      -0.0107
  30 H1       -9.5600    -2.7016    -7.0183  H       1  <O>11       0.0524
  31 H2       -8.0625    -2.5128    -6.0749  H       1  <O>11       0.0524
  32 H3       -7.9782    -2.8342    -7.8236  H       1  <O>11       0.0524
  33 H4       -6.8590    -0.3159    -6.3000  H       1  <O>11       0.0597
  34 H5       -6.2931    -2.3694    -7.4673  H       1  <O>11       0.0305
  35 H6       -6.7548    -1.6502    -9.0299  H       1  <O>11       0.0305
  36 H7       -4.4690    -0.7744    -7.2295  H       1  <O>11       0.0465
  37 H8       -4.3312    -1.6151    -8.7921  H       1  <O>11       0.0465
  38 H9       -5.1583     4.5462   -14.2827  H       1  <O>11       0.0377
  39 H10      -5.0835     2.7786   -14.4804  H       1  <O>11       0.0377
  40 H11      -0.0541     3.4672   -13.6779  H       1  <O>11       0.1921
  41 H12      -5.3393     1.6590    -7.2774  H       1  <O>11       0.0465
  42 H13      -5.8151     2.3123    -8.8635  H       1  <O>11       0.0465
  43 H14      -7.7417     1.6354    -7.4145  H       1  <O>11       0.0305
  44 H15      -7.6931     0.8124    -8.9925  H       1  <O>11       0.0305
  45 H16      -4.4164     1.3779   -12.6422  H       1  <O>11       0.0629
  46 H17      -0.5972     4.9943   -18.1021  H       1  <O>11       0.0625
  47 H18      -2.4961     5.3963   -19.5460  H       1  <O>11       0.0618
  48 H19      -4.7452     5.0406   -18.7178  H       1  <O>11       0.0618
  49 H20      -5.0935     4.2866   -16.4435  H       1  <O>11       0.0624
  50 H21      -4.5871     5.5583   -12.1596  H       1  <O>11       0.0621
  51 H22      -4.4639     5.2771    -9.7505  H       1  <O>11       0.0646
@<TRIPOS>BOND
     1     1     2    1
     2     2     3    1
     3     3     4    1
     4     4     5    1
     5     5     6    1
     6     6     7   am
     7     7     8    2
     8     7     9    1
     9     9    10   ar
    10    10    11   ar
    11    11    12    1
    12    12    13    1
    13    13    14   ar
    14    14    15   ar
    15    15    16   ar
    16    16    17    2
    17    16    18   ar
    18    18    19   ar
    19    19    20   ar
    20    20    21   ar
    21    21    22   ar
    22    22    23   ar
    23    13    23   ar
    24    18    23   ar
    25    11    24   ar
    26    24    25   ar
    27    25    26   ar
    28     9    26   ar
    29    26    27    1
    30     6    28    1
    31    28    29    1
    32     3    29    1
    33     1    30    1
    34     1    31    1
    35     1    32    1
    36     3    33    1
    37     4    34    1
    38     4    35    1
    39     5    36    1
    40     5    37    1
    41    12    38    1
    42    12    39    1
    43    15    40    1
    44    28    41    1
    45    28    42    1
    46    29    43    1
    47    29    44    1
    48    10    45    1
    49    19    46    1
    50    20    47    1
    51    21    48    1
    52    22    49    1
    53    24    50    1
    54    25    51    1
@<TRIPOS>MOLECULE
mol21_2_30
 51 54 0 0 0
SMALL
USER_CHARGES
****
VDW energy = 42.69
@<TRIPOS>ATOM
   1 C1       -8.5371    -2.3256    -7.0381  C.3     1  <O>11       0.0368
   2 O1       -8.5511    -0.9311    -7.2951  O.3     1  <O>11      -0.3797
   3 C2       -7.2210    -0.4410    -7.3210  C.3     1  <O>11       0.0612
   4 C3       -6.3322    -1.4457    -8.0456  C.3     1  <O>11      -0.0107
   5 C4       -4.9188    -0.9025    -8.2142  C.3     1  <O>11       0.0173
   6 N1       -4.9228     0.4047    -8.9169  N.am    1  <O>11      -0.2973
   7 C5       -4.2422     0.7066   -10.0539  C.2     1  <O>11       0.2494
   8 O2       -4.3265     1.8253   -10.5372  O.2     1  <O>11      -0.2699
   9 C6       -3.4111    -0.3035   -10.6948  C.ar    1  <O>11       0.0723
  10 C7       -2.1675     0.0466   -11.2479  C.ar    1  <O>11      -0.0433
  11 C8       -1.3751    -0.9227   -11.8737  C.ar    1  <O>11      -0.0406
  12 C9       -0.0728    -0.5418   -12.4535  C.3     1  <O>11       0.0171
  13 C10       0.5709    -1.7392   -13.0551  C.ar    1  <O>11       0.0736
  14 N2        0.3324    -2.0608   -14.3964  N.ar    1  <O>11      -0.1750
  15 N3        0.8262    -3.2011   -14.9295  N.ar    1  <O>11      -0.2425
  16 C11       1.5664    -4.0260   -14.1495  C.ar    1  <O>11       0.2725
  17 O3        1.9657    -5.2416   -14.7367  O.2     1  <O>11      -0.2658
  18 C12       1.9366    -3.7289   -12.8314  C.ar    1  <O>11       0.0496
  19 C13       2.7576    -4.5583   -12.0337  C.ar    1  <O>11      -0.0487
  20 C14       3.0616    -4.2173   -10.7158  C.ar    1  <O>11      -0.0610
  21 C15       2.5490    -3.0483   -10.1674  C.ar    1  <O>11      -0.0611
  22 C16       1.7305    -2.2189   -10.9364  C.ar    1  <O>11      -0.0521
  23 C17       1.4179    -2.5448   -12.2761  C.ar    1  <O>11       0.0106
  24 C18      -1.8140    -2.2476   -11.9500  C.ar    1  <O>11      -0.0555
  25 C19      -3.0488    -2.5973   -11.3942  C.ar    1  <O>11      -0.0254
  26 C20      -3.8457    -1.6383   -10.7664  C.ar    1  <O>11       0.1355
  27 F1       -5.0533    -1.9829   -10.2160  F       1  <O>11      -0.2047
  28 C21      -5.7785     1.4161    -8.2442  C.3     1  <O>11       0.0173
  29 C22      -7.2012     0.9116    -8.0249  C.3     1  <O>11      -0.0107
  30 H1       -9.5600    -2.7016    -7.0183  H       1  <O>11       0.0524
  31 H2       -8.0625    -2.5128    -6.0749  H       1  <O>11       0.0524
  32 H3       -7.9782    -2.8342    -7.8236  H       1  <O>11       0.0524
  33 H4       -6.8590    -0.3159    -6.3000  H       1  <O>11       0.0597
  34 H5       -6.2931    -2.3694    -7.4673  H       1  <O>11       0.0305
  35 H6       -6.7548    -1.6502    -9.0299  H       1  <O>11       0.0305
  36 H7       -4.4690    -0.7744    -7.2295  H       1  <O>11       0.0465
  37 H8       -4.3312    -1.6151    -8.7921  H       1  <O>11       0.0465
  38 H9        0.5698    -0.1382   -11.6717  H       1  <O>11       0.0377
  39 H10      -0.2252     0.2143   -13.2250  H       1  <O>11       0.0377
  40 H11       0.6439    -3.4345   -15.8964  H       1  <O>11       0.1921
  41 H12      -5.3393     1.6590    -7.2774  H       1  <O>11       0.0465
  42 H13      -5.8151     2.3123    -8.8635  H       1  <O>11       0.0465
  43 H14      -7.7417     1.6354    -7.4145  H       1  <O>11       0.0305
  44 H15      -7.6931     0.8124    -8.9925  H       1  <O>11       0.0305
  45 H16      -1.8371     1.0227   -11.1924  H       1  <O>11       0.0629
  46 H17       3.1383    -5.4304   -12.4329  H       1  <O>11       0.0625
  47 H18       3.6664    -4.8323   -10.1492  H       1  <O>11       0.0618
  48 H19       2.7730    -2.7933    -9.1928  H       1  <O>11       0.0618
  49 H20       1.3480    -1.3552   -10.5208  H       1  <O>11       0.0624
  50 H21      -1.2313    -2.9624   -12.4131  H       1  <O>11       0.0621
  51 H22      -3.3744    -3.5751   -11.4487  H       1  <O>11       0.0646
@<TRIPOS>BOND
     1     1     2    1
     2     2     3    1
     3     3     4    1
     4     4     5    1
     5     5     6    1
     6     6     7   am
     7     7     8    2
     8     7     9    1
     9     9    10   ar
    10    10    11   ar
    11    11    12    1
    12    12    13    1
    13    13    14   ar
    14    14    15   ar
    15    15    16   ar
    16    16    17    2
    17    16    18   ar
    18    18    19   ar
    19    19    20   ar
    20    20    21   ar
    21    21    22   ar
    22    22    23   ar
    23    13    23   ar
    24    18    23   ar
    25    11    24   ar
    26    24    25   ar
    27    25    26   ar
    28     9    26   ar
    29    26    27    1
    30     6    28    1
    31    28    29    1
    32     3    29    1
    33     1    30    1
    34     1    31    1
    35     1    32    1
    36     3    33    1
    37     4    34    1
    38     4    35    1
    39     5    36    1
    40     5    37    1
    41    12    38    1
    42    12    39    1
    43    15    40    1
    44    28    41    1
    45    28    42    1
    46    29    43    1
    47    29    44    1
    48    10    45    1
    49    19    46    1
    50    20    47    1
    51    21    48    1
    52    22    49    1
    53    24    50    1
    54    25    51    1
