@<TRIPOS>MOLECULE
mol28_1_1
 37 39 0 0 0
SMALL
USER_CHARGES
****
VDW energy = -47.54
@<TRIPOS>ATOM
   1 O1        8.7381    -1.4068    -2.6744  O.2     1  <O>11      -0.2751
   2 C1        7.6234    -1.0459    -3.0216  C.2     1  <O>11       0.2232
   3 C2        6.7510    -0.2990    -2.0700  C.3     1  <O>11       0.0688
   4 C3        7.4590    -0.1250    -0.7860  C.ar    1  <O>11       0.0780
   5 N1        8.2092     1.0001    -0.6747  N.ar    1  <O>11      -0.1748
   6 N2        8.9699     1.1805     0.4285  N.ar    1  <O>11      -0.2425
   7 C4        8.9575     0.2366     1.3986  C.ar    1  <O>11       0.2725
   8 O2        9.8445     0.4380     2.4732  O.2     1  <O>11      -0.2658
   9 C5        8.1258    -0.8927     1.3798  C.ar    1  <O>11       0.0496
  10 C6        8.0677    -1.8485     2.4186  C.ar    1  <O>11      -0.0487
  11 C7        7.2409    -2.9685     2.3203  C.ar    1  <O>11      -0.0610
  12 C8        6.4634    -3.1576     1.1837  C.ar    1  <O>11      -0.0611
  13 C9        6.5139    -2.2287     0.1435  C.ar    1  <O>11      -0.0521
  14 C10       7.3393    -1.0836     0.2288  C.ar    1  <O>11       0.0108
  15 N3        7.1750    -1.3270    -4.2840  N.am    1  <O>11      -0.2809
  16 C11       7.9910    -2.0260    -5.1740  C.ar    1  <O>11       0.0991
  17 C12       8.8671    -1.3544    -6.0219  C.ar    1  <O>11      -0.0221
  18 C13       9.6454    -2.1056    -6.9119  C.ar    1  <O>11       0.0727
  19 C14      10.5681    -1.4326    -7.8463  C.3     1  <O>11       0.4188
  20 F1        9.8526    -0.5844    -8.6696  F       1  <O>11      -0.1658
  21 F2       11.2179    -2.3796    -8.6141  F       1  <O>11      -0.1658
  22 F3       11.4974    -0.7042    -7.1312  F       1  <O>11      -0.1658
  23 C15       9.5444    -3.4957    -6.9124  C.ar    1  <O>11       0.0167
  24 N4        8.7112    -4.1454    -6.0848  N.ar    1  <O>11      -0.3270
  25 C16       7.9550    -3.4123    -5.2403  C.ar    1  <O>11       0.2701
  26 O3        7.0899    -4.1330    -4.3948  O.2     1  <O>11      -0.2659
  27 H1        6.5110     0.6790    -2.4880  H       1  <O>11       0.0423
  28 H2        5.8310    -0.8590    -1.9040  H       1  <O>11       0.0423
  29 H3        9.5407     2.0084     0.5251  H       1  <O>11       0.1921
  30 H4        6.2450    -1.0260    -4.5740  H       1  <O>11       0.1550
  31 H5        8.6241    -5.1515    -6.0633  H       1  <O>11       0.1684
  32 H6        8.6457    -1.7163     3.2633  H       1  <O>11       0.0625
  33 H7        7.2067    -3.6549     3.0901  H       1  <O>11       0.0618
  34 H8        5.8496    -3.9840     1.1091  H       1  <O>11       0.0618
  35 H9        5.9402    -2.3797    -0.7009  H       1  <O>11       0.0624
  36 H10       8.9417    -0.3254    -5.9954  H       1  <O>11       0.0644
  37 H11      10.1267    -4.0407    -7.5675  H       1  <O>11       0.0813
@<TRIPOS>BOND
     1     1     2    2
     2     2     3    1
     3     3     4    1
     4     4     5   ar
     5     5     6   ar
     6     6     7   ar
     7     7     8    2
     8     7     9   ar
     9     9    10   ar
    10    10    11   ar
    11    11    12   ar
    12    12    13   ar
    13    13    14   ar
    14     4    14   ar
    15     9    14   ar
    16     2    15   am
    17    15    16    1
    18    16    17   ar
    19    17    18   ar
    20    18    19    1
    21    19    20    1
    22    19    21    1
    23    19    22    1
    24    18    23   ar
    25    23    24   ar
    26    24    25   ar
    27    16    25   ar
    28    25    26    2
    29     3    27    1
    30     3    28    1
    31     6    29    1
    32    15    30    1
    33    24    31    1
    34    10    32    1
    35    11    33    1
    36    12    34    1
    37    13    35    1
    38    17    36    1
    39    23    37    1
@<TRIPOS>MOLECULE
mol28_1_2
 37 39 0 0 0
SMALL
USER_CHARGES
****
VDW energy = -44.34
@<TRIPOS>ATOM
   1 O1        8.7381    -1.4068    -2.6744  O.2     1  <O>11      -0.2751
   2 C1        7.6234    -1.0459    -3.0216  C.2     1  <O>11       0.2232
   3 C2        6.7510    -0.2990    -2.0700  C.3     1  <O>11       0.0688
   4 C3        7.4590    -0.1250    -0.7860  C.ar    1  <O>11       0.0780
   5 N1        7.2738    -1.1113     0.1273  N.ar    1  <O>11      -0.1748
   6 N2        7.8032    -0.9746     1.3639  N.ar    1  <O>11      -0.2425
   7 C4        8.5122     0.1405     1.6571  C.ar    1  <O>11       0.2725
   8 O2        8.9520     0.2652     2.9887  O.2     1  <O>11      -0.2658
   9 C5        8.8181     1.1406     0.7225  C.ar    1  <O>11       0.0496
  10 C6        9.6078     2.2762     1.0104  C.ar    1  <O>11      -0.0487
  11 C7        9.8460     3.2515     0.0410  C.ar    1  <O>11      -0.0610
  12 C8        9.2966     3.1146    -1.2286  C.ar    1  <O>11      -0.0611
  13 C9        8.5069     2.0039    -1.5290  C.ar    1  <O>11      -0.0521
  14 C10       8.2616     1.0015    -0.5623  C.ar    1  <O>11       0.0108
  15 N3        7.1750    -1.3270    -4.2840  N.am    1  <O>11      -0.2809
  16 C11       7.9910    -2.0260    -5.1740  C.ar    1  <O>11       0.0991
  17 C12       8.3793    -1.4610    -6.3855  C.ar    1  <O>11      -0.0221
  18 C13       9.1796    -2.2175    -7.2511  C.ar    1  <O>11       0.0727
  19 C14       9.5925    -1.6673    -8.5565  C.3     1  <O>11       0.4188
  20 F1        8.6525    -1.9973    -9.5139  F       1  <O>11      -0.1658
  21 F2       10.8177    -2.1967    -8.9127  F       1  <O>11      -0.1658
  22 F3        9.6942    -0.2935    -8.4657  F       1  <O>11      -0.1658
  23 C15       9.5854    -3.4966    -6.8742  C.ar    1  <O>11       0.0167
  24 N4        9.2243    -4.0367    -5.6998  N.ar    1  <O>11      -0.3270
  25 C16       8.4415    -3.3055    -4.8781  C.ar    1  <O>11       0.2701
  26 O3        8.0803    -3.9124    -3.6600  O.2     1  <O>11      -0.2659
  27 H1        6.5110     0.6790    -2.4880  H       1  <O>11       0.0423
  28 H2        5.8310    -0.8590    -1.9040  H       1  <O>11       0.0423
  29 H3        7.6690    -1.6952     2.0590  H       1  <O>11       0.1921
  30 H4        6.2450    -1.0260    -4.5740  H       1  <O>11       0.1550
  31 H5        9.5095    -4.9589    -5.4026  H       1  <O>11       0.1684
  32 H6       10.0150     2.3861     1.9523  H       1  <O>11       0.0625
  33 H7       10.4288     4.0728     0.2663  H       1  <O>11       0.0618
  34 H8        9.4726     3.8333    -1.9480  H       1  <O>11       0.0618
  35 H9        8.0956     1.9129    -2.4711  H       1  <O>11       0.0624
  36 H10       8.0840    -0.5056    -6.6403  H       1  <O>11       0.0644
  37 H11      10.1802    -4.0436    -7.5162  H       1  <O>11       0.0813
@<TRIPOS>BOND
     1     1     2    2
     2     2     3    1
     3     3     4    1
     4     4     5   ar
     5     5     6   ar
     6     6     7   ar
     7     7     8    2
     8     7     9   ar
     9     9    10   ar
    10    10    11   ar
    11    11    12   ar
    12    12    13   ar
    13    13    14   ar
    14     4    14   ar
    15     9    14   ar
    16     2    15   am
    17    15    16    1
    18    16    17   ar
    19    17    18   ar
    20    18    19    1
    21    19    20    1
    22    19    21    1
    23    19    22    1
    24    18    23   ar
    25    23    24   ar
    26    24    25   ar
    27    16    25   ar
    28    25    26    2
    29     3    27    1
    30     3    28    1
    31     6    29    1
    32    15    30    1
    33    24    31    1
    34    10    32    1
    35    11    33    1
    36    12    34    1
    37    13    35    1
    38    17    36    1
    39    23    37    1
@<TRIPOS>MOLECULE
mol28_1_3
 37 39 0 0 0
SMALL
USER_CHARGES
****
VDW energy = -44.01
@<TRIPOS>ATOM
   1 O1        8.7381    -1.4068    -2.6744  O.2     1  <O>11      -0.2751
   2 C1        7.6234    -1.0459    -3.0216  C.2     1  <O>11       0.2232
   3 C2        6.7510    -0.2990    -2.0700  C.3     1  <O>11       0.0688
   4 C3        7.4590    -0.1250    -0.7860  C.ar    1  <O>11       0.0780
   5 N1        7.2738    -1.1113     0.1273  N.ar    1  <O>11      -0.1748
   6 N2        7.8032    -0.9746     1.3639  N.ar    1  <O>11      -0.2425
   7 C4        8.5122     0.1405     1.6571  C.ar    1  <O>11       0.2725
   8 O2        8.9520     0.2652     2.9887  O.2     1  <O>11      -0.2658
   9 C5        8.8181     1.1406     0.7225  C.ar    1  <O>11       0.0496
  10 C6        9.6078     2.2762     1.0104  C.ar    1  <O>11      -0.0487
  11 C7        9.8460     3.2515     0.0410  C.ar    1  <O>11      -0.0610
  12 C8        9.2966     3.1146    -1.2286  C.ar    1  <O>11      -0.0611
  13 C9        8.5069     2.0039    -1.5290  C.ar    1  <O>11      -0.0521
  14 C10       8.2616     1.0015    -0.5623  C.ar    1  <O>11       0.0108
  15 N3        7.1750    -1.3270    -4.2840  N.am    1  <O>11      -0.2809
  16 C11       5.9022    -0.9146    -4.6795  C.ar    1  <O>11       0.0991
  17 C12       4.7923    -1.7331    -4.4903  C.ar    1  <O>11      -0.0221
  18 C13       3.5422    -1.2780    -4.9284  C.ar    1  <O>11       0.0727
  19 C14       2.3437    -2.1244    -4.7710  C.3     1  <O>11       0.4188
  20 F1        2.5226    -3.3090    -5.4594  F       1  <O>11      -0.1658
  21 F2        1.2419    -1.4609    -5.2752  F       1  <O>11      -0.1658
  22 F3        2.1441    -2.3956    -3.4323  F       1  <O>11      -0.1658
  23 C15       3.4337    -0.0189    -5.5161  C.ar    1  <O>11       0.0167
  24 N4        4.5006     0.7777    -5.6855  N.ar    1  <O>11      -0.3270
  25 C16       5.7035     0.3248    -5.2727  C.ar    1  <O>11       0.2701
  26 O3        6.7966     1.1889    -5.4757  O.2     1  <O>11      -0.2659
  27 H1        6.5110     0.6790    -2.4880  H       1  <O>11       0.0423
  28 H2        5.8310    -0.8590    -1.9040  H       1  <O>11       0.0423
  29 H3        7.6690    -1.6952     2.0590  H       1  <O>11       0.1921
  30 H4        7.7708    -1.8374    -4.9353  H       1  <O>11       0.1550
  31 H5        4.4464     1.6954    -6.1040  H       1  <O>11       0.1684
  32 H6       10.0150     2.3861     1.9523  H       1  <O>11       0.0625
  33 H7       10.4288     4.0728     0.2663  H       1  <O>11       0.0618
  34 H8        9.4726     3.8333    -1.9480  H       1  <O>11       0.0618
  35 H9        8.0956     1.9129    -2.4711  H       1  <O>11       0.0624
  36 H10       4.8885    -2.6553    -4.0370  H       1  <O>11       0.0644
  37 H11       2.5072     0.3101    -5.8299  H       1  <O>11       0.0813
@<TRIPOS>BOND
     1     1     2    2
     2     2     3    1
     3     3     4    1
     4     4     5   ar
     5     5     6   ar
     6     6     7   ar
     7     7     8    2
     8     7     9   ar
     9     9    10   ar
    10    10    11   ar
    11    11    12   ar
    12    12    13   ar
    13    13    14   ar
    14     4    14   ar
    15     9    14   ar
    16     2    15   am
    17    15    16    1
    18    16    17   ar
    19    17    18   ar
    20    18    19    1
    21    19    20    1
    22    19    21    1
    23    19    22    1
    24    18    23   ar
    25    23    24   ar
    26    24    25   ar
    27    16    25   ar
    28    25    26    2
    29     3    27    1
    30     3    28    1
    31     6    29    1
    32    15    30    1
    33    24    31    1
    34    10    32    1
    35    11    33    1
    36    12    34    1
    37    13    35    1
    38    17    36    1
    39    23    37    1
@<TRIPOS>MOLECULE
mol28_1_4
 37 39 0 0 0
SMALL
USER_CHARGES
****
VDW energy = -43.67
@<TRIPOS>ATOM
   1 O1        8.7381    -1.4068    -2.6744  O.2     1  <O>11      -0.2751
   2 C1        7.6234    -1.0459    -3.0216  C.2     1  <O>11       0.2232
   3 C2        6.7510    -0.2990    -2.0700  C.3     1  <O>11       0.0688
   4 C3        7.4590    -0.1250    -0.7860  C.ar    1  <O>11       0.0780
   5 N1        7.6639     1.1582    -0.3954  N.ar    1  <O>11      -0.1748
   6 N2        8.3957     1.4019     0.7151  N.ar    1  <O>11      -0.2425
   7 C4        8.8992     0.3580     1.4143  C.ar    1  <O>11       0.2725
   8 O2        9.7320     0.6822     2.5022  O.2     1  <O>11      -0.2658
   9 C5        8.6336    -0.9858     1.1124  C.ar    1  <O>11       0.0496
  10 C6        9.1091    -2.0758     1.8752  C.ar    1  <O>11      -0.0487
  11 C7        8.8347    -3.3914     1.4988  C.ar    1  <O>11      -0.0610
  12 C8        8.0878    -3.6426     0.3537  C.ar    1  <O>11      -0.0611
  13 C9        7.6169    -2.5789    -0.4172  C.ar    1  <O>11      -0.0521
  14 C10       7.8777    -1.2393    -0.0470  C.ar    1  <O>11       0.0108
  15 N3        7.1750    -1.3270    -4.2840  N.am    1  <O>11      -0.2809
  16 C11       7.9910    -2.0260    -5.1740  C.ar    1  <O>11       0.0991
  17 C12       7.9534    -3.4159    -5.2407  C.ar    1  <O>11      -0.0221
  18 C13       8.8119    -4.0667    -6.1358  C.ar    1  <O>11       0.0727
  19 C14       8.8233    -5.5399    -6.2202  C.3     1  <O>11       0.4188
  20 F1        9.7498    -6.0454    -5.3284  F       1  <O>11      -0.1658
  21 F2        9.1614    -5.9252    -7.5030  F       1  <O>11      -0.1658
  22 F3        7.5704    -6.0287    -5.9087  F       1  <O>11      -0.1658
  23 C15       9.6588    -3.3157    -6.9490  C.ar    1  <O>11       0.0167
  24 N4        9.6852    -1.9748    -6.8965  N.ar    1  <O>11      -0.3270
  25 C16       8.8643    -1.3569    -6.0209  C.ar    1  <O>11       0.2701
  26 O3        8.9290     0.0494    -5.9934  O.2     1  <O>11      -0.2659
  27 H1        6.5110     0.6790    -2.4880  H       1  <O>11       0.0423
  28 H2        5.8310    -0.8590    -1.9040  H       1  <O>11       0.0423
  29 H3        8.5650     2.3511     1.0166  H       1  <O>11       0.1921
  30 H4        6.2450    -1.0260    -4.5740  H       1  <O>11       0.1550
  31 H5       10.2863    -1.4089    -7.4786  H       1  <O>11       0.1684
  32 H6        9.6679    -1.8963     2.7240  H       1  <O>11       0.0625
  33 H7        9.1858    -4.1762     2.0695  H       1  <O>11       0.0618
  34 H8        7.8818    -4.6144     0.0740  H       1  <O>11       0.0618
  35 H9        7.0699    -2.7729    -1.2706  H       1  <O>11       0.0624
  36 H10       7.3070    -3.9551    -4.6435  H       1  <O>11       0.0644
  37 H11      10.2831    -3.8042    -7.6099  H       1  <O>11       0.0813
@<TRIPOS>BOND
     1     1     2    2
     2     2     3    1
     3     3     4    1
     4     4     5   ar
     5     5     6   ar
     6     6     7   ar
     7     7     8    2
     8     7     9   ar
     9     9    10   ar
    10    10    11   ar
    11    11    12   ar
    12    12    13   ar
    13    13    14   ar
    14     4    14   ar
    15     9    14   ar
    16     2    15   am
    17    15    16    1
    18    16    17   ar
    19    17    18   ar
    20    18    19    1
    21    19    20    1
    22    19    21    1
    23    19    22    1
    24    18    23   ar
    25    23    24   ar
    26    24    25   ar
    27    16    25   ar
    28    25    26    2
    29     3    27    1
    30     3    28    1
    31     6    29    1
    32    15    30    1
    33    24    31    1
    34    10    32    1
    35    11    33    1
    36    12    34    1
    37    13    35    1
    38    17    36    1
    39    23    37    1
@<TRIPOS>MOLECULE
mol28_1_5
 37 39 0 0 0
SMALL
USER_CHARGES
****
VDW energy = -43.53
@<TRIPOS>ATOM
   1 O1        8.7381    -1.4068    -2.6744  O.2     1  <O>11      -0.2751
   2 C1        7.6234    -1.0459    -3.0216  C.2     1  <O>11       0.2232
   3 C2        6.7510    -0.2990    -2.0700  C.3     1  <O>11       0.0688
   4 C3        7.4590    -0.1250    -0.7860  C.ar    1  <O>11       0.0780
   5 N1        7.6639     1.1582    -0.3954  N.ar    1  <O>11      -0.1748
   6 N2        8.3957     1.4019     0.7151  N.ar    1  <O>11      -0.2425
   7 C4        8.8992     0.3580     1.4143  C.ar    1  <O>11       0.2725
   8 O2        9.7320     0.6822     2.5022  O.2     1  <O>11      -0.2658
   9 C5        8.6336    -0.9858     1.1124  C.ar    1  <O>11       0.0496
  10 C6        9.1091    -2.0758     1.8752  C.ar    1  <O>11      -0.0487
  11 C7        8.8347    -3.3914     1.4988  C.ar    1  <O>11      -0.0610
  12 C8        8.0878    -3.6426     0.3537  C.ar    1  <O>11      -0.0611
  13 C9        7.6169    -2.5789    -0.4172  C.ar    1  <O>11      -0.0521
  14 C10       7.8777    -1.2393    -0.0470  C.ar    1  <O>11       0.0108
  15 N3        7.1750    -1.3270    -4.2840  N.am    1  <O>11      -0.2809
  16 C11       7.9910    -2.0260    -5.1740  C.ar    1  <O>11       0.0991
  17 C12       7.9534    -3.4159    -5.2407  C.ar    1  <O>11      -0.0221
  18 C13       8.8119    -4.0667    -6.1358  C.ar    1  <O>11       0.0727
  19 C14       8.8233    -5.5399    -6.2202  C.3     1  <O>11       0.4188
  20 F1        9.7464    -5.9401    -7.1673  F       1  <O>11      -0.1658
  21 F2        7.5683    -5.9903    -6.5815  F       1  <O>11      -0.1658
  22 F3        9.1654    -6.0688    -4.9918  F       1  <O>11      -0.1658
  23 C15       9.6588    -3.3157    -6.9490  C.ar    1  <O>11       0.0167
  24 N4        9.6852    -1.9748    -6.8965  N.ar    1  <O>11      -0.3270
  25 C16       8.8643    -1.3569    -6.0209  C.ar    1  <O>11       0.2701
  26 O3        8.9290     0.0494    -5.9934  O.2     1  <O>11      -0.2659
  27 H1        6.5110     0.6790    -2.4880  H       1  <O>11       0.0423
  28 H2        5.8310    -0.8590    -1.9040  H       1  <O>11       0.0423
  29 H3        8.5650     2.3511     1.0166  H       1  <O>11       0.1921
  30 H4        6.2450    -1.0260    -4.5740  H       1  <O>11       0.1550
  31 H5       10.2863    -1.4089    -7.4786  H       1  <O>11       0.1684
  32 H6        9.6679    -1.8963     2.7240  H       1  <O>11       0.0625
  33 H7        9.1858    -4.1762     2.0695  H       1  <O>11       0.0618
  34 H8        7.8818    -4.6144     0.0740  H       1  <O>11       0.0618
  35 H9        7.0699    -2.7729    -1.2706  H       1  <O>11       0.0624
  36 H10       7.3070    -3.9551    -4.6435  H       1  <O>11       0.0644
  37 H11      10.2831    -3.8042    -7.6099  H       1  <O>11       0.0813
@<TRIPOS>BOND
     1     1     2    2
     2     2     3    1
     3     3     4    1
     4     4     5   ar
     5     5     6   ar
     6     6     7   ar
     7     7     8    2
     8     7     9   ar
     9     9    10   ar
    10    10    11   ar
    11    11    12   ar
    12    12    13   ar
    13    13    14   ar
    14     4    14   ar
    15     9    14   ar
    16     2    15   am
    17    15    16    1
    18    16    17   ar
    19    17    18   ar
    20    18    19    1
    21    19    20    1
    22    19    21    1
    23    19    22    1
    24    18    23   ar
    25    23    24   ar
    26    24    25   ar
    27    16    25   ar
    28    25    26    2
    29     3    27    1
    30     3    28    1
    31     6    29    1
    32    15    30    1
    33    24    31    1
    34    10    32    1
    35    11    33    1
    36    12    34    1
    37    13    35    1
    38    17    36    1
    39    23    37    1
@<TRIPOS>MOLECULE
mol28_1_6
 37 39 0 0 0
SMALL
USER_CHARGES
****
VDW energy = -43.39
@<TRIPOS>ATOM
   1 O1        8.7381    -1.4068    -2.6744  O.2     1  <O>11      -0.2751
   2 C1        7.6234    -1.0459    -3.0216  C.2     1  <O>11       0.2232
   3 C2        6.7510    -0.2990    -2.0700  C.3     1  <O>11       0.0688
   4 C3        7.4590    -0.1250    -0.7860  C.ar    1  <O>11       0.0780
   5 N1        7.6639     1.1582    -0.3954  N.ar    1  <O>11      -0.1748
   6 N2        8.3957     1.4019     0.7151  N.ar    1  <O>11      -0.2425
   7 C4        8.8992     0.3580     1.4143  C.ar    1  <O>11       0.2725
   8 O2        9.7320     0.6822     2.5022  O.2     1  <O>11      -0.2658
   9 C5        8.6336    -0.9858     1.1124  C.ar    1  <O>11       0.0496
  10 C6        9.1091    -2.0758     1.8752  C.ar    1  <O>11      -0.0487
  11 C7        8.8347    -3.3914     1.4988  C.ar    1  <O>11      -0.0610
  12 C8        8.0878    -3.6426     0.3537  C.ar    1  <O>11      -0.0611
  13 C9        7.6169    -2.5789    -0.4172  C.ar    1  <O>11      -0.0521
  14 C10       7.8777    -1.2393    -0.0470  C.ar    1  <O>11       0.0108
  15 N3        7.1750    -1.3270    -4.2840  N.am    1  <O>11      -0.2809
  16 C11       7.9910    -2.0260    -5.1740  C.ar    1  <O>11       0.0991
  17 C12       8.8671    -1.3544    -6.0219  C.ar    1  <O>11      -0.0221
  18 C13       9.6454    -2.1056    -6.9119  C.ar    1  <O>11       0.0727
  19 C14      10.5681    -1.4326    -7.8463  C.3     1  <O>11       0.4188
  20 F1       11.8062    -1.2911    -7.2495  F       1  <O>11      -0.1658
  21 F2       10.0679    -0.1863    -8.1700  F       1  <O>11      -0.1658
  22 F3       10.6942    -2.1895    -8.9940  F       1  <O>11      -0.1658
  23 C15       9.5444    -3.4957    -6.9124  C.ar    1  <O>11       0.0167
  24 N4        8.7112    -4.1454    -6.0848  N.ar    1  <O>11      -0.3270
  25 C16       7.9550    -3.4123    -5.2403  C.ar    1  <O>11       0.2701
  26 O3        7.0899    -4.1330    -4.3948  O.2     1  <O>11      -0.2659
  27 H1        6.5110     0.6790    -2.4880  H       1  <O>11       0.0423
  28 H2        5.8310    -0.8590    -1.9040  H       1  <O>11       0.0423
  29 H3        8.5650     2.3511     1.0166  H       1  <O>11       0.1921
  30 H4        6.2450    -1.0260    -4.5740  H       1  <O>11       0.1550
  31 H5        8.6241    -5.1515    -6.0633  H       1  <O>11       0.1684
  32 H6        9.6679    -1.8963     2.7240  H       1  <O>11       0.0625
  33 H7        9.1858    -4.1762     2.0695  H       1  <O>11       0.0618
  34 H8        7.8818    -4.6144     0.0740  H       1  <O>11       0.0618
  35 H9        7.0699    -2.7729    -1.2706  H       1  <O>11       0.0624
  36 H10       8.9417    -0.3254    -5.9954  H       1  <O>11       0.0644
  37 H11      10.1267    -4.0407    -7.5675  H       1  <O>11       0.0813
@<TRIPOS>BOND
     1     1     2    2
     2     2     3    1
     3     3     4    1
     4     4     5   ar
     5     5     6   ar
     6     6     7   ar
     7     7     8    2
     8     7     9   ar
     9     9    10   ar
    10    10    11   ar
    11    11    12   ar
    12    12    13   ar
    13    13    14   ar
    14     4    14   ar
    15     9    14   ar
    16     2    15   am
    17    15    16    1
    18    16    17   ar
    19    17    18   ar
    20    18    19    1
    21    19    20    1
    22    19    21    1
    23    19    22    1
    24    18    23   ar
    25    23    24   ar
    26    24    25   ar
    27    16    25   ar
    28    25    26    2
    29     3    27    1
    30     3    28    1
    31     6    29    1
    32    15    30    1
    33    24    31    1
    34    10    32    1
    35    11    33    1
    36    12    34    1
    37    13    35    1
    38    17    36    1
    39    23    37    1
@<TRIPOS>MOLECULE
mol28_1_7
 37 39 0 0 0
SMALL
USER_CHARGES
****
VDW energy = -43.23
@<TRIPOS>ATOM
   1 O1        8.7381    -1.4068    -2.6744  O.2     1  <O>11      -0.2751
   2 C1        7.6234    -1.0459    -3.0216  C.2     1  <O>11       0.2232
   3 C2        6.7510    -0.2990    -2.0700  C.3     1  <O>11       0.0688
   4 C3        7.4590    -0.1250    -0.7860  C.ar    1  <O>11       0.0780
   5 N1        7.6639     1.1582    -0.3954  N.ar    1  <O>11      -0.1748
   6 N2        8.3957     1.4019     0.7151  N.ar    1  <O>11      -0.2425
   7 C4        8.8992     0.3580     1.4143  C.ar    1  <O>11       0.2725
   8 O2        9.7320     0.6822     2.5022  O.2     1  <O>11      -0.2658
   9 C5        8.6336    -0.9858     1.1124  C.ar    1  <O>11       0.0496
  10 C6        9.1091    -2.0758     1.8752  C.ar    1  <O>11      -0.0487
  11 C7        8.8347    -3.3914     1.4988  C.ar    1  <O>11      -0.0610
  12 C8        8.0878    -3.6426     0.3537  C.ar    1  <O>11      -0.0611
  13 C9        7.6169    -2.5789    -0.4172  C.ar    1  <O>11      -0.0521
  14 C10       7.8777    -1.2393    -0.0470  C.ar    1  <O>11       0.0108
  15 N3        7.1750    -1.3270    -4.2840  N.am    1  <O>11      -0.2809
  16 C11       7.9910    -2.0260    -5.1740  C.ar    1  <O>11       0.0991
  17 C12       8.8671    -1.3544    -6.0219  C.ar    1  <O>11      -0.0221
  18 C13       9.6454    -2.1056    -6.9119  C.ar    1  <O>11       0.0727
  19 C14      10.5681    -1.4326    -7.8463  C.3     1  <O>11       0.4188
  20 F1       11.2177    -2.3797    -8.6146  F       1  <O>11      -0.1658
  21 F2       11.4980    -0.7038    -7.1306  F       1  <O>11      -0.1658
  22 F3        9.8534    -0.5846    -8.6684  F       1  <O>11      -0.1658
  23 C15       9.5444    -3.4957    -6.9124  C.ar    1  <O>11       0.0167
  24 N4        8.7112    -4.1454    -6.0848  N.ar    1  <O>11      -0.3270
  25 C16       7.9550    -3.4123    -5.2403  C.ar    1  <O>11       0.2701
  26 O3        7.0899    -4.1330    -4.3948  O.2     1  <O>11      -0.2659
  27 H1        6.5110     0.6790    -2.4880  H       1  <O>11       0.0423
  28 H2        5.8310    -0.8590    -1.9040  H       1  <O>11       0.0423
  29 H3        8.5650     2.3511     1.0166  H       1  <O>11       0.1921
  30 H4        6.2450    -1.0260    -4.5740  H       1  <O>11       0.1550
  31 H5        8.6241    -5.1515    -6.0633  H       1  <O>11       0.1684
  32 H6        9.6679    -1.8963     2.7240  H       1  <O>11       0.0625
  33 H7        9.1858    -4.1762     2.0695  H       1  <O>11       0.0618
  34 H8        7.8818    -4.6144     0.0740  H       1  <O>11       0.0618
  35 H9        7.0699    -2.7729    -1.2706  H       1  <O>11       0.0624
  36 H10       8.9417    -0.3254    -5.9954  H       1  <O>11       0.0644
  37 H11      10.1267    -4.0407    -7.5675  H       1  <O>11       0.0813
@<TRIPOS>BOND
     1     1     2    2
     2     2     3    1
     3     3     4    1
     4     4     5   ar
     5     5     6   ar
     6     6     7   ar
     7     7     8    2
     8     7     9   ar
     9     9    10   ar
    10    10    11   ar
    11    11    12   ar
    12    12    13   ar
    13    13    14   ar
    14     4    14   ar
    15     9    14   ar
    16     2    15   am
    17    15    16    1
    18    16    17   ar
    19    17    18   ar
    20    18    19    1
    21    19    20    1
    22    19    21    1
    23    19    22    1
    24    18    23   ar
    25    23    24   ar
    26    24    25   ar
    27    16    25   ar
    28    25    26    2
    29     3    27    1
    30     3    28    1
    31     6    29    1
    32    15    30    1
    33    24    31    1
    34    10    32    1
    35    11    33    1
    36    12    34    1
    37    13    35    1
    38    17    36    1
    39    23    37    1
@<TRIPOS>MOLECULE
mol28_1_8
 37 39 0 0 0
SMALL
USER_CHARGES
****
VDW energy = -43.02
@<TRIPOS>ATOM
   1 O1        8.7381    -1.4068    -2.6744  O.2     1  <O>11      -0.2751
   2 C1        7.6234    -1.0459    -3.0216  C.2     1  <O>11       0.2232
   3 C2        6.7510    -0.2990    -2.0700  C.3     1  <O>11       0.0688
   4 C3        7.4590    -0.1250    -0.7860  C.ar    1  <O>11       0.0780
   5 N1        8.2092     1.0001    -0.6747  N.ar    1  <O>11      -0.1748
   6 N2        8.9699     1.1805     0.4285  N.ar    1  <O>11      -0.2425
   7 C4        8.9575     0.2366     1.3986  C.ar    1  <O>11       0.2725
   8 O2        9.8445     0.4380     2.4732  O.2     1  <O>11      -0.2658
   9 C5        8.1258    -0.8927     1.3798  C.ar    1  <O>11       0.0496
  10 C6        8.0677    -1.8485     2.4186  C.ar    1  <O>11      -0.0487
  11 C7        7.2409    -2.9685     2.3203  C.ar    1  <O>11      -0.0610
  12 C8        6.4634    -3.1576     1.1837  C.ar    1  <O>11      -0.0611
  13 C9        6.5139    -2.2287     0.1435  C.ar    1  <O>11      -0.0521
  14 C10       7.3393    -1.0836     0.2288  C.ar    1  <O>11       0.0108
  15 N3        7.1750    -1.3270    -4.2840  N.am    1  <O>11      -0.2809
  16 C11       7.9910    -2.0260    -5.1740  C.ar    1  <O>11       0.0991
  17 C12       8.3793    -1.4610    -6.3855  C.ar    1  <O>11      -0.0221
  18 C13       9.1796    -2.2175    -7.2511  C.ar    1  <O>11       0.0727
  19 C14       9.5925    -1.6673    -8.5565  C.3     1  <O>11       0.4188
  20 F1        8.6525    -1.9973    -9.5139  F       1  <O>11      -0.1658
  21 F2       10.8177    -2.1967    -8.9127  F       1  <O>11      -0.1658
  22 F3        9.6942    -0.2935    -8.4657  F       1  <O>11      -0.1658
  23 C15       9.5854    -3.4966    -6.8742  C.ar    1  <O>11       0.0167
  24 N4        9.2243    -4.0367    -5.6998  N.ar    1  <O>11      -0.3270
  25 C16       8.4415    -3.3055    -4.8781  C.ar    1  <O>11       0.2701
  26 O3        8.0803    -3.9124    -3.6600  O.2     1  <O>11      -0.2659
  27 H1        6.5110     0.6790    -2.4880  H       1  <O>11       0.0423
  28 H2        5.8310    -0.8590    -1.9040  H       1  <O>11       0.0423
  29 H3        9.5407     2.0084     0.5251  H       1  <O>11       0.1921
  30 H4        6.2450    -1.0260    -4.5740  H       1  <O>11       0.1550
  31 H5        9.5095    -4.9589    -5.4026  H       1  <O>11       0.1684
  32 H6        8.6457    -1.7163     3.2633  H       1  <O>11       0.0625
  33 H7        7.2067    -3.6549     3.0901  H       1  <O>11       0.0618
  34 H8        5.8496    -3.9840     1.1091  H       1  <O>11       0.0618
  35 H9        5.9402    -2.3797    -0.7009  H       1  <O>11       0.0624
  36 H10       8.0840    -0.5056    -6.6403  H       1  <O>11       0.0644
  37 H11      10.1802    -4.0436    -7.5162  H       1  <O>11       0.0813
@<TRIPOS>BOND
     1     1     2    2
     2     2     3    1
     3     3     4    1
     4     4     5   ar
     5     5     6   ar
     6     6     7   ar
     7     7     8    2
     8     7     9   ar
     9     9    10   ar
    10    10    11   ar
    11    11    12   ar
    12    12    13   ar
    13    13    14   ar
    14     4    14   ar
    15     9    14   ar
    16     2    15   am
    17    15    16    1
    18    16    17   ar
    19    17    18   ar
    20    18    19    1
    21    19    20    1
    22    19    21    1
    23    19    22    1
    24    18    23   ar
    25    23    24   ar
    26    24    25   ar
    27    16    25   ar
    28    25    26    2
    29     3    27    1
    30     3    28    1
    31     6    29    1
    32    15    30    1
    33    24    31    1
    34    10    32    1
    35    11    33    1
    36    12    34    1
    37    13    35    1
    38    17    36    1
    39    23    37    1
@<TRIPOS>MOLECULE
mol28_1_9
 37 39 0 0 0
SMALL
USER_CHARGES
****
VDW energy = -42.91
@<TRIPOS>ATOM
   1 O1        8.7381    -1.4068    -2.6744  O.2     1  <O>11      -0.2751
   2 C1        7.6234    -1.0459    -3.0216  C.2     1  <O>11       0.2232
   3 C2        6.7510    -0.2990    -2.0700  C.3     1  <O>11       0.0688
   4 C3        7.4590    -0.1250    -0.7860  C.ar    1  <O>11       0.0780
   5 N1        8.2092     1.0001    -0.6747  N.ar    1  <O>11      -0.1748
   6 N2        8.9699     1.1805     0.4285  N.ar    1  <O>11      -0.2425
   7 C4        8.9575     0.2366     1.3986  C.ar    1  <O>11       0.2725
   8 O2        9.8445     0.4380     2.4732  O.2     1  <O>11      -0.2658
   9 C5        8.1258    -0.8927     1.3798  C.ar    1  <O>11       0.0496
  10 C6        8.0677    -1.8485     2.4186  C.ar    1  <O>11      -0.0487
  11 C7        7.2409    -2.9685     2.3203  C.ar    1  <O>11      -0.0610
  12 C8        6.4634    -3.1576     1.1837  C.ar    1  <O>11      -0.0611
  13 C9        6.5139    -2.2287     0.1435  C.ar    1  <O>11      -0.0521
  14 C10       7.3393    -1.0836     0.2288  C.ar    1  <O>11       0.0108
  15 N3        7.1750    -1.3270    -4.2840  N.am    1  <O>11      -0.2809
  16 C11       7.9910    -2.0260    -5.1740  C.ar    1  <O>11       0.0991
  17 C12       8.3793    -1.4610    -6.3855  C.ar    1  <O>11      -0.0221
  18 C13       9.1796    -2.2175    -7.2511  C.ar    1  <O>11       0.0727
  19 C14       9.5925    -1.6673    -8.5565  C.3     1  <O>11       0.4188
  20 F1       10.3228    -0.5110    -8.3590  F       1  <O>11      -0.1658
  21 F2        8.4714    -1.3804    -9.3109  F       1  <O>11      -0.1658
  22 F3       10.3694    -2.5943    -9.2219  F       1  <O>11      -0.1658
  23 C15       9.5854    -3.4966    -6.8742  C.ar    1  <O>11       0.0167
  24 N4        9.2243    -4.0367    -5.6998  N.ar    1  <O>11      -0.3270
  25 C16       8.4415    -3.3055    -4.8781  C.ar    1  <O>11       0.2701
  26 O3        8.0803    -3.9124    -3.6600  O.2     1  <O>11      -0.2659
  27 H1        6.5110     0.6790    -2.4880  H       1  <O>11       0.0423
  28 H2        5.8310    -0.8590    -1.9040  H       1  <O>11       0.0423
  29 H3        9.5407     2.0084     0.5251  H       1  <O>11       0.1921
  30 H4        6.2450    -1.0260    -4.5740  H       1  <O>11       0.1550
  31 H5        9.5095    -4.9589    -5.4026  H       1  <O>11       0.1684
  32 H6        8.6457    -1.7163     3.2633  H       1  <O>11       0.0625
  33 H7        7.2067    -3.6549     3.0901  H       1  <O>11       0.0618
  34 H8        5.8496    -3.9840     1.1091  H       1  <O>11       0.0618
  35 H9        5.9402    -2.3797    -0.7009  H       1  <O>11       0.0624
  36 H10       8.0840    -0.5056    -6.6403  H       1  <O>11       0.0644
  37 H11      10.1802    -4.0436    -7.5162  H       1  <O>11       0.0813
@<TRIPOS>BOND
     1     1     2    2
     2     2     3    1
     3     3     4    1
     4     4     5   ar
     5     5     6   ar
     6     6     7   ar
     7     7     8    2
     8     7     9   ar
     9     9    10   ar
    10    10    11   ar
    11    11    12   ar
    12    12    13   ar
    13    13    14   ar
    14     4    14   ar
    15     9    14   ar
    16     2    15   am
    17    15    16    1
    18    16    17   ar
    19    17    18   ar
    20    18    19    1
    21    19    20    1
    22    19    21    1
    23    19    22    1
    24    18    23   ar
    25    23    24   ar
    26    24    25   ar
    27    16    25   ar
    28    25    26    2
    29     3    27    1
    30     3    28    1
    31     6    29    1
    32    15    30    1
    33    24    31    1
    34    10    32    1
    35    11    33    1
    36    12    34    1
    37    13    35    1
    38    17    36    1
    39    23    37    1
@<TRIPOS>MOLECULE
mol28_1_10
 37 39 0 0 0
SMALL
USER_CHARGES
****
VDW energy = -41.23
@<TRIPOS>ATOM
   1 O1        8.7381    -1.4068    -2.6744  O.2     1  <O>11      -0.2751
   2 C1        7.6234    -1.0459    -3.0216  C.2     1  <O>11       0.2232
   3 C2        6.7510    -0.2990    -2.0700  C.3     1  <O>11       0.0688
   4 C3        7.4590    -0.1250    -0.7860  C.ar    1  <O>11       0.0780
   5 N1        6.8538    -0.6703     0.2991  N.ar    1  <O>11      -0.1748
   6 N2        7.3853    -0.4644     1.5252  N.ar    1  <O>11      -0.2425
   7 C4        8.5136     0.2748     1.6382  C.ar    1  <O>11       0.2725
   8 O2        8.9591     0.5326     2.9486  O.2     1  <O>11      -0.2658
   9 C5        9.2332     0.7751     0.5432  C.ar    1  <O>11       0.0496
  10 C6       10.4429     1.4963     0.6557  C.ar    1  <O>11      -0.0487
  11 C7       11.0908     1.9952    -0.4752  C.ar    1  <O>11      -0.0610
  12 C8       10.5415     1.7893    -1.7354  C.ar    1  <O>11      -0.0611
  13 C9        9.3428     1.0866    -1.8657  C.ar    1  <O>11      -0.0521
  14 C10       8.6764     0.5665    -0.7321  C.ar    1  <O>11       0.0108
  15 N3        7.1750    -1.3270    -4.2840  N.am    1  <O>11      -0.2809
  16 C11       7.9910    -2.0260    -5.1740  C.ar    1  <O>11       0.0991
  17 C12       7.9534    -3.4159    -5.2407  C.ar    1  <O>11      -0.0221
  18 C13       8.8119    -4.0667    -6.1358  C.ar    1  <O>11       0.0727
  19 C14       8.8233    -5.5399    -6.2202  C.3     1  <O>11       0.4188
  20 F1        7.9039    -5.9545    -7.1647  F       1  <O>11      -0.1658
  21 F2        8.4924    -6.0743    -4.9901  F       1  <O>11      -0.1658
  22 F3       10.0833    -5.9705    -6.5845  F       1  <O>11      -0.1658
  23 C15       9.6588    -3.3157    -6.9490  C.ar    1  <O>11       0.0167
  24 N4        9.6852    -1.9748    -6.8965  N.ar    1  <O>11      -0.3270
  25 C16       8.8643    -1.3569    -6.0209  C.ar    1  <O>11       0.2701
  26 O3        8.9290     0.0494    -5.9934  O.2     1  <O>11      -0.2659
  27 H1        6.5110     0.6790    -2.4880  H       1  <O>11       0.0423
  28 H2        5.8310    -0.8590    -1.9040  H       1  <O>11       0.0423
  29 H3        6.9440    -0.8563     2.3451  H       1  <O>11       0.1921
  30 H4        6.2450    -1.0260    -4.5740  H       1  <O>11       0.1550
  31 H5       10.2863    -1.4089    -7.4786  H       1  <O>11       0.1684
  32 H6       10.8538     1.6565     1.5887  H       1  <O>11       0.0625
  33 H7       11.9761     2.5162    -0.3760  H       1  <O>11       0.0618
  34 H8       11.0195     2.1555    -2.5735  H       1  <O>11       0.0618
  35 H9        8.9365     0.9445    -2.8036  H       1  <O>11       0.0624
  36 H10       7.3070    -3.9551    -4.6435  H       1  <O>11       0.0644
  37 H11      10.2831    -3.8042    -7.6099  H       1  <O>11       0.0813
@<TRIPOS>BOND
     1     1     2    2
     2     2     3    1
     3     3     4    1
     4     4     5   ar
     5     5     6   ar
     6     6     7   ar
     7     7     8    2
     8     7     9   ar
     9     9    10   ar
    10    10    11   ar
    11    11    12   ar
    12    12    13   ar
    13    13    14   ar
    14     4    14   ar
    15     9    14   ar
    16     2    15   am
    17    15    16    1
    18    16    17   ar
    19    17    18   ar
    20    18    19    1
    21    19    20    1
    22    19    21    1
    23    19    22    1
    24    18    23   ar
    25    23    24   ar
    26    24    25   ar
    27    16    25   ar
    28    25    26    2
    29     3    27    1
    30     3    28    1
    31     6    29    1
    32    15    30    1
    33    24    31    1
    34    10    32    1
    35    11    33    1
    36    12    34    1
    37    13    35    1
    38    17    36    1
    39    23    37    1
@<TRIPOS>MOLECULE
mol28_1_11
 37 39 0 0 0
SMALL
USER_CHARGES
****
VDW energy = -41.10
@<TRIPOS>ATOM
   1 O1        8.7381    -1.4068    -2.6744  O.2     1  <O>11      -0.2751
   2 C1        7.6234    -1.0459    -3.0216  C.2     1  <O>11       0.2232
   3 C2        6.7510    -0.2990    -2.0700  C.3     1  <O>11       0.0688
   4 C3        7.4590    -0.1250    -0.7860  C.ar    1  <O>11       0.0780
   5 N1        6.8538    -0.6703     0.2991  N.ar    1  <O>11      -0.1748
   6 N2        7.3853    -0.4644     1.5252  N.ar    1  <O>11      -0.2425
   7 C4        8.5136     0.2748     1.6382  C.ar    1  <O>11       0.2725
   8 O2        8.9591     0.5326     2.9486  O.2     1  <O>11      -0.2658
   9 C5        9.2332     0.7751     0.5432  C.ar    1  <O>11       0.0496
  10 C6       10.4429     1.4963     0.6557  C.ar    1  <O>11      -0.0487
  11 C7       11.0908     1.9952    -0.4752  C.ar    1  <O>11      -0.0610
  12 C8       10.5415     1.7893    -1.7354  C.ar    1  <O>11      -0.0611
  13 C9        9.3428     1.0866    -1.8657  C.ar    1  <O>11      -0.0521
  14 C10       8.6764     0.5665    -0.7321  C.ar    1  <O>11       0.0108
  15 N3        7.1750    -1.3270    -4.2840  N.am    1  <O>11      -0.2809
  16 C11       7.9910    -2.0260    -5.1740  C.ar    1  <O>11       0.0991
  17 C12       7.9534    -3.4159    -5.2407  C.ar    1  <O>11      -0.0221
  18 C13       8.8119    -4.0667    -6.1358  C.ar    1  <O>11       0.0727
  19 C14       8.8233    -5.5399    -6.2202  C.3     1  <O>11       0.4188
  20 F1        9.7464    -5.9401    -7.1673  F       1  <O>11      -0.1658
  21 F2        7.5683    -5.9903    -6.5815  F       1  <O>11      -0.1658
  22 F3        9.1654    -6.0688    -4.9918  F       1  <O>11      -0.1658
  23 C15       9.6588    -3.3157    -6.9490  C.ar    1  <O>11       0.0167
  24 N4        9.6852    -1.9748    -6.8965  N.ar    1  <O>11      -0.3270
  25 C16       8.8643    -1.3569    -6.0209  C.ar    1  <O>11       0.2701
  26 O3        8.9290     0.0494    -5.9934  O.2     1  <O>11      -0.2659
  27 H1        6.5110     0.6790    -2.4880  H       1  <O>11       0.0423
  28 H2        5.8310    -0.8590    -1.9040  H       1  <O>11       0.0423
  29 H3        6.9440    -0.8563     2.3451  H       1  <O>11       0.1921
  30 H4        6.2450    -1.0260    -4.5740  H       1  <O>11       0.1550
  31 H5       10.2863    -1.4089    -7.4786  H       1  <O>11       0.1684
  32 H6       10.8538     1.6565     1.5887  H       1  <O>11       0.0625
  33 H7       11.9761     2.5162    -0.3760  H       1  <O>11       0.0618
  34 H8       11.0195     2.1555    -2.5735  H       1  <O>11       0.0618
  35 H9        8.9365     0.9445    -2.8036  H       1  <O>11       0.0624
  36 H10       7.3070    -3.9551    -4.6435  H       1  <O>11       0.0644
  37 H11      10.2831    -3.8042    -7.6099  H       1  <O>11       0.0813
@<TRIPOS>BOND
     1     1     2    2
     2     2     3    1
     3     3     4    1
     4     4     5   ar
     5     5     6   ar
     6     6     7   ar
     7     7     8    2
     8     7     9   ar
     9     9    10   ar
    10    10    11   ar
    11    11    12   ar
    12    12    13   ar
    13    13    14   ar
    14     4    14   ar
    15     9    14   ar
    16     2    15   am
    17    15    16    1
    18    16    17   ar
    19    17    18   ar
    20    18    19    1
    21    19    20    1
    22    19    21    1
    23    19    22    1
    24    18    23   ar
    25    23    24   ar
    26    24    25   ar
    27    16    25   ar
    28    25    26    2
    29     3    27    1
    30     3    28    1
    31     6    29    1
    32    15    30    1
    33    24    31    1
    34    10    32    1
    35    11    33    1
    36    12    34    1
    37    13    35    1
    38    17    36    1
    39    23    37    1
@<TRIPOS>MOLECULE
mol28_1_12
 37 39 0 0 0
SMALL
USER_CHARGES
****
VDW energy = -40.27
@<TRIPOS>ATOM
   1 O1        8.7381    -1.4068    -2.6744  O.2     1  <O>11      -0.2751
   2 C1        7.6234    -1.0459    -3.0216  C.2     1  <O>11       0.2232
   3 C2        6.7510    -0.2990    -2.0700  C.3     1  <O>11       0.0688
   4 C3        5.3571    -0.7653    -2.2104  C.ar    1  <O>11       0.0780
   5 N1        4.6012    -0.0979    -3.1183  N.ar    1  <O>11      -0.1748
   6 N2        3.2871    -0.3958    -3.2306  N.ar    1  <O>11      -0.2425
   7 C4        2.7602    -1.3592    -2.4391  C.ar    1  <O>11       0.2725
   8 O2        1.3690    -1.5520    -2.5368  O.2     1  <O>11      -0.2658
   9 C5        3.5158    -2.1469    -1.5582  C.ar    1  <O>11       0.0496
  10 C6        2.9786    -3.1927    -0.7746  C.ar    1  <O>11      -0.0487
  11 C7        3.7821    -3.9162     0.1077  C.ar    1  <O>11      -0.0610
  12 C8        5.1318    -3.6061     0.2282  C.ar    1  <O>11      -0.0611
  13 C9        5.6785    -2.5709    -0.5313  C.ar    1  <O>11      -0.0521
  14 C10       4.8818    -1.8323    -1.4366  C.ar    1  <O>11       0.0108
  15 N3        7.1750    -1.3270    -4.2840  N.am    1  <O>11      -0.2809
  16 C11       7.9910    -2.0260    -5.1740  C.ar    1  <O>11       0.0991
  17 C12       8.3793    -1.4610    -6.3855  C.ar    1  <O>11      -0.0221
  18 C13       9.1796    -2.2175    -7.2511  C.ar    1  <O>11       0.0727
  19 C14       9.5925    -1.6673    -8.5565  C.3     1  <O>11       0.4188
  20 F1        8.6525    -1.9973    -9.5139  F       1  <O>11      -0.1658
  21 F2       10.8177    -2.1967    -8.9127  F       1  <O>11      -0.1658
  22 F3        9.6942    -0.2935    -8.4657  F       1  <O>11      -0.1658
  23 C15       9.5854    -3.4966    -6.8742  C.ar    1  <O>11       0.0167
  24 N4        9.2243    -4.0367    -5.6998  N.ar    1  <O>11      -0.3270
  25 C16       8.4415    -3.3055    -4.8781  C.ar    1  <O>11       0.2701
  26 O3        8.0803    -3.9124    -3.6600  O.2     1  <O>11      -0.2659
  27 H1        7.0920    -0.4752    -1.0495  H       1  <O>11       0.0423
  28 H2        6.8009     0.7669    -2.2910  H       1  <O>11       0.0423
  29 H3        2.7073     0.0961    -3.8957  H       1  <O>11       0.1921
  30 H4        6.2450    -1.0260    -4.5740  H       1  <O>11       0.1550
  31 H5        9.5095    -4.9589    -5.4026  H       1  <O>11       0.1684
  32 H6        1.9765    -3.4251    -0.8561  H       1  <O>11       0.0625
  33 H7        3.3750    -4.6801     0.6696  H       1  <O>11       0.0618
  34 H8        5.7287    -4.1408     0.8785  H       1  <O>11       0.0618
  35 H9        6.6794    -2.3408    -0.4308  H       1  <O>11       0.0624
  36 H10       8.0840    -0.5056    -6.6403  H       1  <O>11       0.0644
  37 H11      10.1802    -4.0436    -7.5162  H       1  <O>11       0.0813
@<TRIPOS>BOND
     1     1     2    2
     2     2     3    1
     3     3     4    1
     4     4     5   ar
     5     5     6   ar
     6     6     7   ar
     7     7     8    2
     8     7     9   ar
     9     9    10   ar
    10    10    11   ar
    11    11    12   ar
    12    12    13   ar
    13    13    14   ar
    14     4    14   ar
    15     9    14   ar
    16     2    15   am
    17    15    16    1
    18    16    17   ar
    19    17    18   ar
    20    18    19    1
    21    19    20    1
    22    19    21    1
    23    19    22    1
    24    18    23   ar
    25    23    24   ar
    26    24    25   ar
    27    16    25   ar
    28    25    26    2
    29     3    27    1
    30     3    28    1
    31     6    29    1
    32    15    30    1
    33    24    31    1
    34    10    32    1
    35    11    33    1
    36    12    34    1
    37    13    35    1
    38    17    36    1
    39    23    37    1
@<TRIPOS>MOLECULE
mol28_1_13
 37 39 0 0 0
SMALL
USER_CHARGES
****
VDW energy = -39.00
@<TRIPOS>ATOM
   1 O1        8.7381    -1.4068    -2.6744  O.2     1  <O>11      -0.2751
   2 C1        7.6234    -1.0459    -3.0216  C.2     1  <O>11       0.2232
   3 C2        6.7510    -0.2990    -2.0700  C.3     1  <O>11       0.0688
   4 C3        7.4590    -0.1250    -0.7860  C.ar    1  <O>11       0.0780
   5 N1        7.6639     1.1582    -0.3954  N.ar    1  <O>11      -0.1748
   6 N2        8.3957     1.4019     0.7151  N.ar    1  <O>11      -0.2425
   7 C4        8.8992     0.3580     1.4143  C.ar    1  <O>11       0.2725
   8 O2        9.7320     0.6822     2.5022  O.2     1  <O>11      -0.2658
   9 C5        8.6336    -0.9858     1.1124  C.ar    1  <O>11       0.0496
  10 C6        9.1091    -2.0758     1.8752  C.ar    1  <O>11      -0.0487
  11 C7        8.8347    -3.3914     1.4988  C.ar    1  <O>11      -0.0610
  12 C8        8.0878    -3.6426     0.3537  C.ar    1  <O>11      -0.0611
  13 C9        7.6169    -2.5789    -0.4172  C.ar    1  <O>11      -0.0521
  14 C10       7.8777    -1.2393    -0.0470  C.ar    1  <O>11       0.0108
  15 N3        7.1750    -1.3270    -4.2840  N.am    1  <O>11      -0.2809
  16 C11       5.9022    -0.9146    -4.6795  C.ar    1  <O>11       0.0991
  17 C12       4.7923    -1.7331    -4.4903  C.ar    1  <O>11      -0.0221
  18 C13       3.5422    -1.2780    -4.9284  C.ar    1  <O>11       0.0727
  19 C14       2.3437    -2.1244    -4.7710  C.3     1  <O>11       0.4188
  20 F1        1.2417    -1.4610    -5.2757  F       1  <O>11      -0.1658
  21 F2        2.1440    -2.3957    -3.4313  F       1  <O>11      -0.1658
  22 F3        2.5227    -3.3083    -5.4580  F       1  <O>11      -0.1658
  23 C15       3.4337    -0.0189    -5.5161  C.ar    1  <O>11       0.0167
  24 N4        4.5006     0.7777    -5.6855  N.ar    1  <O>11      -0.3270
  25 C16       5.7035     0.3248    -5.2727  C.ar    1  <O>11       0.2701
  26 O3        6.7966     1.1889    -5.4757  O.2     1  <O>11      -0.2659
  27 H1        6.5110     0.6790    -2.4880  H       1  <O>11       0.0423
  28 H2        5.8310    -0.8590    -1.9040  H       1  <O>11       0.0423
  29 H3        8.5650     2.3511     1.0166  H       1  <O>11       0.1921
  30 H4        7.7708    -1.8374    -4.9353  H       1  <O>11       0.1550
  31 H5        4.4464     1.6954    -6.1040  H       1  <O>11       0.1684
  32 H6        9.6679    -1.8963     2.7240  H       1  <O>11       0.0625
  33 H7        9.1858    -4.1762     2.0695  H       1  <O>11       0.0618
  34 H8        7.8818    -4.6144     0.0740  H       1  <O>11       0.0618
  35 H9        7.0699    -2.7729    -1.2706  H       1  <O>11       0.0624
  36 H10       4.8885    -2.6553    -4.0370  H       1  <O>11       0.0644
  37 H11       2.5072     0.3101    -5.8299  H       1  <O>11       0.0813
@<TRIPOS>BOND
     1     1     2    2
     2     2     3    1
     3     3     4    1
     4     4     5   ar
     5     5     6   ar
     6     6     7   ar
     7     7     8    2
     8     7     9   ar
     9     9    10   ar
    10    10    11   ar
    11    11    12   ar
    12    12    13   ar
    13    13    14   ar
    14     4    14   ar
    15     9    14   ar
    16     2    15   am
    17    15    16    1
    18    16    17   ar
    19    17    18   ar
    20    18    19    1
    21    19    20    1
    22    19    21    1
    23    19    22    1
    24    18    23   ar
    25    23    24   ar
    26    24    25   ar
    27    16    25   ar
    28    25    26    2
    29     3    27    1
    30     3    28    1
    31     6    29    1
    32    15    30    1
    33    24    31    1
    34    10    32    1
    35    11    33    1
    36    12    34    1
    37    13    35    1
    38    17    36    1
    39    23    37    1
@<TRIPOS>MOLECULE
mol28_1_14
 37 39 0 0 0
SMALL
USER_CHARGES
****
VDW energy = -39.00
@<TRIPOS>ATOM
   1 O1        8.7381    -1.4068    -2.6744  O.2     1  <O>11      -0.2751
   2 C1        7.6234    -1.0459    -3.0216  C.2     1  <O>11       0.2232
   3 C2        6.7510    -0.2990    -2.0700  C.3     1  <O>11       0.0688
   4 C3        7.4590    -0.1250    -0.7860  C.ar    1  <O>11       0.0780
   5 N1        7.6639     1.1582    -0.3954  N.ar    1  <O>11      -0.1748
   6 N2        8.3957     1.4019     0.7151  N.ar    1  <O>11      -0.2425
   7 C4        8.8992     0.3580     1.4143  C.ar    1  <O>11       0.2725
   8 O2        9.7320     0.6822     2.5022  O.2     1  <O>11      -0.2658
   9 C5        8.6336    -0.9858     1.1124  C.ar    1  <O>11       0.0496
  10 C6        9.1091    -2.0758     1.8752  C.ar    1  <O>11      -0.0487
  11 C7        8.8347    -3.3914     1.4988  C.ar    1  <O>11      -0.0610
  12 C8        8.0878    -3.6426     0.3537  C.ar    1  <O>11      -0.0611
  13 C9        7.6169    -2.5789    -0.4172  C.ar    1  <O>11      -0.0521
  14 C10       7.8777    -1.2393    -0.0470  C.ar    1  <O>11       0.0108
  15 N3        7.1750    -1.3270    -4.2840  N.am    1  <O>11      -0.2809
  16 C11       5.9022    -0.9146    -4.6795  C.ar    1  <O>11       0.0991
  17 C12       4.7923    -1.7331    -4.4903  C.ar    1  <O>11      -0.0221
  18 C13       3.5422    -1.2780    -4.9284  C.ar    1  <O>11       0.0727
  19 C14       2.3437    -2.1244    -4.7710  C.3     1  <O>11       0.4188
  20 F1        2.5226    -3.3090    -5.4594  F       1  <O>11      -0.1658
  21 F2        1.2419    -1.4609    -5.2752  F       1  <O>11      -0.1658
  22 F3        2.1441    -2.3956    -3.4323  F       1  <O>11      -0.1658
  23 C15       3.4337    -0.0189    -5.5161  C.ar    1  <O>11       0.0167
  24 N4        4.5006     0.7777    -5.6855  N.ar    1  <O>11      -0.3270
  25 C16       5.7035     0.3248    -5.2727  C.ar    1  <O>11       0.2701
  26 O3        6.7966     1.1889    -5.4757  O.2     1  <O>11      -0.2659
  27 H1        6.5110     0.6790    -2.4880  H       1  <O>11       0.0423
  28 H2        5.8310    -0.8590    -1.9040  H       1  <O>11       0.0423
  29 H3        8.5650     2.3511     1.0166  H       1  <O>11       0.1921
  30 H4        7.7708    -1.8374    -4.9353  H       1  <O>11       0.1550
  31 H5        4.4464     1.6954    -6.1040  H       1  <O>11       0.1684
  32 H6        9.6679    -1.8963     2.7240  H       1  <O>11       0.0625
  33 H7        9.1858    -4.1762     2.0695  H       1  <O>11       0.0618
  34 H8        7.8818    -4.6144     0.0740  H       1  <O>11       0.0618
  35 H9        7.0699    -2.7729    -1.2706  H       1  <O>11       0.0624
  36 H10       4.8885    -2.6553    -4.0370  H       1  <O>11       0.0644
  37 H11       2.5072     0.3101    -5.8299  H       1  <O>11       0.0813
@<TRIPOS>BOND
     1     1     2    2
     2     2     3    1
     3     3     4    1
     4     4     5   ar
     5     5     6   ar
     6     6     7   ar
     7     7     8    2
     8     7     9   ar
     9     9    10   ar
    10    10    11   ar
    11    11    12   ar
    12    12    13   ar
    13    13    14   ar
    14     4    14   ar
    15     9    14   ar
    16     2    15   am
    17    15    16    1
    18    16    17   ar
    19    17    18   ar
    20    18    19    1
    21    19    20    1
    22    19    21    1
    23    19    22    1
    24    18    23   ar
    25    23    24   ar
    26    24    25   ar
    27    16    25   ar
    28    25    26    2
    29     3    27    1
    30     3    28    1
    31     6    29    1
    32    15    30    1
    33    24    31    1
    34    10    32    1
    35    11    33    1
    36    12    34    1
    37    13    35    1
    38    17    36    1
    39    23    37    1
@<TRIPOS>MOLECULE
mol28_1_15
 37 39 0 0 0
SMALL
USER_CHARGES
****
VDW energy = -38.66
@<TRIPOS>ATOM
   1 O1        8.7381    -1.4068    -2.6744  O.2     1  <O>11      -0.2751
   2 C1        7.6234    -1.0459    -3.0216  C.2     1  <O>11       0.2232
   3 C2        6.7510    -0.2990    -2.0700  C.3     1  <O>11       0.0688
   4 C3        7.4590    -0.1250    -0.7860  C.ar    1  <O>11       0.0780
   5 N1        7.6639     1.1582    -0.3954  N.ar    1  <O>11      -0.1748
   6 N2        8.3957     1.4019     0.7151  N.ar    1  <O>11      -0.2425
   7 C4        8.8992     0.3580     1.4143  C.ar    1  <O>11       0.2725
   8 O2        9.7320     0.6822     2.5022  O.2     1  <O>11      -0.2658
   9 C5        8.6336    -0.9858     1.1124  C.ar    1  <O>11       0.0496
  10 C6        9.1091    -2.0758     1.8752  C.ar    1  <O>11      -0.0487
  11 C7        8.8347    -3.3914     1.4988  C.ar    1  <O>11      -0.0610
  12 C8        8.0878    -3.6426     0.3537  C.ar    1  <O>11      -0.0611
  13 C9        7.6169    -2.5789    -0.4172  C.ar    1  <O>11      -0.0521
  14 C10       7.8777    -1.2393    -0.0470  C.ar    1  <O>11       0.0108
  15 N3        7.1750    -1.3270    -4.2840  N.am    1  <O>11      -0.2809
  16 C11       5.9022    -0.9146    -4.6795  C.ar    1  <O>11       0.0991
  17 C12       5.7041     0.3278    -5.2753  C.ar    1  <O>11      -0.0221
  18 C13       4.4013     0.6998    -5.6306  C.ar    1  <O>11       0.0727
  19 C14       4.1427     2.0183    -6.2407  C.3     1  <O>11       0.4188
  20 F1        2.7916     2.1498    -6.4984  F       1  <O>11      -0.1658
  21 F2        4.8494     2.1253    -7.4229  F       1  <O>11      -0.1658
  22 F3        4.5448     3.0140    -5.3731  F       1  <O>11      -0.1658
  23 C15       3.3461    -0.1822    -5.4044  C.ar    1  <O>11       0.0167
  24 N4        3.5378    -1.3866    -4.8440  N.ar    1  <O>11      -0.3270
  25 C16       4.7949    -1.7309    -4.4922  C.ar    1  <O>11       0.2701
  26 O3        4.9503    -2.9995    -3.9013  O.2     1  <O>11      -0.2659
  27 H1        6.5110     0.6790    -2.4880  H       1  <O>11       0.0423
  28 H2        5.8310    -0.8590    -1.9040  H       1  <O>11       0.0423
  29 H3        8.5650     2.3511     1.0166  H       1  <O>11       0.1921
  30 H4        7.7708    -1.8374    -4.9353  H       1  <O>11       0.1550
  31 H5        2.7904    -2.0446    -4.6746  H       1  <O>11       0.1684
  32 H6        9.6679    -1.8963     2.7240  H       1  <O>11       0.0625
  33 H7        9.1858    -4.1762     2.0695  H       1  <O>11       0.0618
  34 H8        7.8818    -4.6144     0.0740  H       1  <O>11       0.0618
  35 H9        7.0699    -2.7729    -1.2706  H       1  <O>11       0.0624
  36 H10       6.4998     0.9609    -5.4514  H       1  <O>11       0.0644
  37 H11       2.3907     0.0985    -5.6755  H       1  <O>11       0.0813
@<TRIPOS>BOND
     1     1     2    2
     2     2     3    1
     3     3     4    1
     4     4     5   ar
     5     5     6   ar
     6     6     7   ar
     7     7     8    2
     8     7     9   ar
     9     9    10   ar
    10    10    11   ar
    11    11    12   ar
    12    12    13   ar
    13    13    14   ar
    14     4    14   ar
    15     9    14   ar
    16     2    15   am
    17    15    16    1
    18    16    17   ar
    19    17    18   ar
    20    18    19    1
    21    19    20    1
    22    19    21    1
    23    19    22    1
    24    18    23   ar
    25    23    24   ar
    26    24    25   ar
    27    16    25   ar
    28    25    26    2
    29     3    27    1
    30     3    28    1
    31     6    29    1
    32    15    30    1
    33    24    31    1
    34    10    32    1
    35    11    33    1
    36    12    34    1
    37    13    35    1
    38    17    36    1
    39    23    37    1
@<TRIPOS>MOLECULE
mol28_1_16
 37 39 0 0 0
SMALL
USER_CHARGES
****
VDW energy = -36.46
@<TRIPOS>ATOM
   1 O1        8.7381    -1.4068    -2.6744  O.2     1  <O>11      -0.2751
   2 C1        7.6234    -1.0459    -3.0216  C.2     1  <O>11       0.2232
   3 C2        6.7510    -0.2990    -2.0700  C.3     1  <O>11       0.0688
   4 C3        7.4590    -0.1250    -0.7860  C.ar    1  <O>11       0.0780
   5 N1        6.8538    -0.6703     0.2991  N.ar    1  <O>11      -0.1748
   6 N2        7.3853    -0.4644     1.5252  N.ar    1  <O>11      -0.2425
   7 C4        8.5136     0.2748     1.6382  C.ar    1  <O>11       0.2725
   8 O2        8.9591     0.5326     2.9486  O.2     1  <O>11      -0.2658
   9 C5        9.2332     0.7751     0.5432  C.ar    1  <O>11       0.0496
  10 C6       10.4429     1.4963     0.6557  C.ar    1  <O>11      -0.0487
  11 C7       11.0908     1.9952    -0.4752  C.ar    1  <O>11      -0.0610
  12 C8       10.5415     1.7893    -1.7354  C.ar    1  <O>11      -0.0611
  13 C9        9.3428     1.0866    -1.8657  C.ar    1  <O>11      -0.0521
  14 C10       8.6764     0.5665    -0.7321  C.ar    1  <O>11       0.0108
  15 N3        7.1750    -1.3270    -4.2840  N.am    1  <O>11      -0.2809
  16 C11       5.9022    -0.9146    -4.6795  C.ar    1  <O>11       0.0991
  17 C12       4.7923    -1.7331    -4.4903  C.ar    1  <O>11      -0.0221
  18 C13       3.5422    -1.2780    -4.9284  C.ar    1  <O>11       0.0727
  19 C14       2.3437    -2.1244    -4.7710  C.3     1  <O>11       0.4188
  20 F1        1.2417    -1.4610    -5.2757  F       1  <O>11      -0.1658
  21 F2        2.1440    -2.3957    -3.4313  F       1  <O>11      -0.1658
  22 F3        2.5227    -3.3083    -5.4580  F       1  <O>11      -0.1658
  23 C15       3.4337    -0.0189    -5.5161  C.ar    1  <O>11       0.0167
  24 N4        4.5006     0.7777    -5.6855  N.ar    1  <O>11      -0.3270
  25 C16       5.7035     0.3248    -5.2727  C.ar    1  <O>11       0.2701
  26 O3        6.7966     1.1889    -5.4757  O.2     1  <O>11      -0.2659
  27 H1        6.5110     0.6790    -2.4880  H       1  <O>11       0.0423
  28 H2        5.8310    -0.8590    -1.9040  H       1  <O>11       0.0423
  29 H3        6.9440    -0.8563     2.3451  H       1  <O>11       0.1921
  30 H4        7.7708    -1.8374    -4.9353  H       1  <O>11       0.1550
  31 H5        4.4464     1.6954    -6.1040  H       1  <O>11       0.1684
  32 H6       10.8538     1.6565     1.5887  H       1  <O>11       0.0625
  33 H7       11.9761     2.5162    -0.3760  H       1  <O>11       0.0618
  34 H8       11.0195     2.1555    -2.5735  H       1  <O>11       0.0618
  35 H9        8.9365     0.9445    -2.8036  H       1  <O>11       0.0624
  36 H10       4.8885    -2.6553    -4.0370  H       1  <O>11       0.0644
  37 H11       2.5072     0.3101    -5.8299  H       1  <O>11       0.0813
@<TRIPOS>BOND
     1     1     2    2
     2     2     3    1
     3     3     4    1
     4     4     5   ar
     5     5     6   ar
     6     6     7   ar
     7     7     8    2
     8     7     9   ar
     9     9    10   ar
    10    10    11   ar
    11    11    12   ar
    12    12    13   ar
    13    13    14   ar
    14     4    14   ar
    15     9    14   ar
    16     2    15   am
    17    15    16    1
    18    16    17   ar
    19    17    18   ar
    20    18    19    1
    21    19    20    1
    22    19    21    1
    23    19    22    1
    24    18    23   ar
    25    23    24   ar
    26    24    25   ar
    27    16    25   ar
    28    25    26    2
    29     3    27    1
    30     3    28    1
    31     6    29    1
    32    15    30    1
    33    24    31    1
    34    10    32    1
    35    11    33    1
    36    12    34    1
    37    13    35    1
    38    17    36    1
    39    23    37    1
@<TRIPOS>MOLECULE
mol28_1_17
 37 39 0 0 0
SMALL
USER_CHARGES
****
VDW energy = -33.44
@<TRIPOS>ATOM
   1 O1        8.7381    -1.4068    -2.6744  O.2     1  <O>11      -0.2751
   2 C1        7.6234    -1.0459    -3.0216  C.2     1  <O>11       0.2232
   3 C2        6.7510    -0.2990    -2.0700  C.3     1  <O>11       0.0688
   4 C3        7.4590    -0.1250    -0.7860  C.ar    1  <O>11       0.0780
   5 N1        7.2738    -1.1113     0.1273  N.ar    1  <O>11      -0.1748
   6 N2        7.8032    -0.9746     1.3639  N.ar    1  <O>11      -0.2425
   7 C4        8.5122     0.1405     1.6571  C.ar    1  <O>11       0.2725
   8 O2        8.9520     0.2652     2.9887  O.2     1  <O>11      -0.2658
   9 C5        8.8181     1.1406     0.7225  C.ar    1  <O>11       0.0496
  10 C6        9.6078     2.2762     1.0104  C.ar    1  <O>11      -0.0487
  11 C7        9.8460     3.2515     0.0410  C.ar    1  <O>11      -0.0610
  12 C8        9.2966     3.1146    -1.2286  C.ar    1  <O>11      -0.0611
  13 C9        8.5069     2.0039    -1.5290  C.ar    1  <O>11      -0.0521
  14 C10       8.2616     1.0015    -0.5623  C.ar    1  <O>11       0.0108
  15 N3        7.1750    -1.3270    -4.2840  N.am    1  <O>11      -0.2809
  16 C11       5.9022    -0.9146    -4.6795  C.ar    1  <O>11       0.0991
  17 C12       4.9415    -1.8388    -5.0803  C.ar    1  <O>11      -0.0221
  18 C13       3.6880    -1.3666    -5.4900  C.ar    1  <O>11       0.0727
  19 C14       2.6492    -2.3095    -5.9472  C.3     1  <O>11       0.4188
  20 F1        2.7647    -2.4963    -7.3114  F       1  <O>11      -0.1658
  21 F2        1.4004    -1.7953    -5.6571  F       1  <O>11      -0.1658
  22 F3        2.8094    -3.5194    -5.3020  F       1  <O>11      -0.1658
  23 C15       3.4245     0.0019    -5.4649  C.ar    1  <O>11       0.0167
  24 N4        4.3449     0.8929    -5.0643  N.ar    1  <O>11      -0.3270
  25 C16       5.5547     0.4295    -4.6844  C.ar    1  <O>11       0.2701
  26 O3        6.4924     1.3983    -4.2785  O.2     1  <O>11      -0.2659
  27 H1        6.5110     0.6790    -2.4880  H       1  <O>11       0.0423
  28 H2        5.8310    -0.8590    -1.9040  H       1  <O>11       0.0423
  29 H3        7.6690    -1.6952     2.0590  H       1  <O>11       0.1921
  30 H4        7.7708    -1.8374    -4.9353  H       1  <O>11       0.1550
  31 H5        4.1760     1.8882    -5.0329  H       1  <O>11       0.1684
  32 H6       10.0150     2.3861     1.9523  H       1  <O>11       0.0625
  33 H7       10.4288     4.0728     0.2663  H       1  <O>11       0.0618
  34 H8        9.4726     3.8333    -1.9480  H       1  <O>11       0.0618
  35 H9        8.0956     1.9129    -2.4711  H       1  <O>11       0.0624
  36 H10       5.1482    -2.8498    -5.0755  H       1  <O>11       0.0644
  37 H11       2.4958     0.3394    -5.7627  H       1  <O>11       0.0813
@<TRIPOS>BOND
     1     1     2    2
     2     2     3    1
     3     3     4    1
     4     4     5   ar
     5     5     6   ar
     6     6     7   ar
     7     7     8    2
     8     7     9   ar
     9     9    10   ar
    10    10    11   ar
    11    11    12   ar
    12    12    13   ar
    13    13    14   ar
    14     4    14   ar
    15     9    14   ar
    16     2    15   am
    17    15    16    1
    18    16    17   ar
    19    17    18   ar
    20    18    19    1
    21    19    20    1
    22    19    21    1
    23    19    22    1
    24    18    23   ar
    25    23    24   ar
    26    24    25   ar
    27    16    25   ar
    28    25    26    2
    29     3    27    1
    30     3    28    1
    31     6    29    1
    32    15    30    1
    33    24    31    1
    34    10    32    1
    35    11    33    1
    36    12    34    1
    37    13    35    1
    38    17    36    1
    39    23    37    1
@<TRIPOS>MOLECULE
mol28_1_18
 37 39 0 0 0
SMALL
USER_CHARGES
****
VDW energy = -33.34
@<TRIPOS>ATOM
   1 O1        8.7381    -1.4068    -2.6744  O.2     1  <O>11      -0.2751
   2 C1        7.6234    -1.0459    -3.0216  C.2     1  <O>11       0.2232
   3 C2        6.7510    -0.2990    -2.0700  C.3     1  <O>11       0.0688
   4 C3        7.4590    -0.1250    -0.7860  C.ar    1  <O>11       0.0780
   5 N1        8.7070    -0.6540    -0.7250  N.ar    1  <O>11      -0.1748
   6 N2        9.3790    -0.6280     0.4480  N.ar    1  <O>11      -0.2425
   7 C4        8.7920    -0.0670     1.5310  C.ar    1  <O>11       0.2725
   8 O2        9.5040    -0.1600     2.7420  O.2     1  <O>11      -0.2658
   9 C5        7.5490     0.5820     1.4980  C.ar    1  <O>11       0.0496
  10 C6        6.9610     1.2200     2.6130  C.ar    1  <O>11      -0.0487
  11 C7        5.7040     1.8190     2.5190  C.ar    1  <O>11      -0.0610
  12 C8        5.0100     1.7870     1.3150  C.ar    1  <O>11      -0.0611
  13 C9        5.5710     1.1540     0.2050  C.ar    1  <O>11      -0.0521
  14 C10       6.8470     0.5490     0.2790  C.ar    1  <O>11       0.0108
  15 N3        7.1750    -1.3270    -4.2840  N.am    1  <O>11      -0.2809
  16 C11       7.9910    -2.0260    -5.1740  C.ar    1  <O>11       0.0991
  17 C12       7.9534    -3.4159    -5.2407  C.ar    1  <O>11      -0.0221
  18 C13       8.8119    -4.0667    -6.1358  C.ar    1  <O>11       0.0727
  19 C14       8.8233    -5.5399    -6.2202  C.3     1  <O>11       0.4188
  20 F1        9.7464    -5.9401    -7.1673  F       1  <O>11      -0.1658
  21 F2        7.5683    -5.9903    -6.5815  F       1  <O>11      -0.1658
  22 F3        9.1654    -6.0688    -4.9918  F       1  <O>11      -0.1658
  23 C15       9.6588    -3.3157    -6.9490  C.ar    1  <O>11       0.0167
  24 N4        9.6852    -1.9748    -6.8965  N.ar    1  <O>11      -0.3270
  25 C16       8.8643    -1.3569    -6.0209  C.ar    1  <O>11       0.2701
  26 O3        8.9290     0.0494    -5.9934  O.2     1  <O>11      -0.2659
  27 H1        6.5110     0.6790    -2.4880  H       1  <O>11       0.0423
  28 H2        5.8310    -0.8590    -1.9040  H       1  <O>11       0.0423
  29 H3       10.3060    -1.0240     0.5140  H       1  <O>11       0.1921
  30 H4        6.2450    -1.0260    -4.5740  H       1  <O>11       0.1550
  31 H5       10.2863    -1.4089    -7.4786  H       1  <O>11       0.1684
  32 H6        7.4690     1.2435     3.5110  H       1  <O>11       0.0625
  33 H7        5.2905     2.2848     3.3418  H       1  <O>11       0.0618
  34 H8        4.0811     2.2308     1.2421  H       1  <O>11       0.0618
  35 H9        5.0466     1.1270    -0.6834  H       1  <O>11       0.0624
  36 H10       7.3070    -3.9551    -4.6435  H       1  <O>11       0.0644
  37 H11      10.2831    -3.8042    -7.6099  H       1  <O>11       0.0813
@<TRIPOS>BOND
     1     1     2    2
     2     2     3    1
     3     3     4    1
     4     4     5   ar
     5     5     6   ar
     6     6     7   ar
     7     7     8    2
     8     7     9   ar
     9     9    10   ar
    10    10    11   ar
    11    11    12   ar
    12    12    13   ar
    13    13    14   ar
    14     4    14   ar
    15     9    14   ar
    16     2    15   am
    17    15    16    1
    18    16    17   ar
    19    17    18   ar
    20    18    19    1
    21    19    20    1
    22    19    21    1
    23    19    22    1
    24    18    23   ar
    25    23    24   ar
    26    24    25   ar
    27    16    25   ar
    28    25    26    2
    29     3    27    1
    30     3    28    1
    31     6    29    1
    32    15    30    1
    33    24    31    1
    34    10    32    1
    35    11    33    1
    36    12    34    1
    37    13    35    1
    38    17    36    1
    39    23    37    1
@<TRIPOS>MOLECULE
mol28_1_19
 37 39 0 0 0
SMALL
USER_CHARGES
****
VDW energy = -22.42
@<TRIPOS>ATOM
   1 O1        8.7381    -1.4068    -2.6744  O.2     1  <O>11      -0.2751
   2 C1        7.6234    -1.0459    -3.0216  C.2     1  <O>11       0.2232
   3 C2        6.7510    -0.2990    -2.0700  C.3     1  <O>11       0.0688
   4 C3        7.4590    -0.1250    -0.7860  C.ar    1  <O>11       0.0780
   5 N1        8.2092     1.0001    -0.6747  N.ar    1  <O>11      -0.1748
   6 N2        8.9699     1.1805     0.4285  N.ar    1  <O>11      -0.2425
   7 C4        8.9575     0.2366     1.3986  C.ar    1  <O>11       0.2725
   8 O2        9.8445     0.4380     2.4732  O.2     1  <O>11      -0.2658
   9 C5        8.1258    -0.8927     1.3798  C.ar    1  <O>11       0.0496
  10 C6        8.0677    -1.8485     2.4186  C.ar    1  <O>11      -0.0487
  11 C7        7.2409    -2.9685     2.3203  C.ar    1  <O>11      -0.0610
  12 C8        6.4634    -3.1576     1.1837  C.ar    1  <O>11      -0.0611
  13 C9        6.5139    -2.2287     0.1435  C.ar    1  <O>11      -0.0521
  14 C10       7.3393    -1.0836     0.2288  C.ar    1  <O>11       0.0108
  15 N3        7.1750    -1.3270    -4.2840  N.am    1  <O>11      -0.2809
  16 C11       7.9910    -2.0260    -5.1740  C.ar    1  <O>11       0.0991
  17 C12       9.2640    -2.4470    -4.8000  C.ar    1  <O>11      -0.0221
  18 C13      10.0490    -3.1240    -5.7420  C.ar    1  <O>11       0.0727
  19 C14      11.4140    -3.5650    -5.3960  C.3     1  <O>11       0.4188
  20 F1       12.1809    -2.4669    -5.0565  F       1  <O>11      -0.1658
  21 F2       11.9806    -4.2042    -6.4817  F       1  <O>11      -0.1658
  22 F3       11.3592    -4.4364    -4.3267  F       1  <O>11      -0.1658
  23 C15       9.5350    -3.3800    -7.0120  C.ar    1  <O>11       0.0167
  24 N4        8.3020    -2.9880    -7.3690  N.ar    1  <O>11      -0.3270
  25 C16       7.5580    -2.3240    -6.4590  C.ar    1  <O>11       0.2701
  26 O3        6.2740    -1.9250    -6.8770  O.2     1  <O>11      -0.2659
  27 H1        6.5110     0.6790    -2.4880  H       1  <O>11       0.0423
  28 H2        5.8310    -0.8590    -1.9040  H       1  <O>11       0.0423
  29 H3        9.5407     2.0084     0.5251  H       1  <O>11       0.1921
  30 H4        6.2450    -1.0260    -4.5740  H       1  <O>11       0.1550
  31 H5        7.9060    -3.1660    -8.2810  H       1  <O>11       0.1684
  32 H6        8.6457    -1.7163     3.2633  H       1  <O>11       0.0625
  33 H7        7.2067    -3.6549     3.0901  H       1  <O>11       0.0618
  34 H8        5.8496    -3.9840     1.1091  H       1  <O>11       0.0618
  35 H9        5.9402    -2.3797    -0.7009  H       1  <O>11       0.0624
  36 H10       9.6216    -2.2643    -3.8493  H       1  <O>11       0.0644
  37 H11      10.1188    -3.8851    -7.6970  H       1  <O>11       0.0813
@<TRIPOS>BOND
     1     1     2    2
     2     2     3    1
     3     3     4    1
     4     4     5   ar
     5     5     6   ar
     6     6     7   ar
     7     7     8    2
     8     7     9   ar
     9     9    10   ar
    10    10    11   ar
    11    11    12   ar
    12    12    13   ar
    13    13    14   ar
    14     4    14   ar
    15     9    14   ar
    16     2    15   am
    17    15    16    1
    18    16    17   ar
    19    17    18   ar
    20    18    19    1
    21    19    20    1
    22    19    21    1
    23    19    22    1
    24    18    23   ar
    25    23    24   ar
    26    24    25   ar
    27    16    25   ar
    28    25    26    2
    29     3    27    1
    30     3    28    1
    31     6    29    1
    32    15    30    1
    33    24    31    1
    34    10    32    1
    35    11    33    1
    36    12    34    1
    37    13    35    1
    38    17    36    1
    39    23    37    1
@<TRIPOS>MOLECULE
mol28_1_20
 37 39 0 0 0
SMALL
USER_CHARGES
****
VDW energy = -22.42
@<TRIPOS>ATOM
   1 O1        8.7381    -1.4068    -2.6744  O.2     1  <O>11      -0.2751
   2 C1        7.6234    -1.0459    -3.0216  C.2     1  <O>11       0.2232
   3 C2        6.7510    -0.2990    -2.0700  C.3     1  <O>11       0.0688
   4 C3        7.4590    -0.1250    -0.7860  C.ar    1  <O>11       0.0780
   5 N1        8.2092     1.0001    -0.6747  N.ar    1  <O>11      -0.1748
   6 N2        8.9699     1.1805     0.4285  N.ar    1  <O>11      -0.2425
   7 C4        8.9575     0.2366     1.3986  C.ar    1  <O>11       0.2725
   8 O2        9.8445     0.4380     2.4732  O.2     1  <O>11      -0.2658
   9 C5        8.1258    -0.8927     1.3798  C.ar    1  <O>11       0.0496
  10 C6        8.0677    -1.8485     2.4186  C.ar    1  <O>11      -0.0487
  11 C7        7.2409    -2.9685     2.3203  C.ar    1  <O>11      -0.0610
  12 C8        6.4634    -3.1576     1.1837  C.ar    1  <O>11      -0.0611
  13 C9        6.5139    -2.2287     0.1435  C.ar    1  <O>11      -0.0521
  14 C10       7.3393    -1.0836     0.2288  C.ar    1  <O>11       0.0108
  15 N3        7.1750    -1.3270    -4.2840  N.am    1  <O>11      -0.2809
  16 C11       7.9910    -2.0260    -5.1740  C.ar    1  <O>11       0.0991
  17 C12       9.2640    -2.4470    -4.8000  C.ar    1  <O>11      -0.0221
  18 C13      10.0490    -3.1240    -5.7420  C.ar    1  <O>11       0.0727
  19 C14      11.4140    -3.5650    -5.3960  C.3     1  <O>11       0.4188
  20 F1       11.3591    -4.4369    -4.3255  F       1  <O>11      -0.1658
  21 F2       12.1806    -2.4671    -5.0566  F       1  <O>11      -0.1658
  22 F3       11.9805    -4.2035    -6.4810  F       1  <O>11      -0.1658
  23 C15       9.5350    -3.3800    -7.0120  C.ar    1  <O>11       0.0167
  24 N4        8.3020    -2.9880    -7.3690  N.ar    1  <O>11      -0.3270
  25 C16       7.5580    -2.3240    -6.4590  C.ar    1  <O>11       0.2701
  26 O3        6.2740    -1.9250    -6.8770  O.2     1  <O>11      -0.2659
  27 H1        6.5110     0.6790    -2.4880  H       1  <O>11       0.0423
  28 H2        5.8310    -0.8590    -1.9040  H       1  <O>11       0.0423
  29 H3        9.5407     2.0084     0.5251  H       1  <O>11       0.1921
  30 H4        6.2450    -1.0260    -4.5740  H       1  <O>11       0.1550
  31 H5        7.9060    -3.1660    -8.2810  H       1  <O>11       0.1684
  32 H6        8.6457    -1.7163     3.2633  H       1  <O>11       0.0625
  33 H7        7.2067    -3.6549     3.0901  H       1  <O>11       0.0618
  34 H8        5.8496    -3.9840     1.1091  H       1  <O>11       0.0618
  35 H9        5.9402    -2.3797    -0.7009  H       1  <O>11       0.0624
  36 H10       9.6216    -2.2643    -3.8493  H       1  <O>11       0.0644
  37 H11      10.1188    -3.8851    -7.6970  H       1  <O>11       0.0813
@<TRIPOS>BOND
     1     1     2    2
     2     2     3    1
     3     3     4    1
     4     4     5   ar
     5     5     6   ar
     6     6     7   ar
     7     7     8    2
     8     7     9   ar
     9     9    10   ar
    10    10    11   ar
    11    11    12   ar
    12    12    13   ar
    13    13    14   ar
    14     4    14   ar
    15     9    14   ar
    16     2    15   am
    17    15    16    1
    18    16    17   ar
    19    17    18   ar
    20    18    19    1
    21    19    20    1
    22    19    21    1
    23    19    22    1
    24    18    23   ar
    25    23    24   ar
    26    24    25   ar
    27    16    25   ar
    28    25    26    2
    29     3    27    1
    30     3    28    1
    31     6    29    1
    32    15    30    1
    33    24    31    1
    34    10    32    1
    35    11    33    1
    36    12    34    1
    37    13    35    1
    38    17    36    1
    39    23    37    1
@<TRIPOS>MOLECULE
mol28_1_21
 37 39 0 0 0
SMALL
USER_CHARGES
****
VDW energy = -22.36
@<TRIPOS>ATOM
   1 O1        8.7381    -1.4068    -2.6744  O.2     1  <O>11      -0.2751
   2 C1        7.6234    -1.0459    -3.0216  C.2     1  <O>11       0.2232
   3 C2        6.7510    -0.2990    -2.0700  C.3     1  <O>11       0.0688
   4 C3        7.4590    -0.1250    -0.7860  C.ar    1  <O>11       0.0780
   5 N1        8.2092     1.0001    -0.6747  N.ar    1  <O>11      -0.1748
   6 N2        8.9699     1.1805     0.4285  N.ar    1  <O>11      -0.2425
   7 C4        8.9575     0.2366     1.3986  C.ar    1  <O>11       0.2725
   8 O2        9.8445     0.4380     2.4732  O.2     1  <O>11      -0.2658
   9 C5        8.1258    -0.8927     1.3798  C.ar    1  <O>11       0.0496
  10 C6        8.0677    -1.8485     2.4186  C.ar    1  <O>11      -0.0487
  11 C7        7.2409    -2.9685     2.3203  C.ar    1  <O>11      -0.0610
  12 C8        6.4634    -3.1576     1.1837  C.ar    1  <O>11      -0.0611
  13 C9        6.5139    -2.2287     0.1435  C.ar    1  <O>11      -0.0521
  14 C10       7.3393    -1.0836     0.2288  C.ar    1  <O>11       0.0108
  15 N3        7.1750    -1.3270    -4.2840  N.am    1  <O>11      -0.2809
  16 C11       7.9910    -2.0260    -5.1740  C.ar    1  <O>11       0.0991
  17 C12       9.2640    -2.4470    -4.8000  C.ar    1  <O>11      -0.0221
  18 C13      10.0490    -3.1240    -5.7420  C.ar    1  <O>11       0.0727
  19 C14      11.4140    -3.5650    -5.3960  C.3     1  <O>11       0.4188
  20 F1       12.3147    -2.5653    -5.7100  F       1  <O>11      -0.1658
  21 F2       11.7246    -4.7056    -6.1107  F       1  <O>11      -0.1658
  22 F3       11.4812    -3.8371    -4.0443  F       1  <O>11      -0.1658
  23 C15       9.5350    -3.3800    -7.0120  C.ar    1  <O>11       0.0167
  24 N4        8.3020    -2.9880    -7.3690  N.ar    1  <O>11      -0.3270
  25 C16       7.5580    -2.3240    -6.4590  C.ar    1  <O>11       0.2701
  26 O3        6.2740    -1.9250    -6.8770  O.2     1  <O>11      -0.2659
  27 H1        6.5110     0.6790    -2.4880  H       1  <O>11       0.0423
  28 H2        5.8310    -0.8590    -1.9040  H       1  <O>11       0.0423
  29 H3        9.5407     2.0084     0.5251  H       1  <O>11       0.1921
  30 H4        6.2450    -1.0260    -4.5740  H       1  <O>11       0.1550
  31 H5        7.9060    -3.1660    -8.2810  H       1  <O>11       0.1684
  32 H6        8.6457    -1.7163     3.2633  H       1  <O>11       0.0625
  33 H7        7.2067    -3.6549     3.0901  H       1  <O>11       0.0618
  34 H8        5.8496    -3.9840     1.1091  H       1  <O>11       0.0618
  35 H9        5.9402    -2.3797    -0.7009  H       1  <O>11       0.0624
  36 H10       9.6216    -2.2643    -3.8493  H       1  <O>11       0.0644
  37 H11      10.1188    -3.8851    -7.6970  H       1  <O>11       0.0813
@<TRIPOS>BOND
     1     1     2    2
     2     2     3    1
     3     3     4    1
     4     4     5   ar
     5     5     6   ar
     6     6     7   ar
     7     7     8    2
     8     7     9   ar
     9     9    10   ar
    10    10    11   ar
    11    11    12   ar
    12    12    13   ar
    13    13    14   ar
    14     4    14   ar
    15     9    14   ar
    16     2    15   am
    17    15    16    1
    18    16    17   ar
    19    17    18   ar
    20    18    19    1
    21    19    20    1
    22    19    21    1
    23    19    22    1
    24    18    23   ar
    25    23    24   ar
    26    24    25   ar
    27    16    25   ar
    28    25    26    2
    29     3    27    1
    30     3    28    1
    31     6    29    1
    32    15    30    1
    33    24    31    1
    34    10    32    1
    35    11    33    1
    36    12    34    1
    37    13    35    1
    38    17    36    1
    39    23    37    1
@<TRIPOS>MOLECULE
mol28_1_22
 37 39 0 0 0
SMALL
USER_CHARGES
****
VDW energy = -19.40
@<TRIPOS>ATOM
   1 O1        8.7381    -1.4068    -2.6744  O.2     1  <O>11      -0.2751
   2 C1        7.6234    -1.0459    -3.0216  C.2     1  <O>11       0.2232
   3 C2        6.7510    -0.2990    -2.0700  C.3     1  <O>11       0.0688
   4 C3        5.3571    -0.7653    -2.2104  C.ar    1  <O>11       0.0780
   5 N1        5.0007    -1.8049    -1.4145  N.ar    1  <O>11      -0.1748
   6 N2        3.7747    -2.3567    -1.5580  N.ar    1  <O>11      -0.2425
   7 C4        2.9301    -1.8523    -2.4877  C.ar    1  <O>11       0.2725
   8 O2        1.7090    -2.5334    -2.6530  O.2     1  <O>11      -0.2658
   9 C5        3.2096    -0.7182    -3.2643  C.ar    1  <O>11       0.0496
  10 C6        2.3064    -0.1543    -4.1929  C.ar    1  <O>11      -0.0487
  11 C7        2.6620     0.9570    -4.9585  C.ar    1  <O>11      -0.0610
  12 C8        3.9246     1.5208    -4.8159  C.ar    1  <O>11      -0.0611
  13 C9        4.8333     0.9725    -3.9098  C.ar    1  <O>11      -0.0521
  14 C10       4.4879    -0.1482    -3.1196  C.ar    1  <O>11       0.0108
  15 N3        7.1750    -1.3270    -4.2840  N.am    1  <O>11      -0.2809
  16 C11       7.9910    -2.0260    -5.1740  C.ar    1  <O>11       0.0991
  17 C12       9.2640    -2.4470    -4.8000  C.ar    1  <O>11      -0.0221
  18 C13      10.0490    -3.1240    -5.7420  C.ar    1  <O>11       0.0727
  19 C14      11.4140    -3.5650    -5.3960  C.3     1  <O>11       0.4188
  20 F1       12.3147    -2.5653    -5.7100  F       1  <O>11      -0.1658
  21 F2       11.7246    -4.7056    -6.1107  F       1  <O>11      -0.1658
  22 F3       11.4812    -3.8371    -4.0443  F       1  <O>11      -0.1658
  23 C15       9.5350    -3.3800    -7.0120  C.ar    1  <O>11       0.0167
  24 N4        8.3020    -2.9880    -7.3690  N.ar    1  <O>11      -0.3270
  25 C16       7.5580    -2.3240    -6.4590  C.ar    1  <O>11       0.2701
  26 O3        6.2740    -1.9250    -6.8770  O.2     1  <O>11      -0.2659
  27 H1        7.0920    -0.4752    -1.0495  H       1  <O>11       0.0423
  28 H2        6.8009     0.7669    -2.2910  H       1  <O>11       0.0423
  29 H3        3.4950    -3.1363    -0.9795  H       1  <O>11       0.1921
  30 H4        6.2450    -1.0260    -4.5740  H       1  <O>11       0.1550
  31 H5        7.9060    -3.1660    -8.2810  H       1  <O>11       0.1684
  32 H6        1.3691    -0.5708    -4.3068  H       1  <O>11       0.0625
  33 H7        1.9889     1.3595    -5.6292  H       1  <O>11       0.0618
  34 H8        4.1895     2.3439    -5.3794  H       1  <O>11       0.0618
  35 H9        5.7717     1.3912    -3.8151  H       1  <O>11       0.0624
  36 H10       9.6216    -2.2643    -3.8493  H       1  <O>11       0.0644
  37 H11      10.1188    -3.8851    -7.6970  H       1  <O>11       0.0813
@<TRIPOS>BOND
     1     1     2    2
     2     2     3    1
     3     3     4    1
     4     4     5   ar
     5     5     6   ar
     6     6     7   ar
     7     7     8    2
     8     7     9   ar
     9     9    10   ar
    10    10    11   ar
    11    11    12   ar
    12    12    13   ar
    13    13    14   ar
    14     4    14   ar
    15     9    14   ar
    16     2    15   am
    17    15    16    1
    18    16    17   ar
    19    17    18   ar
    20    18    19    1
    21    19    20    1
    22    19    21    1
    23    19    22    1
    24    18    23   ar
    25    23    24   ar
    26    24    25   ar
    27    16    25   ar
    28    25    26    2
    29     3    27    1
    30     3    28    1
    31     6    29    1
    32    15    30    1
    33    24    31    1
    34    10    32    1
    35    11    33    1
    36    12    34    1
    37    13    35    1
    38    17    36    1
    39    23    37    1
@<TRIPOS>MOLECULE
mol28_1_23
 37 39 0 0 0
SMALL
USER_CHARGES
****
VDW energy = -18.16
@<TRIPOS>ATOM
   1 O1        8.7381    -1.4068    -2.6744  O.2     1  <O>11      -0.2751
   2 C1        7.6234    -1.0459    -3.0216  C.2     1  <O>11       0.2232
   3 C2        6.7510    -0.2990    -2.0700  C.3     1  <O>11       0.0688
   4 C3        7.4590    -0.1250    -0.7860  C.ar    1  <O>11       0.0780
   5 N1        7.6639     1.1582    -0.3954  N.ar    1  <O>11      -0.1748
   6 N2        8.3957     1.4019     0.7151  N.ar    1  <O>11      -0.2425
   7 C4        8.8992     0.3580     1.4143  C.ar    1  <O>11       0.2725
   8 O2        9.7320     0.6822     2.5022  O.2     1  <O>11      -0.2658
   9 C5        8.6336    -0.9858     1.1124  C.ar    1  <O>11       0.0496
  10 C6        9.1091    -2.0758     1.8752  C.ar    1  <O>11      -0.0487
  11 C7        8.8347    -3.3914     1.4988  C.ar    1  <O>11      -0.0610
  12 C8        8.0878    -3.6426     0.3537  C.ar    1  <O>11      -0.0611
  13 C9        7.6169    -2.5789    -0.4172  C.ar    1  <O>11      -0.0521
  14 C10       7.8777    -1.2393    -0.0470  C.ar    1  <O>11       0.0108
  15 N3        7.1750    -1.3270    -4.2840  N.am    1  <O>11      -0.2809
  16 C11       7.9910    -2.0260    -5.1740  C.ar    1  <O>11       0.0991
  17 C12       9.2640    -2.4470    -4.8000  C.ar    1  <O>11      -0.0221
  18 C13      10.0490    -3.1240    -5.7420  C.ar    1  <O>11       0.0727
  19 C14      11.4140    -3.5650    -5.3960  C.3     1  <O>11       0.4188
  20 F1       12.1809    -2.4669    -5.0565  F       1  <O>11      -0.1658
  21 F2       11.9806    -4.2042    -6.4817  F       1  <O>11      -0.1658
  22 F3       11.3592    -4.4364    -4.3267  F       1  <O>11      -0.1658
  23 C15       9.5350    -3.3800    -7.0120  C.ar    1  <O>11       0.0167
  24 N4        8.3020    -2.9880    -7.3690  N.ar    1  <O>11      -0.3270
  25 C16       7.5580    -2.3240    -6.4590  C.ar    1  <O>11       0.2701
  26 O3        6.2740    -1.9250    -6.8770  O.2     1  <O>11      -0.2659
  27 H1        6.5110     0.6790    -2.4880  H       1  <O>11       0.0423
  28 H2        5.8310    -0.8590    -1.9040  H       1  <O>11       0.0423
  29 H3        8.5650     2.3511     1.0166  H       1  <O>11       0.1921
  30 H4        6.2450    -1.0260    -4.5740  H       1  <O>11       0.1550
  31 H5        7.9060    -3.1660    -8.2810  H       1  <O>11       0.1684
  32 H6        9.6679    -1.8963     2.7240  H       1  <O>11       0.0625
  33 H7        9.1858    -4.1762     2.0695  H       1  <O>11       0.0618
  34 H8        7.8818    -4.6144     0.0740  H       1  <O>11       0.0618
  35 H9        7.0699    -2.7729    -1.2706  H       1  <O>11       0.0624
  36 H10       9.6216    -2.2643    -3.8493  H       1  <O>11       0.0644
  37 H11      10.1188    -3.8851    -7.6970  H       1  <O>11       0.0813
@<TRIPOS>BOND
     1     1     2    2
     2     2     3    1
     3     3     4    1
     4     4     5   ar
     5     5     6   ar
     6     6     7   ar
     7     7     8    2
     8     7     9   ar
     9     9    10   ar
    10    10    11   ar
    11    11    12   ar
    12    12    13   ar
    13    13    14   ar
    14     4    14   ar
    15     9    14   ar
    16     2    15   am
    17    15    16    1
    18    16    17   ar
    19    17    18   ar
    20    18    19    1
    21    19    20    1
    22    19    21    1
    23    19    22    1
    24    18    23   ar
    25    23    24   ar
    26    24    25   ar
    27    16    25   ar
    28    25    26    2
    29     3    27    1
    30     3    28    1
    31     6    29    1
    32    15    30    1
    33    24    31    1
    34    10    32    1
    35    11    33    1
    36    12    34    1
    37    13    35    1
    38    17    36    1
    39    23    37    1
@<TRIPOS>MOLECULE
mol28_1_24
 37 39 0 0 0
SMALL
USER_CHARGES
****
VDW energy = -18.16
@<TRIPOS>ATOM
   1 O1        8.7381    -1.4068    -2.6744  O.2     1  <O>11      -0.2751
   2 C1        7.6234    -1.0459    -3.0216  C.2     1  <O>11       0.2232
   3 C2        6.7510    -0.2990    -2.0700  C.3     1  <O>11       0.0688
   4 C3        7.4590    -0.1250    -0.7860  C.ar    1  <O>11       0.0780
   5 N1        7.6639     1.1582    -0.3954  N.ar    1  <O>11      -0.1748
   6 N2        8.3957     1.4019     0.7151  N.ar    1  <O>11      -0.2425
   7 C4        8.8992     0.3580     1.4143  C.ar    1  <O>11       0.2725
   8 O2        9.7320     0.6822     2.5022  O.2     1  <O>11      -0.2658
   9 C5        8.6336    -0.9858     1.1124  C.ar    1  <O>11       0.0496
  10 C6        9.1091    -2.0758     1.8752  C.ar    1  <O>11      -0.0487
  11 C7        8.8347    -3.3914     1.4988  C.ar    1  <O>11      -0.0610
  12 C8        8.0878    -3.6426     0.3537  C.ar    1  <O>11      -0.0611
  13 C9        7.6169    -2.5789    -0.4172  C.ar    1  <O>11      -0.0521
  14 C10       7.8777    -1.2393    -0.0470  C.ar    1  <O>11       0.0108
  15 N3        7.1750    -1.3270    -4.2840  N.am    1  <O>11      -0.2809
  16 C11       7.9910    -2.0260    -5.1740  C.ar    1  <O>11       0.0991
  17 C12       9.2640    -2.4470    -4.8000  C.ar    1  <O>11      -0.0221
  18 C13      10.0490    -3.1240    -5.7420  C.ar    1  <O>11       0.0727
  19 C14      11.4140    -3.5650    -5.3960  C.3     1  <O>11       0.4188
  20 F1       11.9810    -4.2040    -6.4820  F       1  <O>11      -0.1658
  21 F2       11.3590    -4.4370    -4.3260  F       1  <O>11      -0.1658
  22 F3       12.1800    -2.4680    -5.0560  F       1  <O>11      -0.1658
  23 C15       9.5350    -3.3800    -7.0120  C.ar    1  <O>11       0.0167
  24 N4        8.3020    -2.9880    -7.3690  N.ar    1  <O>11      -0.3270
  25 C16       7.5580    -2.3240    -6.4590  C.ar    1  <O>11       0.2701
  26 O3        6.2740    -1.9250    -6.8770  O.2     1  <O>11      -0.2659
  27 H1        6.5110     0.6790    -2.4880  H       1  <O>11       0.0423
  28 H2        5.8310    -0.8590    -1.9040  H       1  <O>11       0.0423
  29 H3        8.5650     2.3511     1.0166  H       1  <O>11       0.1921
  30 H4        6.2450    -1.0260    -4.5740  H       1  <O>11       0.1550
  31 H5        7.9060    -3.1660    -8.2810  H       1  <O>11       0.1684
  32 H6        9.6679    -1.8963     2.7240  H       1  <O>11       0.0625
  33 H7        9.1858    -4.1762     2.0695  H       1  <O>11       0.0618
  34 H8        7.8818    -4.6144     0.0740  H       1  <O>11       0.0618
  35 H9        7.0699    -2.7729    -1.2706  H       1  <O>11       0.0624
  36 H10       9.6216    -2.2643    -3.8493  H       1  <O>11       0.0644
  37 H11      10.1188    -3.8851    -7.6970  H       1  <O>11       0.0813
@<TRIPOS>BOND
     1     1     2    2
     2     2     3    1
     3     3     4    1
     4     4     5   ar
     5     5     6   ar
     6     6     7   ar
     7     7     8    2
     8     7     9   ar
     9     9    10   ar
    10    10    11   ar
    11    11    12   ar
    12    12    13   ar
    13    13    14   ar
    14     4    14   ar
    15     9    14   ar
    16     2    15   am
    17    15    16    1
    18    16    17   ar
    19    17    18   ar
    20    18    19    1
    21    19    20    1
    22    19    21    1
    23    19    22    1
    24    18    23   ar
    25    23    24   ar
    26    24    25   ar
    27    16    25   ar
    28    25    26    2
    29     3    27    1
    30     3    28    1
    31     6    29    1
    32    15    30    1
    33    24    31    1
    34    10    32    1
    35    11    33    1
    36    12    34    1
    37    13    35    1
    38    17    36    1
    39    23    37    1
@<TRIPOS>MOLECULE
mol28_1_25
 37 39 0 0 0
SMALL
USER_CHARGES
****
VDW energy = -18.11
@<TRIPOS>ATOM
   1 O1        8.7381    -1.4068    -2.6744  O.2     1  <O>11      -0.2751
   2 C1        7.6234    -1.0459    -3.0216  C.2     1  <O>11       0.2232
   3 C2        6.7510    -0.2990    -2.0700  C.3     1  <O>11       0.0688
   4 C3        7.4590    -0.1250    -0.7860  C.ar    1  <O>11       0.0780
   5 N1        7.6639     1.1582    -0.3954  N.ar    1  <O>11      -0.1748
   6 N2        8.3957     1.4019     0.7151  N.ar    1  <O>11      -0.2425
   7 C4        8.8992     0.3580     1.4143  C.ar    1  <O>11       0.2725
   8 O2        9.7320     0.6822     2.5022  O.2     1  <O>11      -0.2658
   9 C5        8.6336    -0.9858     1.1124  C.ar    1  <O>11       0.0496
  10 C6        9.1091    -2.0758     1.8752  C.ar    1  <O>11      -0.0487
  11 C7        8.8347    -3.3914     1.4988  C.ar    1  <O>11      -0.0610
  12 C8        8.0878    -3.6426     0.3537  C.ar    1  <O>11      -0.0611
  13 C9        7.6169    -2.5789    -0.4172  C.ar    1  <O>11      -0.0521
  14 C10       7.8777    -1.2393    -0.0470  C.ar    1  <O>11       0.0108
  15 N3        7.1750    -1.3270    -4.2840  N.am    1  <O>11      -0.2809
  16 C11       7.9910    -2.0260    -5.1740  C.ar    1  <O>11       0.0991
  17 C12       9.2640    -2.4470    -4.8000  C.ar    1  <O>11      -0.0221
  18 C13      10.0490    -3.1240    -5.7420  C.ar    1  <O>11       0.0727
  19 C14      11.4140    -3.5650    -5.3960  C.3     1  <O>11       0.4188
  20 F1       12.3147    -2.5653    -5.7100  F       1  <O>11      -0.1658
  21 F2       11.7246    -4.7056    -6.1107  F       1  <O>11      -0.1658
  22 F3       11.4812    -3.8371    -4.0443  F       1  <O>11      -0.1658
  23 C15       9.5350    -3.3800    -7.0120  C.ar    1  <O>11       0.0167
  24 N4        8.3020    -2.9880    -7.3690  N.ar    1  <O>11      -0.3270
  25 C16       7.5580    -2.3240    -6.4590  C.ar    1  <O>11       0.2701
  26 O3        6.2740    -1.9250    -6.8770  O.2     1  <O>11      -0.2659
  27 H1        6.5110     0.6790    -2.4880  H       1  <O>11       0.0423
  28 H2        5.8310    -0.8590    -1.9040  H       1  <O>11       0.0423
  29 H3        8.5650     2.3511     1.0166  H       1  <O>11       0.1921
  30 H4        6.2450    -1.0260    -4.5740  H       1  <O>11       0.1550
  31 H5        7.9060    -3.1660    -8.2810  H       1  <O>11       0.1684
  32 H6        9.6679    -1.8963     2.7240  H       1  <O>11       0.0625
  33 H7        9.1858    -4.1762     2.0695  H       1  <O>11       0.0618
  34 H8        7.8818    -4.6144     0.0740  H       1  <O>11       0.0618
  35 H9        7.0699    -2.7729    -1.2706  H       1  <O>11       0.0624
  36 H10       9.6216    -2.2643    -3.8493  H       1  <O>11       0.0644
  37 H11      10.1188    -3.8851    -7.6970  H       1  <O>11       0.0813
@<TRIPOS>BOND
     1     1     2    2
     2     2     3    1
     3     3     4    1
     4     4     5   ar
     5     5     6   ar
     6     6     7   ar
     7     7     8    2
     8     7     9   ar
     9     9    10   ar
    10    10    11   ar
    11    11    12   ar
    12    12    13   ar
    13    13    14   ar
    14     4    14   ar
    15     9    14   ar
    16     2    15   am
    17    15    16    1
    18    16    17   ar
    19    17    18   ar
    20    18    19    1
    21    19    20    1
    22    19    21    1
    23    19    22    1
    24    18    23   ar
    25    23    24   ar
    26    24    25   ar
    27    16    25   ar
    28    25    26    2
    29     3    27    1
    30     3    28    1
    31     6    29    1
    32    15    30    1
    33    24    31    1
    34    10    32    1
    35    11    33    1
    36    12    34    1
    37    13    35    1
    38    17    36    1
    39    23    37    1
@<TRIPOS>MOLECULE
mol28_1_26
 37 39 0 0 0
SMALL
USER_CHARGES
****
VDW energy = -15.98
@<TRIPOS>ATOM
   1 O1        8.7381    -1.4068    -2.6744  O.2     1  <O>11      -0.2751
   2 C1        7.6234    -1.0459    -3.0216  C.2     1  <O>11       0.2232
   3 C2        6.7510    -0.2990    -2.0700  C.3     1  <O>11       0.0688
   4 C3        7.4590    -0.1250    -0.7860  C.ar    1  <O>11       0.0780
   5 N1        6.8538    -0.6703     0.2991  N.ar    1  <O>11      -0.1748
   6 N2        7.3853    -0.4644     1.5252  N.ar    1  <O>11      -0.2425
   7 C4        8.5136     0.2748     1.6382  C.ar    1  <O>11       0.2725
   8 O2        8.9591     0.5326     2.9486  O.2     1  <O>11      -0.2658
   9 C5        9.2332     0.7751     0.5432  C.ar    1  <O>11       0.0496
  10 C6       10.4429     1.4963     0.6557  C.ar    1  <O>11      -0.0487
  11 C7       11.0908     1.9952    -0.4752  C.ar    1  <O>11      -0.0610
  12 C8       10.5415     1.7893    -1.7354  C.ar    1  <O>11      -0.0611
  13 C9        9.3428     1.0866    -1.8657  C.ar    1  <O>11      -0.0521
  14 C10       8.6764     0.5665    -0.7321  C.ar    1  <O>11       0.0108
  15 N3        7.1750    -1.3270    -4.2840  N.am    1  <O>11      -0.2809
  16 C11       7.9910    -2.0260    -5.1740  C.ar    1  <O>11       0.0991
  17 C12       9.2640    -2.4470    -4.8000  C.ar    1  <O>11      -0.0221
  18 C13      10.0490    -3.1240    -5.7420  C.ar    1  <O>11       0.0727
  19 C14      11.4140    -3.5650    -5.3960  C.3     1  <O>11       0.4188
  20 F1       11.9810    -4.2040    -6.4820  F       1  <O>11      -0.1658
  21 F2       11.3590    -4.4370    -4.3260  F       1  <O>11      -0.1658
  22 F3       12.1800    -2.4680    -5.0560  F       1  <O>11      -0.1658
  23 C15       9.5350    -3.3800    -7.0120  C.ar    1  <O>11       0.0167
  24 N4        8.3020    -2.9880    -7.3690  N.ar    1  <O>11      -0.3270
  25 C16       7.5580    -2.3240    -6.4590  C.ar    1  <O>11       0.2701
  26 O3        6.2740    -1.9250    -6.8770  O.2     1  <O>11      -0.2659
  27 H1        6.5110     0.6790    -2.4880  H       1  <O>11       0.0423
  28 H2        5.8310    -0.8590    -1.9040  H       1  <O>11       0.0423
  29 H3        6.9440    -0.8563     2.3451  H       1  <O>11       0.1921
  30 H4        6.2450    -1.0260    -4.5740  H       1  <O>11       0.1550
  31 H5        7.9060    -3.1660    -8.2810  H       1  <O>11       0.1684
  32 H6       10.8538     1.6565     1.5887  H       1  <O>11       0.0625
  33 H7       11.9761     2.5162    -0.3760  H       1  <O>11       0.0618
  34 H8       11.0195     2.1555    -2.5735  H       1  <O>11       0.0618
  35 H9        8.9365     0.9445    -2.8036  H       1  <O>11       0.0624
  36 H10       9.6216    -2.2643    -3.8493  H       1  <O>11       0.0644
  37 H11      10.1188    -3.8851    -7.6970  H       1  <O>11       0.0813
@<TRIPOS>BOND
     1     1     2    2
     2     2     3    1
     3     3     4    1
     4     4     5   ar
     5     5     6   ar
     6     6     7   ar
     7     7     8    2
     8     7     9   ar
     9     9    10   ar
    10    10    11   ar
    11    11    12   ar
    12    12    13   ar
    13    13    14   ar
    14     4    14   ar
    15     9    14   ar
    16     2    15   am
    17    15    16    1
    18    16    17   ar
    19    17    18   ar
    20    18    19    1
    21    19    20    1
    22    19    21    1
    23    19    22    1
    24    18    23   ar
    25    23    24   ar
    26    24    25   ar
    27    16    25   ar
    28    25    26    2
    29     3    27    1
    30     3    28    1
    31     6    29    1
    32    15    30    1
    33    24    31    1
    34    10    32    1
    35    11    33    1
    36    12    34    1
    37    13    35    1
    38    17    36    1
    39    23    37    1
@<TRIPOS>MOLECULE
mol28_1_27
 37 39 0 0 0
SMALL
USER_CHARGES
****
VDW energy = -8.06
@<TRIPOS>ATOM
   1 O1        8.7381    -1.4068    -2.6744  O.2     1  <O>11      -0.2751
   2 C1        7.6234    -1.0459    -3.0216  C.2     1  <O>11       0.2232
   3 C2        6.7510    -0.2990    -2.0700  C.3     1  <O>11       0.0688
   4 C3        7.4590    -0.1250    -0.7860  C.ar    1  <O>11       0.0780
   5 N1        8.7070    -0.6540    -0.7250  N.ar    1  <O>11      -0.1748
   6 N2        9.3790    -0.6280     0.4480  N.ar    1  <O>11      -0.2425
   7 C4        8.7920    -0.0670     1.5310  C.ar    1  <O>11       0.2725
   8 O2        9.5040    -0.1600     2.7420  O.2     1  <O>11      -0.2658
   9 C5        7.5490     0.5820     1.4980  C.ar    1  <O>11       0.0496
  10 C6        6.9610     1.2200     2.6130  C.ar    1  <O>11      -0.0487
  11 C7        5.7040     1.8190     2.5190  C.ar    1  <O>11      -0.0610
  12 C8        5.0100     1.7870     1.3150  C.ar    1  <O>11      -0.0611
  13 C9        5.5710     1.1540     0.2050  C.ar    1  <O>11      -0.0521
  14 C10       6.8470     0.5490     0.2790  C.ar    1  <O>11       0.0108
  15 N3        7.1750    -1.3270    -4.2840  N.am    1  <O>11      -0.2809
  16 C11       7.9910    -2.0260    -5.1740  C.ar    1  <O>11       0.0991
  17 C12       9.2640    -2.4470    -4.8000  C.ar    1  <O>11      -0.0221
  18 C13      10.0490    -3.1240    -5.7420  C.ar    1  <O>11       0.0727
  19 C14      11.4140    -3.5650    -5.3960  C.3     1  <O>11       0.4188
  20 F1       12.1809    -2.4669    -5.0565  F       1  <O>11      -0.1658
  21 F2       11.9806    -4.2042    -6.4817  F       1  <O>11      -0.1658
  22 F3       11.3592    -4.4364    -4.3267  F       1  <O>11      -0.1658
  23 C15       9.5350    -3.3800    -7.0120  C.ar    1  <O>11       0.0167
  24 N4        8.3020    -2.9880    -7.3690  N.ar    1  <O>11      -0.3270
  25 C16       7.5580    -2.3240    -6.4590  C.ar    1  <O>11       0.2701
  26 O3        6.2740    -1.9250    -6.8770  O.2     1  <O>11      -0.2659
  27 H1        6.5110     0.6790    -2.4880  H       1  <O>11       0.0423
  28 H2        5.8310    -0.8590    -1.9040  H       1  <O>11       0.0423
  29 H3       10.3060    -1.0240     0.5140  H       1  <O>11       0.1921
  30 H4        6.2450    -1.0260    -4.5740  H       1  <O>11       0.1550
  31 H5        7.9060    -3.1660    -8.2810  H       1  <O>11       0.1684
  32 H6        7.4690     1.2435     3.5110  H       1  <O>11       0.0625
  33 H7        5.2905     2.2848     3.3418  H       1  <O>11       0.0618
  34 H8        4.0811     2.2308     1.2421  H       1  <O>11       0.0618
  35 H9        5.0466     1.1270    -0.6834  H       1  <O>11       0.0624
  36 H10       9.6216    -2.2643    -3.8493  H       1  <O>11       0.0644
  37 H11      10.1188    -3.8851    -7.6970  H       1  <O>11       0.0813
@<TRIPOS>BOND
     1     1     2    2
     2     2     3    1
     3     3     4    1
     4     4     5   ar
     5     5     6   ar
     6     6     7   ar
     7     7     8    2
     8     7     9   ar
     9     9    10   ar
    10    10    11   ar
    11    11    12   ar
    12    12    13   ar
    13    13    14   ar
    14     4    14   ar
    15     9    14   ar
    16     2    15   am
    17    15    16    1
    18    16    17   ar
    19    17    18   ar
    20    18    19    1
    21    19    20    1
    22    19    21    1
    23    19    22    1
    24    18    23   ar
    25    23    24   ar
    26    24    25   ar
    27    16    25   ar
    28    25    26    2
    29     3    27    1
    30     3    28    1
    31     6    29    1
    32    15    30    1
    33    24    31    1
    34    10    32    1
    35    11    33    1
    36    12    34    1
    37    13    35    1
    38    17    36    1
    39    23    37    1
@<TRIPOS>MOLECULE
mol28_1_28
 37 39 0 0 0
SMALL
USER_CHARGES
****
VDW energy = -8.06
@<TRIPOS>ATOM
   1 O1        8.7381    -1.4068    -2.6744  O.2     1  <O>11      -0.2751
   2 C1        7.6234    -1.0459    -3.0216  C.2     1  <O>11       0.2232
   3 C2        6.7510    -0.2990    -2.0700  C.3     1  <O>11       0.0688
   4 C3        7.4590    -0.1250    -0.7860  C.ar    1  <O>11       0.0780
   5 N1        8.7070    -0.6540    -0.7250  N.ar    1  <O>11      -0.1748
   6 N2        9.3790    -0.6280     0.4480  N.ar    1  <O>11      -0.2425
   7 C4        8.7920    -0.0670     1.5310  C.ar    1  <O>11       0.2725
   8 O2        9.5040    -0.1600     2.7420  O.2     1  <O>11      -0.2658
   9 C5        7.5490     0.5820     1.4980  C.ar    1  <O>11       0.0496
  10 C6        6.9610     1.2200     2.6130  C.ar    1  <O>11      -0.0487
  11 C7        5.7040     1.8190     2.5190  C.ar    1  <O>11      -0.0610
  12 C8        5.0100     1.7870     1.3150  C.ar    1  <O>11      -0.0611
  13 C9        5.5710     1.1540     0.2050  C.ar    1  <O>11      -0.0521
  14 C10       6.8470     0.5490     0.2790  C.ar    1  <O>11       0.0108
  15 N3        7.1750    -1.3270    -4.2840  N.am    1  <O>11      -0.2809
  16 C11       7.9910    -2.0260    -5.1740  C.ar    1  <O>11       0.0991
  17 C12       9.2640    -2.4470    -4.8000  C.ar    1  <O>11      -0.0221
  18 C13      10.0490    -3.1240    -5.7420  C.ar    1  <O>11       0.0727
  19 C14      11.4140    -3.5650    -5.3960  C.3     1  <O>11       0.4188
  20 F1       11.9810    -4.2040    -6.4820  F       1  <O>11      -0.1658
  21 F2       11.3590    -4.4370    -4.3260  F       1  <O>11      -0.1658
  22 F3       12.1800    -2.4680    -5.0560  F       1  <O>11      -0.1658
  23 C15       9.5350    -3.3800    -7.0120  C.ar    1  <O>11       0.0167
  24 N4        8.3020    -2.9880    -7.3690  N.ar    1  <O>11      -0.3270
  25 C16       7.5580    -2.3240    -6.4590  C.ar    1  <O>11       0.2701
  26 O3        6.2740    -1.9250    -6.8770  O.2     1  <O>11      -0.2659
  27 H1        6.5110     0.6790    -2.4880  H       1  <O>11       0.0423
  28 H2        5.8310    -0.8590    -1.9040  H       1  <O>11       0.0423
  29 H3       10.3060    -1.0240     0.5140  H       1  <O>11       0.1921
  30 H4        6.2450    -1.0260    -4.5740  H       1  <O>11       0.1550
  31 H5        7.9060    -3.1660    -8.2810  H       1  <O>11       0.1684
  32 H6        7.4690     1.2435     3.5110  H       1  <O>11       0.0625
  33 H7        5.2905     2.2848     3.3418  H       1  <O>11       0.0618
  34 H8        4.0811     2.2308     1.2421  H       1  <O>11       0.0618
  35 H9        5.0466     1.1270    -0.6834  H       1  <O>11       0.0624
  36 H10       9.6216    -2.2643    -3.8493  H       1  <O>11       0.0644
  37 H11      10.1188    -3.8851    -7.6970  H       1  <O>11       0.0813
@<TRIPOS>BOND
     1     1     2    2
     2     2     3    1
     3     3     4    1
     4     4     5   ar
     5     5     6   ar
     6     6     7   ar
     7     7     8    2
     8     7     9   ar
     9     9    10   ar
    10    10    11   ar
    11    11    12   ar
    12    12    13   ar
    13    13    14   ar
    14     4    14   ar
    15     9    14   ar
    16     2    15   am
    17    15    16    1
    18    16    17   ar
    19    17    18   ar
    20    18    19    1
    21    19    20    1
    22    19    21    1
    23    19    22    1
    24    18    23   ar
    25    23    24   ar
    26    24    25   ar
    27    16    25   ar
    28    25    26    2
    29     3    27    1
    30     3    28    1
    31     6    29    1
    32    15    30    1
    33    24    31    1
    34    10    32    1
    35    11    33    1
    36    12    34    1
    37    13    35    1
    38    17    36    1
    39    23    37    1
@<TRIPOS>MOLECULE
mol28_1_29
 37 39 0 0 0
SMALL
USER_CHARGES
****
VDW energy = -8.06
@<TRIPOS>ATOM
   1 O1        8.7381    -1.4068    -2.6744  O.2     1  <O>11      -0.2751
   2 C1        7.6234    -1.0459    -3.0216  C.2     1  <O>11       0.2232
   3 C2        6.7510    -0.2990    -2.0700  C.3     1  <O>11       0.0688
   4 C3        7.4590    -0.1250    -0.7860  C.ar    1  <O>11       0.0780
   5 N1        8.7070    -0.6540    -0.7250  N.ar    1  <O>11      -0.1748
   6 N2        9.3790    -0.6280     0.4480  N.ar    1  <O>11      -0.2425
   7 C4        8.7920    -0.0670     1.5310  C.ar    1  <O>11       0.2725
   8 O2        9.5040    -0.1600     2.7420  O.2     1  <O>11      -0.2658
   9 C5        7.5490     0.5820     1.4980  C.ar    1  <O>11       0.0496
  10 C6        6.9610     1.2200     2.6130  C.ar    1  <O>11      -0.0487
  11 C7        5.7040     1.8190     2.5190  C.ar    1  <O>11      -0.0610
  12 C8        5.0100     1.7870     1.3150  C.ar    1  <O>11      -0.0611
  13 C9        5.5710     1.1540     0.2050  C.ar    1  <O>11      -0.0521
  14 C10       6.8470     0.5490     0.2790  C.ar    1  <O>11       0.0108
  15 N3        7.1750    -1.3270    -4.2840  N.am    1  <O>11      -0.2809
  16 C11       7.9910    -2.0260    -5.1740  C.ar    1  <O>11       0.0991
  17 C12       9.2640    -2.4470    -4.8000  C.ar    1  <O>11      -0.0221
  18 C13      10.0490    -3.1240    -5.7420  C.ar    1  <O>11       0.0727
  19 C14      11.4140    -3.5650    -5.3960  C.3     1  <O>11       0.4188
  20 F1       11.3591    -4.4369    -4.3255  F       1  <O>11      -0.1658
  21 F2       12.1806    -2.4671    -5.0566  F       1  <O>11      -0.1658
  22 F3       11.9805    -4.2035    -6.4810  F       1  <O>11      -0.1658
  23 C15       9.5350    -3.3800    -7.0120  C.ar    1  <O>11       0.0167
  24 N4        8.3020    -2.9880    -7.3690  N.ar    1  <O>11      -0.3270
  25 C16       7.5580    -2.3240    -6.4590  C.ar    1  <O>11       0.2701
  26 O3        6.2740    -1.9250    -6.8770  O.2     1  <O>11      -0.2659
  27 H1        6.5110     0.6790    -2.4880  H       1  <O>11       0.0423
  28 H2        5.8310    -0.8590    -1.9040  H       1  <O>11       0.0423
  29 H3       10.3060    -1.0240     0.5140  H       1  <O>11       0.1921
  30 H4        6.2450    -1.0260    -4.5740  H       1  <O>11       0.1550
  31 H5        7.9060    -3.1660    -8.2810  H       1  <O>11       0.1684
  32 H6        7.4690     1.2435     3.5110  H       1  <O>11       0.0625
  33 H7        5.2905     2.2848     3.3418  H       1  <O>11       0.0618
  34 H8        4.0811     2.2308     1.2421  H       1  <O>11       0.0618
  35 H9        5.0466     1.1270    -0.6834  H       1  <O>11       0.0624
  36 H10       9.6216    -2.2643    -3.8493  H       1  <O>11       0.0644
  37 H11      10.1188    -3.8851    -7.6970  H       1  <O>11       0.0813
@<TRIPOS>BOND
     1     1     2    2
     2     2     3    1
     3     3     4    1
     4     4     5   ar
     5     5     6   ar
     6     6     7   ar
     7     7     8    2
     8     7     9   ar
     9     9    10   ar
    10    10    11   ar
    11    11    12   ar
    12    12    13   ar
    13    13    14   ar
    14     4    14   ar
    15     9    14   ar
    16     2    15   am
    17    15    16    1
    18    16    17   ar
    19    17    18   ar
    20    18    19    1
    21    19    20    1
    22    19    21    1
    23    19    22    1
    24    18    23   ar
    25    23    24   ar
    26    24    25   ar
    27    16    25   ar
    28    25    26    2
    29     3    27    1
    30     3    28    1
    31     6    29    1
    32    15    30    1
    33    24    31    1
    34    10    32    1
    35    11    33    1
    36    12    34    1
    37    13    35    1
    38    17    36    1
    39    23    37    1
@<TRIPOS>MOLECULE
mol28_1_30
 37 39 0 0 0
SMALL
USER_CHARGES
****
VDW energy = -8.04
@<TRIPOS>ATOM
   1 O1        8.7381    -1.4068    -2.6744  O.2     1  <O>11      -0.2751
   2 C1        7.6234    -1.0459    -3.0216  C.2     1  <O>11       0.2232
   3 C2        6.7510    -0.2990    -2.0700  C.3     1  <O>11       0.0688
   4 C3        7.4590    -0.1250    -0.7860  C.ar    1  <O>11       0.0780
   5 N1        8.7070    -0.6540    -0.7250  N.ar    1  <O>11      -0.1748
   6 N2        9.3790    -0.6280     0.4480  N.ar    1  <O>11      -0.2425
   7 C4        8.7920    -0.0670     1.5310  C.ar    1  <O>11       0.2725
   8 O2        9.5040    -0.1600     2.7420  O.2     1  <O>11      -0.2658
   9 C5        7.5490     0.5820     1.4980  C.ar    1  <O>11       0.0496
  10 C6        6.9610     1.2200     2.6130  C.ar    1  <O>11      -0.0487
  11 C7        5.7040     1.8190     2.5190  C.ar    1  <O>11      -0.0610
  12 C8        5.0100     1.7870     1.3150  C.ar    1  <O>11      -0.0611
  13 C9        5.5710     1.1540     0.2050  C.ar    1  <O>11      -0.0521
  14 C10       6.8470     0.5490     0.2790  C.ar    1  <O>11       0.0108
  15 N3        7.1750    -1.3270    -4.2840  N.am    1  <O>11      -0.2809
  16 C11       7.9910    -2.0260    -5.1740  C.ar    1  <O>11       0.0991
  17 C12       9.2640    -2.4470    -4.8000  C.ar    1  <O>11      -0.0221
  18 C13      10.0490    -3.1240    -5.7420  C.ar    1  <O>11       0.0727
  19 C14      11.4140    -3.5650    -5.3960  C.3     1  <O>11       0.4188
  20 F1       12.3147    -2.5653    -5.7100  F       1  <O>11      -0.1658
  21 F2       11.7246    -4.7056    -6.1107  F       1  <O>11      -0.1658
  22 F3       11.4812    -3.8371    -4.0443  F       1  <O>11      -0.1658
  23 C15       9.5350    -3.3800    -7.0120  C.ar    1  <O>11       0.0167
  24 N4        8.3020    -2.9880    -7.3690  N.ar    1  <O>11      -0.3270
  25 C16       7.5580    -2.3240    -6.4590  C.ar    1  <O>11       0.2701
  26 O3        6.2740    -1.9250    -6.8770  O.2     1  <O>11      -0.2659
  27 H1        6.5110     0.6790    -2.4880  H       1  <O>11       0.0423
  28 H2        5.8310    -0.8590    -1.9040  H       1  <O>11       0.0423
  29 H3       10.3060    -1.0240     0.5140  H       1  <O>11       0.1921
  30 H4        6.2450    -1.0260    -4.5740  H       1  <O>11       0.1550
  31 H5        7.9060    -3.1660    -8.2810  H       1  <O>11       0.1684
  32 H6        7.4690     1.2435     3.5110  H       1  <O>11       0.0625
  33 H7        5.2905     2.2848     3.3418  H       1  <O>11       0.0618
  34 H8        4.0811     2.2308     1.2421  H       1  <O>11       0.0618
  35 H9        5.0466     1.1270    -0.6834  H       1  <O>11       0.0624
  36 H10       9.6216    -2.2643    -3.8493  H       1  <O>11       0.0644
  37 H11      10.1188    -3.8851    -7.6970  H       1  <O>11       0.0813
@<TRIPOS>BOND
     1     1     2    2
     2     2     3    1
     3     3     4    1
     4     4     5   ar
     5     5     6   ar
     6     6     7   ar
     7     7     8    2
     8     7     9   ar
     9     9    10   ar
    10    10    11   ar
    11    11    12   ar
    12    12    13   ar
    13    13    14   ar
    14     4    14   ar
    15     9    14   ar
    16     2    15   am
    17    15    16    1
    18    16    17   ar
    19    17    18   ar
    20    18    19    1
    21    19    20    1
    22    19    21    1
    23    19    22    1
    24    18    23   ar
    25    23    24   ar
    26    24    25   ar
    27    16    25   ar
    28    25    26    2
    29     3    27    1
    30     3    28    1
    31     6    29    1
    32    15    30    1
    33    24    31    1
    34    10    32    1
    35    11    33    1
    36    12    34    1
    37    13    35    1
    38    17    36    1
    39    23    37    1
