@<TRIPOS>MOLECULE
mol33_1_1
 34 36 0 0 0
SMALL
USER_CHARGES
****
VDW energy = 48.09
@<TRIPOS>ATOM
   1 N1       -1.0416     2.9353    -0.6465  N.pl3   1  <O>11      -0.3510
   2 C1       -0.5730     1.5759    -0.5515  C.ar    1  <O>11       0.1323
   3 C2        0.6800     1.0694     0.1874  C.ar    1  <O>11       0.0701
   4 N2        1.7430     1.8830     0.7200  N.pl3   1  <O>11      -0.3117
   5 C3        2.8904     2.2099    -0.1063  C.ar    1  <O>11       0.0455
   6 C4        2.7820     2.1966    -1.5080  C.ar    1  <O>11      -0.0397
   7 C5        3.8922     2.4997    -2.3041  C.ar    1  <O>11      -0.0600
   8 C6        5.1158     2.8220    -1.7113  C.ar    1  <O>11      -0.0609
   9 C7        5.2209     2.8419    -0.3159  C.ar    1  <O>11      -0.0460
  10 C8        4.1198     2.5420     0.4868  C.ar    1  <O>11       0.0799
  11 C9        4.2277     2.5688     1.9297  C.2     1  <O>11       0.3386
  12 O1        3.9966     3.6015     2.5398  O.2     1  <O>11      -0.2451
  13 O2        4.5851     1.4489     2.6030  O.3     1  <O>11      -0.4771
  14 C10       0.7349    -0.4680     0.3350  C.ar    1  <O>11       0.0405
  15 C11       1.7678    -0.9460     1.3794  C.ar    1  <O>11      -0.0492
  16 C12       1.2888    -0.7731     2.8287  C.ar    1  <O>11      -0.0609
  17 C13      -0.0890    -1.4086     3.0474  C.ar    1  <O>11      -0.0582
  18 C14      -1.1225    -0.8741     2.0475  C.ar    1  <O>11      -0.0186
  19 C15      -0.6733    -1.0760     0.5906  C.ar    1  <O>11       0.1409
  20 O3       -1.7385    -0.5809    -0.2821  O.2     1  <O>11      -0.4208
  21 C16      -1.3512     0.4485    -1.2339  C.ar    1  <O>11       0.3601
  22 O4       -1.6242     0.4671    -2.6151  O.2     1  <O>11      -0.2430
  23 H1       -1.8920     3.1462    -1.1686  H       1  <O>11       0.1426
  24 H2       -0.5228     3.6865    -0.1916  H       1  <O>11       0.1426
  25 H3        1.6890     2.2303     1.6779  H       1  <O>11       0.1522
  26 H4        4.7331     0.7259     1.9741  H       1  <O>11       0.2954
  27 H5        1.8801     1.9625    -1.9515  H       1  <O>11       0.0636
  28 H6        3.8070     2.4852    -3.3324  H       1  <O>11       0.0618
  29 H7        5.9355     3.0437    -2.2978  H       1  <O>11       0.0618
  30 H8        6.1231     3.0810     0.1244  H       1  <O>11       0.0626
  31 H9        2.6873    -1.3418     1.1287  H       1  <O>11       0.0625
  32 H10       1.8277    -0.2892     3.5639  H       1  <O>11       0.0618
  33 H11      -0.2956    -2.1090     3.7767  H       1  <O>11       0.0619
  34 H12      -2.0139    -0.4314     2.3203  H       1  <O>11       0.0654
@<TRIPOS>BOND
     1     1     2    1
     2     2     3   ar
     3     3     4    1
     4     4     5    1
     5     5     6   ar
     6     6     7   ar
     7     7     8   ar
     8     8     9   ar
     9     9    10   ar
    10     5    10   ar
    11    10    11    1
    12    11    12    2
    13    11    13    1
    14     3    14   ar
    15    14    15   ar
    16    15    16   ar
    17    16    17   ar
    18    17    18   ar
    19    18    19   ar
    20    14    19   ar
    21    19    20   ar
    22    20    21   ar
    23     2    21   ar
    24    21    22    2
    25     1    23    1
    26     1    24    1
    27     4    25    1
    28    13    26    1
    29     6    27    1
    30     7    28    1
    31     8    29    1
    32     9    30    1
    33    15    31    1
    34    16    32    1
    35    17    33    1
    36    18    34    1
@<TRIPOS>MOLECULE
mol33_1_2
 34 36 0 0 0
SMALL
USER_CHARGES
****
VDW energy = 49.50
@<TRIPOS>ATOM
   1 N1       -1.0416     2.9353    -0.6465  N.pl3   1  <O>11      -0.3510
   2 C1       -0.5730     1.5759    -0.5515  C.ar    1  <O>11       0.1323
   3 C2        0.6800     1.0694     0.1874  C.ar    1  <O>11       0.0701
   4 N2        1.7430     1.8830     0.7200  N.pl3   1  <O>11      -0.3117
   5 C3        2.8904     2.2099    -0.1063  C.ar    1  <O>11       0.0455
   6 C4        2.7820     2.1966    -1.5080  C.ar    1  <O>11      -0.0397
   7 C5        3.8922     2.4997    -2.3041  C.ar    1  <O>11      -0.0600
   8 C6        5.1158     2.8220    -1.7113  C.ar    1  <O>11      -0.0609
   9 C7        5.2209     2.8419    -0.3159  C.ar    1  <O>11      -0.0460
  10 C8        4.1198     2.5420     0.4868  C.ar    1  <O>11       0.0799
  11 C9        4.2277     2.5688     1.9297  C.2     1  <O>11       0.3386
  12 O1        4.3560     3.6347     2.5123  O.2     1  <O>11      -0.2451
  13 O2        4.1865     1.4120     2.6335  O.3     1  <O>11      -0.4771
  14 C10       0.7349    -0.4680     0.3350  C.ar    1  <O>11       0.0405
  15 C11       1.7678    -0.9460     1.3794  C.ar    1  <O>11      -0.0492
  16 C12       1.2888    -0.7731     2.8287  C.ar    1  <O>11      -0.0609
  17 C13      -0.0890    -1.4086     3.0474  C.ar    1  <O>11      -0.0582
  18 C14      -1.1225    -0.8741     2.0475  C.ar    1  <O>11      -0.0186
  19 C15      -0.6733    -1.0760     0.5906  C.ar    1  <O>11       0.1409
  20 O3       -1.7385    -0.5809    -0.2821  O.2     1  <O>11      -0.4208
  21 C16      -1.3512     0.4485    -1.2339  C.ar    1  <O>11       0.3601
  22 O4       -1.6242     0.4671    -2.6151  O.2     1  <O>11      -0.2430
  23 H1       -1.8920     3.1462    -1.1686  H       1  <O>11       0.1426
  24 H2       -0.5228     3.6865    -0.1916  H       1  <O>11       0.1426
  25 H3        1.6890     2.2303     1.6779  H       1  <O>11       0.1522
  26 H4        4.0841     0.6651     2.0237  H       1  <O>11       0.2954
  27 H5        1.8801     1.9625    -1.9515  H       1  <O>11       0.0636
  28 H6        3.8070     2.4852    -3.3324  H       1  <O>11       0.0618
  29 H7        5.9355     3.0437    -2.2978  H       1  <O>11       0.0618
  30 H8        6.1231     3.0810     0.1244  H       1  <O>11       0.0626
  31 H9        2.6873    -1.3418     1.1287  H       1  <O>11       0.0625
  32 H10       1.8277    -0.2892     3.5639  H       1  <O>11       0.0618
  33 H11      -0.2956    -2.1090     3.7767  H       1  <O>11       0.0619
  34 H12      -2.0139    -0.4314     2.3203  H       1  <O>11       0.0654
@<TRIPOS>BOND
     1     1     2    1
     2     2     3   ar
     3     3     4    1
     4     4     5    1
     5     5     6   ar
     6     6     7   ar
     7     7     8   ar
     8     8     9   ar
     9     9    10   ar
    10     5    10   ar
    11    10    11    1
    12    11    12    2
    13    11    13    1
    14     3    14   ar
    15    14    15   ar
    16    15    16   ar
    17    16    17   ar
    18    17    18   ar
    19    18    19   ar
    20    14    19   ar
    21    19    20   ar
    22    20    21   ar
    23     2    21   ar
    24    21    22    2
    25     1    23    1
    26     1    24    1
    27     4    25    1
    28    13    26    1
    29     6    27    1
    30     7    28    1
    31     8    29    1
    32     9    30    1
    33    15    31    1
    34    16    32    1
    35    17    33    1
    36    18    34    1
@<TRIPOS>MOLECULE
mol33_1_3
 34 36 0 0 0
SMALL
USER_CHARGES
****
VDW energy = 49.92
@<TRIPOS>ATOM
   1 N1       -1.0416     2.9353    -0.6465  N.pl3   1  <O>11      -0.3510
   2 C1       -0.5730     1.5759    -0.5515  C.ar    1  <O>11       0.1323
   3 C2        0.6800     1.0694     0.1874  C.ar    1  <O>11       0.0701
   4 N2        1.7430     1.8830     0.7200  N.pl3   1  <O>11      -0.3117
   5 C3        2.8904     2.2099    -0.1063  C.ar    1  <O>11       0.0455
   6 C4        2.7820     2.1966    -1.5080  C.ar    1  <O>11      -0.0397
   7 C5        3.8922     2.4997    -2.3041  C.ar    1  <O>11      -0.0600
   8 C6        5.1158     2.8220    -1.7113  C.ar    1  <O>11      -0.0609
   9 C7        5.2209     2.8419    -0.3159  C.ar    1  <O>11      -0.0460
  10 C8        4.1198     2.5420     0.4868  C.ar    1  <O>11       0.0799
  11 C9        4.2277     2.5688     1.9297  C.2     1  <O>11       0.3386
  12 O1        4.5498     1.5588     2.5365  O.2     1  <O>11      -0.2451
  13 O2        3.9713     3.7139     2.6068  O.3     1  <O>11      -0.4771
  14 C10       0.7349    -0.4680     0.3350  C.ar    1  <O>11       0.0405
  15 C11       1.7678    -0.9460     1.3794  C.ar    1  <O>11      -0.0492
  16 C12       1.2888    -0.7731     2.8287  C.ar    1  <O>11      -0.0609
  17 C13      -0.0890    -1.4086     3.0474  C.ar    1  <O>11      -0.0582
  18 C14      -1.1225    -0.8741     2.0475  C.ar    1  <O>11      -0.0186
  19 C15      -0.6733    -1.0760     0.5906  C.ar    1  <O>11       0.1409
  20 O3       -1.7385    -0.5809    -0.2821  O.2     1  <O>11      -0.4208
  21 C16      -1.3512     0.4485    -1.2339  C.ar    1  <O>11       0.3601
  22 O4       -1.6242     0.4671    -2.6151  O.2     1  <O>11      -0.2430
  23 H1       -1.8920     3.1462    -1.1686  H       1  <O>11       0.1426
  24 H2       -0.5228     3.6865    -0.1916  H       1  <O>11       0.1426
  25 H3        1.6890     2.2303     1.6779  H       1  <O>11       0.1522
  26 H4        3.7294     4.4135     1.9805  H       1  <O>11       0.2954
  27 H5        1.8801     1.9625    -1.9515  H       1  <O>11       0.0636
  28 H6        3.8070     2.4852    -3.3324  H       1  <O>11       0.0618
  29 H7        5.9355     3.0437    -2.2978  H       1  <O>11       0.0618
  30 H8        6.1231     3.0810     0.1244  H       1  <O>11       0.0626
  31 H9        2.6873    -1.3418     1.1287  H       1  <O>11       0.0625
  32 H10       1.8277    -0.2892     3.5639  H       1  <O>11       0.0618
  33 H11      -0.2956    -2.1090     3.7767  H       1  <O>11       0.0619
  34 H12      -2.0139    -0.4314     2.3203  H       1  <O>11       0.0654
@<TRIPOS>BOND
     1     1     2    1
     2     2     3   ar
     3     3     4    1
     4     4     5    1
     5     5     6   ar
     6     6     7   ar
     7     7     8   ar
     8     8     9   ar
     9     9    10   ar
    10     5    10   ar
    11    10    11    1
    12    11    12    2
    13    11    13    1
    14     3    14   ar
    15    14    15   ar
    16    15    16   ar
    17    16    17   ar
    18    17    18   ar
    19    18    19   ar
    20    14    19   ar
    21    19    20   ar
    22    20    21   ar
    23     2    21   ar
    24    21    22    2
    25     1    23    1
    26     1    24    1
    27     4    25    1
    28    13    26    1
    29     6    27    1
    30     7    28    1
    31     8    29    1
    32     9    30    1
    33    15    31    1
    34    16    32    1
    35    17    33    1
    36    18    34    1
@<TRIPOS>MOLECULE
mol33_1_4
 34 36 0 0 0
SMALL
USER_CHARGES
****
VDW energy = 50.31
@<TRIPOS>ATOM
   1 N1       -1.0416     2.9353    -0.6465  N.pl3   1  <O>11      -0.3510
   2 C1       -0.5730     1.5759    -0.5515  C.ar    1  <O>11       0.1323
   3 C2        0.6800     1.0694     0.1874  C.ar    1  <O>11       0.0701
   4 N2        1.7430     1.8830     0.7200  N.pl3   1  <O>11      -0.3117
   5 C3        1.4795     2.7923     1.8199  C.ar    1  <O>11       0.0455
   6 C4        0.4014     2.5580     2.6914  C.ar    1  <O>11      -0.0397
   7 C5        0.1406     3.4421     3.7442  C.ar    1  <O>11      -0.0600
   8 C6        0.9526     4.5623     3.9395  C.ar    1  <O>11      -0.0609
   9 C7        2.0297     4.7910     3.0758  C.ar    1  <O>11      -0.0460
  10 C8        2.2988     3.9151     2.0236  C.ar    1  <O>11       0.0799
  11 C9        3.4166     4.1489     1.1347  C.2     1  <O>11       0.3386
  12 O1        4.5126     3.6766     1.3951  O.2     1  <O>11      -0.2451
  13 O2        3.2471     4.8915     0.0143  O.3     1  <O>11      -0.4771
  14 C10       0.7349    -0.4680     0.3350  C.ar    1  <O>11       0.0405
  15 C11       1.7678    -0.9460     1.3794  C.ar    1  <O>11      -0.0492
  16 C12       1.2888    -0.7731     2.8287  C.ar    1  <O>11      -0.0609
  17 C13      -0.0890    -1.4086     3.0474  C.ar    1  <O>11      -0.0582
  18 C14      -1.1225    -0.8741     2.0475  C.ar    1  <O>11      -0.0186
  19 C15      -0.6733    -1.0760     0.5906  C.ar    1  <O>11       0.1409
  20 O3       -1.7385    -0.5809    -0.2821  O.2     1  <O>11      -0.4208
  21 C16      -1.3512     0.4485    -1.2339  C.ar    1  <O>11       0.3601
  22 O4       -1.6242     0.4671    -2.6151  O.2     1  <O>11      -0.2430
  23 H1       -1.8920     3.1462    -1.1686  H       1  <O>11       0.1426
  24 H2       -0.5228     3.6865    -0.1916  H       1  <O>11       0.1426
  25 H3        2.6815     1.8195     0.3246  H       1  <O>11       0.1522
  26 H4        2.3262     5.1896    -0.0407  H       1  <O>11       0.2954
  27 H5       -0.1998     1.7306     2.5542  H       1  <O>11       0.0636
  28 H6       -0.6543     3.2662     4.3786  H       1  <O>11       0.0618
  29 H7        0.7595     5.2159     4.7146  H       1  <O>11       0.0618
  30 H8        2.6319     5.6169     3.2188  H       1  <O>11       0.0626
  31 H9        2.6873    -1.3418     1.1287  H       1  <O>11       0.0625
  32 H10       1.8277    -0.2892     3.5639  H       1  <O>11       0.0618
  33 H11      -0.2956    -2.1090     3.7767  H       1  <O>11       0.0619
  34 H12      -2.0139    -0.4314     2.3203  H       1  <O>11       0.0654
@<TRIPOS>BOND
     1     1     2    1
     2     2     3   ar
     3     3     4    1
     4     4     5    1
     5     5     6   ar
     6     6     7   ar
     7     7     8   ar
     8     8     9   ar
     9     9    10   ar
    10     5    10   ar
    11    10    11    1
    12    11    12    2
    13    11    13    1
    14     3    14   ar
    15    14    15   ar
    16    15    16   ar
    17    16    17   ar
    18    17    18   ar
    19    18    19   ar
    20    14    19   ar
    21    19    20   ar
    22    20    21   ar
    23     2    21   ar
    24    21    22    2
    25     1    23    1
    26     1    24    1
    27     4    25    1
    28    13    26    1
    29     6    27    1
    30     7    28    1
    31     8    29    1
    32     9    30    1
    33    15    31    1
    34    16    32    1
    35    17    33    1
    36    18    34    1
@<TRIPOS>MOLECULE
mol33_1_5
 34 36 0 0 0
SMALL
USER_CHARGES
****
VDW energy = 50.72
@<TRIPOS>ATOM
   1 N1       -1.0416     2.9353    -0.6465  N.pl3   1  <O>11      -0.3510
   2 C1       -0.5730     1.5759    -0.5515  C.ar    1  <O>11       0.1323
   3 C2        0.6800     1.0694     0.1874  C.ar    1  <O>11       0.0701
   4 N2        1.7430     1.8830     0.7200  N.pl3   1  <O>11      -0.3117
   5 C3        1.4795     2.7923     1.8199  C.ar    1  <O>11       0.0455
   6 C4        0.4014     2.5580     2.6914  C.ar    1  <O>11      -0.0397
   7 C5        0.1406     3.4421     3.7442  C.ar    1  <O>11      -0.0600
   8 C6        0.9526     4.5623     3.9395  C.ar    1  <O>11      -0.0609
   9 C7        2.0297     4.7910     3.0758  C.ar    1  <O>11      -0.0460
  10 C8        2.2988     3.9151     2.0236  C.ar    1  <O>11       0.0799
  11 C9        3.4166     4.1489     1.1347  C.2     1  <O>11       0.3386
  12 O1        3.2634     4.8184     0.1246  O.2     1  <O>11      -0.2451
  13 O2        4.6323     3.6251     1.4232  O.3     1  <O>11      -0.4771
  14 C10       0.7349    -0.4680     0.3350  C.ar    1  <O>11       0.0405
  15 C11       1.7678    -0.9460     1.3794  C.ar    1  <O>11      -0.0492
  16 C12       1.2888    -0.7731     2.8287  C.ar    1  <O>11      -0.0609
  17 C13      -0.0890    -1.4086     3.0474  C.ar    1  <O>11      -0.0582
  18 C14      -1.1225    -0.8741     2.0475  C.ar    1  <O>11      -0.0186
  19 C15      -0.6733    -1.0760     0.5906  C.ar    1  <O>11       0.1409
  20 O3       -1.7385    -0.5809    -0.2821  O.2     1  <O>11      -0.4208
  21 C16      -1.3512     0.4485    -1.2339  C.ar    1  <O>11       0.3601
  22 O4       -1.6242     0.4671    -2.6151  O.2     1  <O>11      -0.2430
  23 H1       -1.8920     3.1462    -1.1686  H       1  <O>11       0.1426
  24 H2       -0.5228     3.6865    -0.1916  H       1  <O>11       0.1426
  25 H3        2.6815     1.8195     0.3246  H       1  <O>11       0.1522
  26 H4        4.5809     3.1236     2.2514  H       1  <O>11       0.2954
  27 H5       -0.1998     1.7306     2.5542  H       1  <O>11       0.0636
  28 H6       -0.6543     3.2662     4.3786  H       1  <O>11       0.0618
  29 H7        0.7595     5.2159     4.7146  H       1  <O>11       0.0618
  30 H8        2.6319     5.6169     3.2188  H       1  <O>11       0.0626
  31 H9        2.6873    -1.3418     1.1287  H       1  <O>11       0.0625
  32 H10       1.8277    -0.2892     3.5639  H       1  <O>11       0.0618
  33 H11      -0.2956    -2.1090     3.7767  H       1  <O>11       0.0619
  34 H12      -2.0139    -0.4314     2.3203  H       1  <O>11       0.0654
@<TRIPOS>BOND
     1     1     2    1
     2     2     3   ar
     3     3     4    1
     4     4     5    1
     5     5     6   ar
     6     6     7   ar
     7     7     8   ar
     8     8     9   ar
     9     9    10   ar
    10     5    10   ar
    11    10    11    1
    12    11    12    2
    13    11    13    1
    14     3    14   ar
    15    14    15   ar
    16    15    16   ar
    17    16    17   ar
    18    17    18   ar
    19    18    19   ar
    20    14    19   ar
    21    19    20   ar
    22    20    21   ar
    23     2    21   ar
    24    21    22    2
    25     1    23    1
    26     1    24    1
    27     4    25    1
    28    13    26    1
    29     6    27    1
    30     7    28    1
    31     8    29    1
    32     9    30    1
    33    15    31    1
    34    16    32    1
    35    17    33    1
    36    18    34    1
@<TRIPOS>MOLECULE
mol33_1_6
 34 36 0 0 0
SMALL
USER_CHARGES
****
VDW energy = 51.48
@<TRIPOS>ATOM
   1 N1       -1.0416     2.9353    -0.6465  N.pl3   1  <O>11      -0.3510
   2 C1       -0.5730     1.5759    -0.5515  C.ar    1  <O>11       0.1323
   3 C2        0.6800     1.0694     0.1874  C.ar    1  <O>11       0.0701
   4 N2        1.7430     1.8830     0.7200  N.pl3   1  <O>11      -0.3117
   5 C3        2.8904     2.2099    -0.1063  C.ar    1  <O>11       0.0455
   6 C4        2.7820     2.1966    -1.5080  C.ar    1  <O>11      -0.0397
   7 C5        3.8922     2.4997    -2.3041  C.ar    1  <O>11      -0.0600
   8 C6        5.1158     2.8220    -1.7113  C.ar    1  <O>11      -0.0609
   9 C7        5.2209     2.8419    -0.3159  C.ar    1  <O>11      -0.0460
  10 C8        4.1198     2.5420     0.4868  C.ar    1  <O>11       0.0799
  11 C9        4.2277     2.5688     1.9297  C.2     1  <O>11       0.3386
  12 O1        4.8769     1.7116     2.5092  O.2     1  <O>11      -0.2451
  13 O2        3.6086     3.5445     2.6370  O.3     1  <O>11      -0.4771
  14 C10       0.7349    -0.4680     0.3350  C.ar    1  <O>11       0.0405
  15 C11       1.7678    -0.9460     1.3794  C.ar    1  <O>11      -0.0492
  16 C12       1.2888    -0.7731     2.8287  C.ar    1  <O>11      -0.0609
  17 C13      -0.0890    -1.4086     3.0474  C.ar    1  <O>11      -0.0582
  18 C14      -1.1225    -0.8741     2.0475  C.ar    1  <O>11      -0.0186
  19 C15      -0.6733    -1.0760     0.5906  C.ar    1  <O>11       0.1409
  20 O3       -1.7385    -0.5809    -0.2821  O.2     1  <O>11      -0.4208
  21 C16      -1.3512     0.4485    -1.2339  C.ar    1  <O>11       0.3601
  22 O4       -1.6242     0.4671    -2.6151  O.2     1  <O>11      -0.2430
  23 H1       -1.8920     3.1462    -1.1686  H       1  <O>11       0.1426
  24 H2       -0.5228     3.6865    -0.1916  H       1  <O>11       0.1426
  25 H3        1.6890     2.2303     1.6779  H       1  <O>11       0.1522
  26 H4        3.1391     4.1368     2.0298  H       1  <O>11       0.2954
  27 H5        1.8801     1.9625    -1.9515  H       1  <O>11       0.0636
  28 H6        3.8070     2.4852    -3.3324  H       1  <O>11       0.0618
  29 H7        5.9355     3.0437    -2.2978  H       1  <O>11       0.0618
  30 H8        6.1231     3.0810     0.1244  H       1  <O>11       0.0626
  31 H9        2.6873    -1.3418     1.1287  H       1  <O>11       0.0625
  32 H10       1.8277    -0.2892     3.5639  H       1  <O>11       0.0618
  33 H11      -0.2956    -2.1090     3.7767  H       1  <O>11       0.0619
  34 H12      -2.0139    -0.4314     2.3203  H       1  <O>11       0.0654
@<TRIPOS>BOND
     1     1     2    1
     2     2     3   ar
     3     3     4    1
     4     4     5    1
     5     5     6   ar
     6     6     7   ar
     7     7     8   ar
     8     8     9   ar
     9     9    10   ar
    10     5    10   ar
    11    10    11    1
    12    11    12    2
    13    11    13    1
    14     3    14   ar
    15    14    15   ar
    16    15    16   ar
    17    16    17   ar
    18    17    18   ar
    19    18    19   ar
    20    14    19   ar
    21    19    20   ar
    22    20    21   ar
    23     2    21   ar
    24    21    22    2
    25     1    23    1
    26     1    24    1
    27     4    25    1
    28    13    26    1
    29     6    27    1
    30     7    28    1
    31     8    29    1
    32     9    30    1
    33    15    31    1
    34    16    32    1
    35    17    33    1
    36    18    34    1
@<TRIPOS>MOLECULE
mol33_1_7
 34 36 0 0 0
SMALL
USER_CHARGES
****
VDW energy = 52.08
@<TRIPOS>ATOM
   1 N1       -1.0416     2.9353    -0.6465  N.pl3   1  <O>11      -0.3510
   2 C1       -0.5730     1.5759    -0.5515  C.ar    1  <O>11       0.1323
   3 C2        0.6800     1.0694     0.1874  C.ar    1  <O>11       0.0701
   4 N2        1.7430     1.8830     0.7200  N.pl3   1  <O>11      -0.3117
   5 C3        1.4795     2.7923     1.8199  C.ar    1  <O>11       0.0455
   6 C4        0.4014     2.5580     2.6914  C.ar    1  <O>11      -0.0397
   7 C5        0.1406     3.4421     3.7442  C.ar    1  <O>11      -0.0600
   8 C6        0.9526     4.5623     3.9395  C.ar    1  <O>11      -0.0609
   9 C7        2.0297     4.7910     3.0758  C.ar    1  <O>11      -0.0460
  10 C8        2.2988     3.9151     2.0236  C.ar    1  <O>11       0.0799
  11 C9        3.4166     4.1489     1.1347  C.2     1  <O>11       0.3386
  12 O1        3.3836     5.0797     0.3444  O.2     1  <O>11      -0.2451
  13 O2        4.4990     3.3354     1.1794  O.3     1  <O>11      -0.4771
  14 C10       0.7349    -0.4680     0.3350  C.ar    1  <O>11       0.0405
  15 C11       1.7678    -0.9460     1.3794  C.ar    1  <O>11      -0.0492
  16 C12       1.2888    -0.7731     2.8287  C.ar    1  <O>11      -0.0609
  17 C13      -0.0890    -1.4086     3.0474  C.ar    1  <O>11      -0.0582
  18 C14      -1.1225    -0.8741     2.0475  C.ar    1  <O>11      -0.0186
  19 C15      -0.6733    -1.0760     0.5906  C.ar    1  <O>11       0.1409
  20 O3       -1.7385    -0.5809    -0.2821  O.2     1  <O>11      -0.4208
  21 C16      -1.3512     0.4485    -1.2339  C.ar    1  <O>11       0.3601
  22 O4       -1.6242     0.4671    -2.6151  O.2     1  <O>11      -0.2430
  23 H1       -1.8920     3.1462    -1.1686  H       1  <O>11       0.1426
  24 H2       -0.5228     3.6865    -0.1916  H       1  <O>11       0.1426
  25 H3        2.6815     1.8195     0.3246  H       1  <O>11       0.1522
  26 H4        4.3635     2.6523     1.8540  H       1  <O>11       0.2954
  27 H5       -0.1998     1.7306     2.5542  H       1  <O>11       0.0636
  28 H6       -0.6543     3.2662     4.3786  H       1  <O>11       0.0618
  29 H7        0.7595     5.2159     4.7146  H       1  <O>11       0.0618
  30 H8        2.6319     5.6169     3.2188  H       1  <O>11       0.0626
  31 H9        2.6873    -1.3418     1.1287  H       1  <O>11       0.0625
  32 H10       1.8277    -0.2892     3.5639  H       1  <O>11       0.0618
  33 H11      -0.2956    -2.1090     3.7767  H       1  <O>11       0.0619
  34 H12      -2.0139    -0.4314     2.3203  H       1  <O>11       0.0654
@<TRIPOS>BOND
     1     1     2    1
     2     2     3   ar
     3     3     4    1
     4     4     5    1
     5     5     6   ar
     6     6     7   ar
     7     7     8   ar
     8     8     9   ar
     9     9    10   ar
    10     5    10   ar
    11    10    11    1
    12    11    12    2
    13    11    13    1
    14     3    14   ar
    15    14    15   ar
    16    15    16   ar
    17    16    17   ar
    18    17    18   ar
    19    18    19   ar
    20    14    19   ar
    21    19    20   ar
    22    20    21   ar
    23     2    21   ar
    24    21    22    2
    25     1    23    1
    26     1    24    1
    27     4    25    1
    28    13    26    1
    29     6    27    1
    30     7    28    1
    31     8    29    1
    32     9    30    1
    33    15    31    1
    34    16    32    1
    35    17    33    1
    36    18    34    1
@<TRIPOS>MOLECULE
mol33_1_8
 34 36 0 0 0
SMALL
USER_CHARGES
****
VDW energy = 53.03
@<TRIPOS>ATOM
   1 N1       -1.0416     2.9353    -0.6465  N.pl3   1  <O>11      -0.3510
   2 C1       -0.5730     1.5759    -0.5515  C.ar    1  <O>11       0.1323
   3 C2        0.6800     1.0694     0.1874  C.ar    1  <O>11       0.0701
   4 N2        1.7430     1.8830     0.7200  N.pl3   1  <O>11      -0.3117
   5 C3        2.5958     2.6410    -0.1768  C.ar    1  <O>11       0.0455
   6 C4        2.1352     3.0064    -1.4540  C.ar    1  <O>11      -0.0397
   7 C5        2.9628     3.7264    -2.3228  C.ar    1  <O>11      -0.0600
   8 C6        4.2517     4.0912    -1.9255  C.ar    1  <O>11      -0.0609
   9 C7        4.7068     3.7332    -0.6515  C.ar    1  <O>11      -0.0460
  10 C8        3.8893     3.0160     0.2226  C.ar    1  <O>11       0.0799
  11 C9        4.3584     2.6516     1.5423  C.2     1  <O>11       0.3386
  12 O1        4.1737     3.4056     2.4854  O.2     1  <O>11      -0.2451
  13 O2        5.0022     1.4746     1.7311  O.3     1  <O>11      -0.4771
  14 C10       0.7349    -0.4680     0.3350  C.ar    1  <O>11       0.0405
  15 C11       1.7678    -0.9460     1.3794  C.ar    1  <O>11      -0.0492
  16 C12       1.2888    -0.7731     2.8287  C.ar    1  <O>11      -0.0609
  17 C13      -0.0890    -1.4086     3.0474  C.ar    1  <O>11      -0.0582
  18 C14      -1.1225    -0.8741     2.0475  C.ar    1  <O>11      -0.0186
  19 C15      -0.6733    -1.0760     0.5906  C.ar    1  <O>11       0.1409
  20 O3       -1.7385    -0.5809    -0.2821  O.2     1  <O>11      -0.4208
  21 C16      -1.3512     0.4485    -1.2339  C.ar    1  <O>11       0.3601
  22 O4       -1.6242     0.4671    -2.6151  O.2     1  <O>11      -0.2430
  23 H1       -1.8920     3.1462    -1.1686  H       1  <O>11       0.1426
  24 H2       -0.5228     3.6865    -0.1916  H       1  <O>11       0.1426
  25 H3        1.8960     1.9272     1.7279  H       1  <O>11       0.1522
  26 H4        5.0668     1.0015     0.8872  H       1  <O>11       0.2954
  27 H5        1.1830     2.7426    -1.7518  H       1  <O>11       0.0636
  28 H6        2.6199     3.9889    -3.2602  H       1  <O>11       0.0618
  29 H7        4.8633     4.6205    -2.5666  H       1  <O>11       0.0618
  30 H8        5.6579     4.0027    -0.3551  H       1  <O>11       0.0626
  31 H9        2.6873    -1.3418     1.1287  H       1  <O>11       0.0625
  32 H10       1.8277    -0.2892     3.5639  H       1  <O>11       0.0618
  33 H11      -0.2956    -2.1090     3.7767  H       1  <O>11       0.0619
  34 H12      -2.0139    -0.4314     2.3203  H       1  <O>11       0.0654
@<TRIPOS>BOND
     1     1     2    1
     2     2     3   ar
     3     3     4    1
     4     4     5    1
     5     5     6   ar
     6     6     7   ar
     7     7     8   ar
     8     8     9   ar
     9     9    10   ar
    10     5    10   ar
    11    10    11    1
    12    11    12    2
    13    11    13    1
    14     3    14   ar
    15    14    15   ar
    16    15    16   ar
    17    16    17   ar
    18    17    18   ar
    19    18    19   ar
    20    14    19   ar
    21    19    20   ar
    22    20    21   ar
    23     2    21   ar
    24    21    22    2
    25     1    23    1
    26     1    24    1
    27     4    25    1
    28    13    26    1
    29     6    27    1
    30     7    28    1
    31     8    29    1
    32     9    30    1
    33    15    31    1
    34    16    32    1
    35    17    33    1
    36    18    34    1
@<TRIPOS>MOLECULE
mol33_1_9
 34 36 0 0 0
SMALL
USER_CHARGES
****
VDW energy = 54.05
@<TRIPOS>ATOM
   1 N1       -1.0416     2.9353    -0.6465  N.pl3   1  <O>11      -0.3510
   2 C1       -0.5730     1.5759    -0.5515  C.ar    1  <O>11       0.1323
   3 C2        0.6800     1.0694     0.1874  C.ar    1  <O>11       0.0701
   4 N2        1.7430     1.8830     0.7200  N.pl3   1  <O>11      -0.3117
   5 C3        2.8904     2.2099    -0.1063  C.ar    1  <O>11       0.0455
   6 C4        4.0189     1.3713    -0.1169  C.ar    1  <O>11      -0.0397
   7 C5        5.1298     1.6939    -0.9043  C.ar    1  <O>11      -0.0600
   8 C6        5.1238     2.8498    -1.6893  C.ar    1  <O>11      -0.0609
   9 C7        3.9973     3.6802    -1.6835  C.ar    1  <O>11      -0.0460
  10 C8        2.8843     3.3672    -0.9026  C.ar    1  <O>11       0.0799
  11 C9        1.7173     4.2231    -0.9020  C.2     1  <O>11       0.3386
  12 O1        1.0018     4.2800    -1.8903  O.2     1  <O>11      -0.2451
  13 O2        1.4191     4.9608     0.1945  O.3     1  <O>11      -0.4771
  14 C10       0.7349    -0.4680     0.3350  C.ar    1  <O>11       0.0405
  15 C11       1.7678    -0.9460     1.3794  C.ar    1  <O>11      -0.0492
  16 C12       1.2888    -0.7731     2.8287  C.ar    1  <O>11      -0.0609
  17 C13      -0.0890    -1.4086     3.0474  C.ar    1  <O>11      -0.0582
  18 C14      -1.1225    -0.8741     2.0475  C.ar    1  <O>11      -0.0186
  19 C15      -0.6733    -1.0760     0.5906  C.ar    1  <O>11       0.1409
  20 O3       -1.7385    -0.5809    -0.2821  O.2     1  <O>11      -0.4208
  21 C16      -1.3512     0.4485    -1.2339  C.ar    1  <O>11       0.3601
  22 O4       -1.6242     0.4671    -2.6151  O.2     1  <O>11      -0.2430
  23 H1       -1.8920     3.1462    -1.1686  H       1  <O>11       0.1426
  24 H2       -0.5228     3.6865    -0.1916  H       1  <O>11       0.1426
  25 H3        1.6890     2.2303     1.6779  H       1  <O>11       0.1522
  26 H4        2.0837     4.8021     0.8825  H       1  <O>11       0.2954
  27 H5        4.0279     0.5145     0.4582  H       1  <O>11       0.0636
  28 H6        5.9563     1.0759    -0.9053  H       1  <O>11       0.0618
  29 H7        5.9435     3.0893    -2.2687  H       1  <O>11       0.0618
  30 H8        3.9898     4.5338    -2.2635  H       1  <O>11       0.0626
  31 H9        2.6873    -1.3418     1.1287  H       1  <O>11       0.0625
  32 H10       1.8277    -0.2892     3.5639  H       1  <O>11       0.0618
  33 H11      -0.2956    -2.1090     3.7767  H       1  <O>11       0.0619
  34 H12      -2.0139    -0.4314     2.3203  H       1  <O>11       0.0654
@<TRIPOS>BOND
     1     1     2    1
     2     2     3   ar
     3     3     4    1
     4     4     5    1
     5     5     6   ar
     6     6     7   ar
     7     7     8   ar
     8     8     9   ar
     9     9    10   ar
    10     5    10   ar
    11    10    11    1
    12    11    12    2
    13    11    13    1
    14     3    14   ar
    15    14    15   ar
    16    15    16   ar
    17    16    17   ar
    18    17    18   ar
    19    18    19   ar
    20    14    19   ar
    21    19    20   ar
    22    20    21   ar
    23     2    21   ar
    24    21    22    2
    25     1    23    1
    26     1    24    1
    27     4    25    1
    28    13    26    1
    29     6    27    1
    30     7    28    1
    31     8    29    1
    32     9    30    1
    33    15    31    1
    34    16    32    1
    35    17    33    1
    36    18    34    1
@<TRIPOS>MOLECULE
mol33_1_10
 34 36 0 0 0
SMALL
USER_CHARGES
****
VDW energy = 54.06
@<TRIPOS>ATOM
   1 N1       -1.0416     2.9353    -0.6465  N.pl3   1  <O>11      -0.3510
   2 C1       -0.5730     1.5759    -0.5515  C.ar    1  <O>11       0.1323
   3 C2        0.6800     1.0694     0.1874  C.ar    1  <O>11       0.0701
   4 N2        1.7430     1.8830     0.7200  N.pl3   1  <O>11      -0.3117
   5 C3        2.5958     2.6410    -0.1768  C.ar    1  <O>11       0.0455
   6 C4        2.5744     4.0466    -0.1572  C.ar    1  <O>11      -0.0397
   7 C5        3.3879     4.7766    -1.0310  C.ar    1  <O>11      -0.0600
   8 C6        4.2307     4.1136    -1.9266  C.ar    1  <O>11      -0.0609
   9 C7        4.2566     2.7144    -1.9407  C.ar    1  <O>11      -0.0460
  10 C8        3.4501     1.9772    -1.0730  C.ar    1  <O>11       0.0799
  11 C9        3.4820     0.5305    -1.0838  C.2     1  <O>11       0.3386
  12 O1        3.0148    -0.0833    -2.0310  O.2     1  <O>11      -0.2451
  13 O2        4.0299    -0.1426    -0.0435  O.3     1  <O>11      -0.4771
  14 C10       0.7349    -0.4680     0.3350  C.ar    1  <O>11       0.0405
  15 C11       1.7678    -0.9460     1.3794  C.ar    1  <O>11      -0.0492
  16 C12       1.2888    -0.7731     2.8287  C.ar    1  <O>11      -0.0609
  17 C13      -0.0890    -1.4086     3.0474  C.ar    1  <O>11      -0.0582
  18 C14      -1.1225    -0.8741     2.0475  C.ar    1  <O>11      -0.0186
  19 C15      -0.6733    -1.0760     0.5906  C.ar    1  <O>11       0.1409
  20 O3       -1.7385    -0.5809    -0.2821  O.2     1  <O>11      -0.4208
  21 C16      -1.3512     0.4485    -1.2339  C.ar    1  <O>11       0.3601
  22 O4       -1.6242     0.4671    -2.6151  O.2     1  <O>11      -0.2430
  23 H1       -1.8920     3.1462    -1.1686  H       1  <O>11       0.1426
  24 H2       -0.5228     3.6865    -0.1916  H       1  <O>11       0.1426
  25 H3        1.8960     1.9272     1.7279  H       1  <O>11       0.1522
  26 H4        4.3490     0.4891     0.6192  H       1  <O>11       0.2954
  27 H5        1.9564     4.5420     0.5044  H       1  <O>11       0.0636
  28 H6        3.3652     5.8082    -1.0138  H       1  <O>11       0.0618
  29 H7        4.8294     4.6513    -2.5727  H       1  <O>11       0.0618
  30 H8        4.8793     2.2222    -2.6003  H       1  <O>11       0.0626
  31 H9        2.6873    -1.3418     1.1287  H       1  <O>11       0.0625
  32 H10       1.8277    -0.2892     3.5639  H       1  <O>11       0.0618
  33 H11      -0.2956    -2.1090     3.7767  H       1  <O>11       0.0619
  34 H12      -2.0139    -0.4314     2.3203  H       1  <O>11       0.0654
@<TRIPOS>BOND
     1     1     2    1
     2     2     3   ar
     3     3     4    1
     4     4     5    1
     5     5     6   ar
     6     6     7   ar
     7     7     8   ar
     8     8     9   ar
     9     9    10   ar
    10     5    10   ar
    11    10    11    1
    12    11    12    2
    13    11    13    1
    14     3    14   ar
    15    14    15   ar
    16    15    16   ar
    17    16    17   ar
    18    17    18   ar
    19    18    19   ar
    20    14    19   ar
    21    19    20   ar
    22    20    21   ar
    23     2    21   ar
    24    21    22    2
    25     1    23    1
    26     1    24    1
    27     4    25    1
    28    13    26    1
    29     6    27    1
    30     7    28    1
    31     8    29    1
    32     9    30    1
    33    15    31    1
    34    16    32    1
    35    17    33    1
    36    18    34    1
@<TRIPOS>MOLECULE
mol33_1_11
 34 36 0 0 0
SMALL
USER_CHARGES
****
VDW energy = 54.99
@<TRIPOS>ATOM
   1 N1       -1.0416     2.9353    -0.6465  N.pl3   1  <O>11      -0.3510
   2 C1       -0.5730     1.5759    -0.5515  C.ar    1  <O>11       0.1323
   3 C2        0.6800     1.0694     0.1874  C.ar    1  <O>11       0.0701
   4 N2        1.7430     1.8830     0.7200  N.pl3   1  <O>11      -0.3117
   5 C3        2.5958     2.6410    -0.1768  C.ar    1  <O>11       0.0455
   6 C4        2.1352     3.0064    -1.4540  C.ar    1  <O>11      -0.0397
   7 C5        2.9628     3.7264    -2.3228  C.ar    1  <O>11      -0.0600
   8 C6        4.2517     4.0912    -1.9255  C.ar    1  <O>11      -0.0609
   9 C7        4.7068     3.7332    -0.6515  C.ar    1  <O>11      -0.0460
  10 C8        3.8893     3.0160     0.2226  C.ar    1  <O>11       0.0799
  11 C9        4.3584     2.6516     1.5423  C.2     1  <O>11       0.3386
  12 O1        4.9388     1.5903     1.7122  O.2     1  <O>11      -0.2451
  13 O2        4.1537     3.4876     2.5886  O.3     1  <O>11      -0.4771
  14 C10       0.7349    -0.4680     0.3350  C.ar    1  <O>11       0.0405
  15 C11       1.7678    -0.9460     1.3794  C.ar    1  <O>11      -0.0492
  16 C12       1.2888    -0.7731     2.8287  C.ar    1  <O>11      -0.0609
  17 C13      -0.0890    -1.4086     3.0474  C.ar    1  <O>11      -0.0582
  18 C14      -1.1225    -0.8741     2.0475  C.ar    1  <O>11      -0.0186
  19 C15      -0.6733    -1.0760     0.5906  C.ar    1  <O>11       0.1409
  20 O3       -1.7385    -0.5809    -0.2821  O.2     1  <O>11      -0.4208
  21 C16      -1.3512     0.4485    -1.2339  C.ar    1  <O>11       0.3601
  22 O4       -1.6242     0.4671    -2.6151  O.2     1  <O>11      -0.2430
  23 H1       -1.8920     3.1462    -1.1686  H       1  <O>11       0.1426
  24 H2       -0.5228     3.6865    -0.1916  H       1  <O>11       0.1426
  25 H3        1.8960     1.9272     1.7279  H       1  <O>11       0.1522
  26 H4        3.6811     4.2777     2.2845  H       1  <O>11       0.2954
  27 H5        1.1830     2.7426    -1.7518  H       1  <O>11       0.0636
  28 H6        2.6199     3.9889    -3.2602  H       1  <O>11       0.0618
  29 H7        4.8633     4.6205    -2.5666  H       1  <O>11       0.0618
  30 H8        5.6579     4.0027    -0.3551  H       1  <O>11       0.0626
  31 H9        2.6873    -1.3418     1.1287  H       1  <O>11       0.0625
  32 H10       1.8277    -0.2892     3.5639  H       1  <O>11       0.0618
  33 H11      -0.2956    -2.1090     3.7767  H       1  <O>11       0.0619
  34 H12      -2.0139    -0.4314     2.3203  H       1  <O>11       0.0654
@<TRIPOS>BOND
     1     1     2    1
     2     2     3   ar
     3     3     4    1
     4     4     5    1
     5     5     6   ar
     6     6     7   ar
     7     7     8   ar
     8     8     9   ar
     9     9    10   ar
    10     5    10   ar
    11    10    11    1
    12    11    12    2
    13    11    13    1
    14     3    14   ar
    15    14    15   ar
    16    15    16   ar
    17    16    17   ar
    18    17    18   ar
    19    18    19   ar
    20    14    19   ar
    21    19    20   ar
    22    20    21   ar
    23     2    21   ar
    24    21    22    2
    25     1    23    1
    26     1    24    1
    27     4    25    1
    28    13    26    1
    29     6    27    1
    30     7    28    1
    31     8    29    1
    32     9    30    1
    33    15    31    1
    34    16    32    1
    35    17    33    1
    36    18    34    1
@<TRIPOS>MOLECULE
mol33_1_12
 34 36 0 0 0
SMALL
USER_CHARGES
****
VDW energy = 56.50
@<TRIPOS>ATOM
   1 N1       -1.0416     2.9353    -0.6465  N.pl3   1  <O>11      -0.3510
   2 C1       -0.5730     1.5759    -0.5515  C.ar    1  <O>11       0.1323
   3 C2        0.6800     1.0694     0.1874  C.ar    1  <O>11       0.0701
   4 N2        1.7430     1.8830     0.7200  N.pl3   1  <O>11      -0.3117
   5 C3        2.5958     2.6410    -0.1768  C.ar    1  <O>11       0.0455
   6 C4        2.1352     3.0064    -1.4540  C.ar    1  <O>11      -0.0397
   7 C5        2.9628     3.7264    -2.3228  C.ar    1  <O>11      -0.0600
   8 C6        4.2517     4.0912    -1.9255  C.ar    1  <O>11      -0.0609
   9 C7        4.7068     3.7332    -0.6515  C.ar    1  <O>11      -0.0460
  10 C8        3.8893     3.0160     0.2226  C.ar    1  <O>11       0.0799
  11 C9        4.3584     2.6516     1.5423  C.2     1  <O>11       0.3386
  12 O1        5.2282     1.8032     1.6681  O.2     1  <O>11      -0.2451
  13 O2        3.8327     3.2514     2.6374  O.3     1  <O>11      -0.4771
  14 C10       0.7349    -0.4680     0.3350  C.ar    1  <O>11       0.0405
  15 C11       1.7678    -0.9460     1.3794  C.ar    1  <O>11      -0.0492
  16 C12       1.2888    -0.7731     2.8287  C.ar    1  <O>11      -0.0609
  17 C13      -0.0890    -1.4086     3.0474  C.ar    1  <O>11      -0.0582
  18 C14      -1.1225    -0.8741     2.0475  C.ar    1  <O>11      -0.0186
  19 C15      -0.6733    -1.0760     0.5906  C.ar    1  <O>11       0.1409
  20 O3       -1.7385    -0.5809    -0.2821  O.2     1  <O>11      -0.4208
  21 C16      -1.3512     0.4485    -1.2339  C.ar    1  <O>11       0.3601
  22 O4       -1.6242     0.4671    -2.6151  O.2     1  <O>11      -0.2430
  23 H1       -1.8920     3.1462    -1.1686  H       1  <O>11       0.1426
  24 H2       -0.5228     3.6865    -0.1916  H       1  <O>11       0.1426
  25 H3        1.8960     1.9272     1.7279  H       1  <O>11       0.1522
  26 H4        3.1588     3.8925     2.3637  H       1  <O>11       0.2954
  27 H5        1.1830     2.7426    -1.7518  H       1  <O>11       0.0636
  28 H6        2.6199     3.9889    -3.2602  H       1  <O>11       0.0618
  29 H7        4.8633     4.6205    -2.5666  H       1  <O>11       0.0618
  30 H8        5.6579     4.0027    -0.3551  H       1  <O>11       0.0626
  31 H9        2.6873    -1.3418     1.1287  H       1  <O>11       0.0625
  32 H10       1.8277    -0.2892     3.5639  H       1  <O>11       0.0618
  33 H11      -0.2956    -2.1090     3.7767  H       1  <O>11       0.0619
  34 H12      -2.0139    -0.4314     2.3203  H       1  <O>11       0.0654
@<TRIPOS>BOND
     1     1     2    1
     2     2     3   ar
     3     3     4    1
     4     4     5    1
     5     5     6   ar
     6     6     7   ar
     7     7     8   ar
     8     8     9   ar
     9     9    10   ar
    10     5    10   ar
    11    10    11    1
    12    11    12    2
    13    11    13    1
    14     3    14   ar
    15    14    15   ar
    16    15    16   ar
    17    16    17   ar
    18    17    18   ar
    19    18    19   ar
    20    14    19   ar
    21    19    20   ar
    22    20    21   ar
    23     2    21   ar
    24    21    22    2
    25     1    23    1
    26     1    24    1
    27     4    25    1
    28    13    26    1
    29     6    27    1
    30     7    28    1
    31     8    29    1
    32     9    30    1
    33    15    31    1
    34    16    32    1
    35    17    33    1
    36    18    34    1
@<TRIPOS>MOLECULE
mol33_1_13
 34 36 0 0 0
SMALL
USER_CHARGES
****
VDW energy = 57.84
@<TRIPOS>ATOM
   1 N1       -1.0416     2.9353    -0.6465  N.pl3   1  <O>11      -0.3510
   2 C1       -0.5730     1.5759    -0.5515  C.ar    1  <O>11       0.1323
   3 C2        0.6800     1.0694     0.1874  C.ar    1  <O>11       0.0701
   4 N2        1.7430     1.8830     0.7200  N.pl3   1  <O>11      -0.3117
   5 C3        2.8904     2.2099    -0.1063  C.ar    1  <O>11       0.0455
   6 C4        4.0189     1.3713    -0.1169  C.ar    1  <O>11      -0.0397
   7 C5        5.1298     1.6939    -0.9043  C.ar    1  <O>11      -0.0600
   8 C6        5.1238     2.8498    -1.6893  C.ar    1  <O>11      -0.0609
   9 C7        3.9973     3.6802    -1.6835  C.ar    1  <O>11      -0.0460
  10 C8        2.8843     3.3672    -0.9026  C.ar    1  <O>11       0.0799
  11 C9        1.7173     4.2231    -0.9020  C.2     1  <O>11       0.3386
  12 O1        1.6327     5.1390    -0.0982  O.2     1  <O>11      -0.2451
  13 O2        0.7194     4.0081    -1.7927  O.3     1  <O>11      -0.4771
  14 C10       0.7349    -0.4680     0.3350  C.ar    1  <O>11       0.0405
  15 C11       1.7678    -0.9460     1.3794  C.ar    1  <O>11      -0.0492
  16 C12       1.2888    -0.7731     2.8287  C.ar    1  <O>11      -0.0609
  17 C13      -0.0890    -1.4086     3.0474  C.ar    1  <O>11      -0.0582
  18 C14      -1.1225    -0.8741     2.0475  C.ar    1  <O>11      -0.0186
  19 C15      -0.6733    -1.0760     0.5906  C.ar    1  <O>11       0.1409
  20 O3       -1.7385    -0.5809    -0.2821  O.2     1  <O>11      -0.4208
  21 C16      -1.3512     0.4485    -1.2339  C.ar    1  <O>11       0.3601
  22 O4       -1.6242     0.4671    -2.6151  O.2     1  <O>11      -0.2430
  23 H1       -1.8920     3.1462    -1.1686  H       1  <O>11       0.1426
  24 H2       -0.5228     3.6865    -0.1916  H       1  <O>11       0.1426
  25 H3        1.6890     2.2303     1.6779  H       1  <O>11       0.1522
  26 H4        0.9419     3.2477    -2.3515  H       1  <O>11       0.2954
  27 H5        4.0279     0.5145     0.4582  H       1  <O>11       0.0636
  28 H6        5.9563     1.0759    -0.9053  H       1  <O>11       0.0618
  29 H7        5.9435     3.0893    -2.2687  H       1  <O>11       0.0618
  30 H8        3.9898     4.5338    -2.2635  H       1  <O>11       0.0626
  31 H9        2.6873    -1.3418     1.1287  H       1  <O>11       0.0625
  32 H10       1.8277    -0.2892     3.5639  H       1  <O>11       0.0618
  33 H11      -0.2956    -2.1090     3.7767  H       1  <O>11       0.0619
  34 H12      -2.0139    -0.4314     2.3203  H       1  <O>11       0.0654
@<TRIPOS>BOND
     1     1     2    1
     2     2     3   ar
     3     3     4    1
     4     4     5    1
     5     5     6   ar
     6     6     7   ar
     7     7     8   ar
     8     8     9   ar
     9     9    10   ar
    10     5    10   ar
    11    10    11    1
    12    11    12    2
    13    11    13    1
    14     3    14   ar
    15    14    15   ar
    16    15    16   ar
    17    16    17   ar
    18    17    18   ar
    19    18    19   ar
    20    14    19   ar
    21    19    20   ar
    22    20    21   ar
    23     2    21   ar
    24    21    22    2
    25     1    23    1
    26     1    24    1
    27     4    25    1
    28    13    26    1
    29     6    27    1
    30     7    28    1
    31     8    29    1
    32     9    30    1
    33    15    31    1
    34    16    32    1
    35    17    33    1
    36    18    34    1
@<TRIPOS>MOLECULE
mol33_1_14
 34 36 0 0 0
SMALL
USER_CHARGES
****
VDW energy = 58.31
@<TRIPOS>ATOM
   1 N1       -1.0416     2.9353    -0.6465  N.pl3   1  <O>11      -0.3510
   2 C1       -0.5730     1.5759    -0.5515  C.ar    1  <O>11       0.1323
   3 C2        0.6800     1.0694     0.1874  C.ar    1  <O>11       0.0701
   4 N2        1.7430     1.8830     0.7200  N.pl3   1  <O>11      -0.3117
   5 C3        2.8904     2.2099    -0.1063  C.ar    1  <O>11       0.0455
   6 C4        2.7820     2.1966    -1.5080  C.ar    1  <O>11      -0.0397
   7 C5        3.8922     2.4997    -2.3041  C.ar    1  <O>11      -0.0600
   8 C6        5.1158     2.8220    -1.7113  C.ar    1  <O>11      -0.0609
   9 C7        5.2209     2.8419    -0.3159  C.ar    1  <O>11      -0.0460
  10 C8        4.1198     2.5420     0.4868  C.ar    1  <O>11       0.0799
  11 C9        4.2277     2.5688     1.9297  C.2     1  <O>11       0.3386
  12 O1        3.4107     1.9719     2.6139  O.2     1  <O>11      -0.2451
  13 O2        5.2346     3.2560     2.5208  O.3     1  <O>11      -0.4771
  14 C10       0.7349    -0.4680     0.3350  C.ar    1  <O>11       0.0405
  15 C11       1.7678    -0.9460     1.3794  C.ar    1  <O>11      -0.0492
  16 C12       1.2888    -0.7731     2.8287  C.ar    1  <O>11      -0.0609
  17 C13      -0.0890    -1.4086     3.0474  C.ar    1  <O>11      -0.0582
  18 C14      -1.1225    -0.8741     2.0475  C.ar    1  <O>11      -0.0186
  19 C15      -0.6733    -1.0760     0.5906  C.ar    1  <O>11       0.1409
  20 O3       -1.7385    -0.5809    -0.2821  O.2     1  <O>11      -0.4208
  21 C16      -1.3512     0.4485    -1.2339  C.ar    1  <O>11       0.3601
  22 O4       -1.6242     0.4671    -2.6151  O.2     1  <O>11      -0.2430
  23 H1       -1.8920     3.1462    -1.1686  H       1  <O>11       0.1426
  24 H2       -0.5228     3.6865    -0.1916  H       1  <O>11       0.1426
  25 H3        1.6890     2.2303     1.6779  H       1  <O>11       0.1522
  26 H4        5.7875     3.6701     1.8405  H       1  <O>11       0.2954
  27 H5        1.8801     1.9625    -1.9515  H       1  <O>11       0.0636
  28 H6        3.8070     2.4852    -3.3324  H       1  <O>11       0.0618
  29 H7        5.9355     3.0437    -2.2978  H       1  <O>11       0.0618
  30 H8        6.1231     3.0810     0.1244  H       1  <O>11       0.0626
  31 H9        2.6873    -1.3418     1.1287  H       1  <O>11       0.0625
  32 H10       1.8277    -0.2892     3.5639  H       1  <O>11       0.0618
  33 H11      -0.2956    -2.1090     3.7767  H       1  <O>11       0.0619
  34 H12      -2.0139    -0.4314     2.3203  H       1  <O>11       0.0654
@<TRIPOS>BOND
     1     1     2    1
     2     2     3   ar
     3     3     4    1
     4     4     5    1
     5     5     6   ar
     6     6     7   ar
     7     7     8   ar
     8     8     9   ar
     9     9    10   ar
    10     5    10   ar
    11    10    11    1
    12    11    12    2
    13    11    13    1
    14     3    14   ar
    15    14    15   ar
    16    15    16   ar
    17    16    17   ar
    18    17    18   ar
    19    18    19   ar
    20    14    19   ar
    21    19    20   ar
    22    20    21   ar
    23     2    21   ar
    24    21    22    2
    25     1    23    1
    26     1    24    1
    27     4    25    1
    28    13    26    1
    29     6    27    1
    30     7    28    1
    31     8    29    1
    32     9    30    1
    33    15    31    1
    34    16    32    1
    35    17    33    1
    36    18    34    1
@<TRIPOS>MOLECULE
mol33_1_15
 34 36 0 0 0
SMALL
USER_CHARGES
****
VDW energy = 59.81
@<TRIPOS>ATOM
   1 N1       -1.0416     2.9353    -0.6465  N.pl3   1  <O>11      -0.3510
   2 C1       -0.5730     1.5759    -0.5515  C.ar    1  <O>11       0.1323
   3 C2        0.6800     1.0694     0.1874  C.ar    1  <O>11       0.0701
   4 N2        1.7430     1.8830     0.7200  N.pl3   1  <O>11      -0.3117
   5 C3        1.4795     2.7923     1.8199  C.ar    1  <O>11       0.0455
   6 C4        0.4014     2.5580     2.6914  C.ar    1  <O>11      -0.0397
   7 C5        0.1406     3.4421     3.7442  C.ar    1  <O>11      -0.0600
   8 C6        0.9526     4.5623     3.9395  C.ar    1  <O>11      -0.0609
   9 C7        2.0297     4.7910     3.0758  C.ar    1  <O>11      -0.0460
  10 C8        2.2988     3.9151     2.0236  C.ar    1  <O>11       0.0799
  11 C9        3.4166     4.1489     1.1347  C.2     1  <O>11       0.3386
  12 O1        3.4415     3.6208     0.0336  O.2     1  <O>11      -0.2451
  13 O2        4.4349     4.9532     1.5242  O.3     1  <O>11      -0.4771
  14 C10       0.7349    -0.4680     0.3350  C.ar    1  <O>11       0.0405
  15 C11       1.7678    -0.9460     1.3794  C.ar    1  <O>11      -0.0492
  16 C12       1.2888    -0.7731     2.8287  C.ar    1  <O>11      -0.0609
  17 C13      -0.0890    -1.4086     3.0474  C.ar    1  <O>11      -0.0582
  18 C14      -1.1225    -0.8741     2.0475  C.ar    1  <O>11      -0.0186
  19 C15      -0.6733    -1.0760     0.5906  C.ar    1  <O>11       0.1409
  20 O3       -1.7385    -0.5809    -0.2821  O.2     1  <O>11      -0.4208
  21 C16      -1.3512     0.4485    -1.2339  C.ar    1  <O>11       0.3601
  22 O4       -1.6242     0.4671    -2.6151  O.2     1  <O>11      -0.2430
  23 H1       -1.8920     3.1462    -1.1686  H       1  <O>11       0.1426
  24 H2       -0.5228     3.6865    -0.1916  H       1  <O>11       0.1426
  25 H3        2.6815     1.8195     0.3246  H       1  <O>11       0.1522
  26 H4        4.2610     5.2865     2.4179  H       1  <O>11       0.2954
  27 H5       -0.1998     1.7306     2.5542  H       1  <O>11       0.0636
  28 H6       -0.6543     3.2662     4.3786  H       1  <O>11       0.0618
  29 H7        0.7595     5.2159     4.7146  H       1  <O>11       0.0618
  30 H8        2.6319     5.6169     3.2188  H       1  <O>11       0.0626
  31 H9        2.6873    -1.3418     1.1287  H       1  <O>11       0.0625
  32 H10       1.8277    -0.2892     3.5639  H       1  <O>11       0.0618
  33 H11      -0.2956    -2.1090     3.7767  H       1  <O>11       0.0619
  34 H12      -2.0139    -0.4314     2.3203  H       1  <O>11       0.0654
@<TRIPOS>BOND
     1     1     2    1
     2     2     3   ar
     3     3     4    1
     4     4     5    1
     5     5     6   ar
     6     6     7   ar
     7     7     8   ar
     8     8     9   ar
     9     9    10   ar
    10     5    10   ar
    11    10    11    1
    12    11    12    2
    13    11    13    1
    14     3    14   ar
    15    14    15   ar
    16    15    16   ar
    17    16    17   ar
    18    17    18   ar
    19    18    19   ar
    20    14    19   ar
    21    19    20   ar
    22    20    21   ar
    23     2    21   ar
    24    21    22    2
    25     1    23    1
    26     1    24    1
    27     4    25    1
    28    13    26    1
    29     6    27    1
    30     7    28    1
    31     8    29    1
    32     9    30    1
    33    15    31    1
    34    16    32    1
    35    17    33    1
    36    18    34    1
@<TRIPOS>MOLECULE
mol33_1_16
 34 36 0 0 0
SMALL
USER_CHARGES
****
VDW energy = 60.18
@<TRIPOS>ATOM
   1 N1       -1.0416     2.9353    -0.6465  N.pl3   1  <O>11      -0.3510
   2 C1       -0.5730     1.5759    -0.5515  C.ar    1  <O>11       0.1323
   3 C2        0.6800     1.0694     0.1874  C.ar    1  <O>11       0.0701
   4 N2        1.7430     1.8830     0.7200  N.pl3   1  <O>11      -0.3117
   5 C3        3.0798     1.3341     0.8537  C.ar    1  <O>11       0.0455
   6 C4        3.6473     1.1509     2.1269  C.ar    1  <O>11      -0.0397
   7 C5        4.9411     0.6332     2.2545  C.ar    1  <O>11      -0.0600
   8 C6        5.6768     0.2905     1.1171  C.ar    1  <O>11      -0.0609
   9 C7        5.1084     0.4665    -0.1495  C.ar    1  <O>11      -0.0460
  10 C8        3.8189     0.9811    -0.2876  C.ar    1  <O>11       0.0799
  11 C9        3.2295     1.1570    -1.5975  C.2     1  <O>11       0.3386
  12 O1        2.5850     0.2510    -2.1033  O.2     1  <O>11      -0.2451
  13 O2        3.3928     2.3262    -2.2622  O.3     1  <O>11      -0.4771
  14 C10       0.7349    -0.4680     0.3350  C.ar    1  <O>11       0.0405
  15 C11       1.7678    -0.9460     1.3794  C.ar    1  <O>11      -0.0492
  16 C12       1.2888    -0.7731     2.8287  C.ar    1  <O>11      -0.0609
  17 C13      -0.0890    -1.4086     3.0474  C.ar    1  <O>11      -0.0582
  18 C14      -1.1225    -0.8741     2.0475  C.ar    1  <O>11      -0.0186
  19 C15      -0.6733    -1.0760     0.5906  C.ar    1  <O>11       0.1409
  20 O3       -1.7385    -0.5809    -0.2821  O.2     1  <O>11      -0.4208
  21 C16      -1.3512     0.4485    -1.2339  C.ar    1  <O>11       0.3601
  22 O4       -1.6242     0.4671    -2.6151  O.2     1  <O>11      -0.2430
  23 H1       -1.8920     3.1462    -1.1686  H       1  <O>11       0.1426
  24 H2       -0.5228     3.6865    -0.1916  H       1  <O>11       0.1426
  25 H3        1.5565     2.8456     1.0025  H       1  <O>11       0.1522
  26 H4        3.9270     2.9320    -1.7258  H       1  <O>11       0.2954
  27 H5        3.1076     1.3991     2.9707  H       1  <O>11       0.0636
  28 H6        5.3533     0.5041     3.1917  H       1  <O>11       0.0618
  29 H7        6.6318    -0.0895     1.2104  H       1  <O>11       0.0618
  30 H8        5.6492     0.2128    -0.9911  H       1  <O>11       0.0626
  31 H9        2.6873    -1.3418     1.1287  H       1  <O>11       0.0625
  32 H10       1.8277    -0.2892     3.5639  H       1  <O>11       0.0618
  33 H11      -0.2956    -2.1090     3.7767  H       1  <O>11       0.0619
  34 H12      -2.0139    -0.4314     2.3203  H       1  <O>11       0.0654
@<TRIPOS>BOND
     1     1     2    1
     2     2     3   ar
     3     3     4    1
     4     4     5    1
     5     5     6   ar
     6     6     7   ar
     7     7     8   ar
     8     8     9   ar
     9     9    10   ar
    10     5    10   ar
    11    10    11    1
    12    11    12    2
    13    11    13    1
    14     3    14   ar
    15    14    15   ar
    16    15    16   ar
    17    16    17   ar
    18    17    18   ar
    19    18    19   ar
    20    14    19   ar
    21    19    20   ar
    22    20    21   ar
    23     2    21   ar
    24    21    22    2
    25     1    23    1
    26     1    24    1
    27     4    25    1
    28    13    26    1
    29     6    27    1
    30     7    28    1
    31     8    29    1
    32     9    30    1
    33    15    31    1
    34    16    32    1
    35    17    33    1
    36    18    34    1
@<TRIPOS>MOLECULE
mol33_1_17
 34 36 0 0 0
SMALL
USER_CHARGES
****
VDW energy = 60.66
@<TRIPOS>ATOM
   1 N1       -1.0416     2.9353    -0.6465  N.pl3   1  <O>11      -0.3510
   2 C1       -0.5730     1.5759    -0.5515  C.ar    1  <O>11       0.1323
   3 C2        0.6800     1.0694     0.1874  C.ar    1  <O>11       0.0701
   4 N2        1.7430     1.8830     0.7200  N.pl3   1  <O>11      -0.3117
   5 C3        2.8904     2.2099    -0.1063  C.ar    1  <O>11       0.0455
   6 C4        4.0189     1.3713    -0.1169  C.ar    1  <O>11      -0.0397
   7 C5        5.1298     1.6939    -0.9043  C.ar    1  <O>11      -0.0600
   8 C6        5.1238     2.8498    -1.6893  C.ar    1  <O>11      -0.0609
   9 C7        3.9973     3.6802    -1.6835  C.ar    1  <O>11      -0.0460
  10 C8        2.8843     3.3672    -0.9026  C.ar    1  <O>11       0.0799
  11 C9        1.7173     4.2231    -0.9020  C.2     1  <O>11       0.3386
  12 O1        0.8178     4.0291    -1.7053  O.2     1  <O>11      -0.2451
  13 O2        1.6231     5.2391    -0.0107  O.3     1  <O>11      -0.4771
  14 C10       0.7349    -0.4680     0.3350  C.ar    1  <O>11       0.0405
  15 C11       1.7678    -0.9460     1.3794  C.ar    1  <O>11      -0.0492
  16 C12       1.2888    -0.7731     2.8287  C.ar    1  <O>11      -0.0609
  17 C13      -0.0890    -1.4086     3.0474  C.ar    1  <O>11      -0.0582
  18 C14      -1.1225    -0.8741     2.0475  C.ar    1  <O>11      -0.0186
  19 C15      -0.6733    -1.0760     0.5906  C.ar    1  <O>11       0.1409
  20 O3       -1.7385    -0.5809    -0.2821  O.2     1  <O>11      -0.4208
  21 C16      -1.3512     0.4485    -1.2339  C.ar    1  <O>11       0.3601
  22 O4       -1.6242     0.4671    -2.6151  O.2     1  <O>11      -0.2430
  23 H1       -1.8920     3.1462    -1.1686  H       1  <O>11       0.1426
  24 H2       -0.5228     3.6865    -0.1916  H       1  <O>11       0.1426
  25 H3        1.6890     2.2303     1.6779  H       1  <O>11       0.1522
  26 H4        2.4157     5.2550     0.5476  H       1  <O>11       0.2954
  27 H5        4.0279     0.5145     0.4582  H       1  <O>11       0.0636
  28 H6        5.9563     1.0759    -0.9053  H       1  <O>11       0.0618
  29 H7        5.9435     3.0893    -2.2687  H       1  <O>11       0.0618
  30 H8        3.9898     4.5338    -2.2635  H       1  <O>11       0.0626
  31 H9        2.6873    -1.3418     1.1287  H       1  <O>11       0.0625
  32 H10       1.8277    -0.2892     3.5639  H       1  <O>11       0.0618
  33 H11      -0.2956    -2.1090     3.7767  H       1  <O>11       0.0619
  34 H12      -2.0139    -0.4314     2.3203  H       1  <O>11       0.0654
@<TRIPOS>BOND
     1     1     2    1
     2     2     3   ar
     3     3     4    1
     4     4     5    1
     5     5     6   ar
     6     6     7   ar
     7     7     8   ar
     8     8     9   ar
     9     9    10   ar
    10     5    10   ar
    11    10    11    1
    12    11    12    2
    13    11    13    1
    14     3    14   ar
    15    14    15   ar
    16    15    16   ar
    17    16    17   ar
    18    17    18   ar
    19    18    19   ar
    20    14    19   ar
    21    19    20   ar
    22    20    21   ar
    23     2    21   ar
    24    21    22    2
    25     1    23    1
    26     1    24    1
    27     4    25    1
    28    13    26    1
    29     6    27    1
    30     7    28    1
    31     8    29    1
    32     9    30    1
    33    15    31    1
    34    16    32    1
    35    17    33    1
    36    18    34    1
@<TRIPOS>MOLECULE
mol33_1_18
 34 36 0 0 0
SMALL
USER_CHARGES
****
VDW energy = 61.24
@<TRIPOS>ATOM
   1 N1       -1.0416     2.9353    -0.6465  N.pl3   1  <O>11      -0.3510
   2 C1       -0.5730     1.5759    -0.5515  C.ar    1  <O>11       0.1323
   3 C2        0.6800     1.0694     0.1874  C.ar    1  <O>11       0.0701
   4 N2        1.7430     1.8830     0.7200  N.pl3   1  <O>11      -0.3117
   5 C3        3.0798     1.3341     0.8537  C.ar    1  <O>11       0.0455
   6 C4        3.6473     1.1509     2.1269  C.ar    1  <O>11      -0.0397
   7 C5        4.9411     0.6332     2.2545  C.ar    1  <O>11      -0.0600
   8 C6        5.6768     0.2905     1.1171  C.ar    1  <O>11      -0.0609
   9 C7        5.1084     0.4665    -0.1495  C.ar    1  <O>11      -0.0460
  10 C8        3.8189     0.9811    -0.2876  C.ar    1  <O>11       0.0799
  11 C9        3.2295     1.1570    -1.5975  C.2     1  <O>11       0.3386
  12 O1        2.9053     0.1812    -2.2569  O.2     1  <O>11      -0.2451
  13 O2        3.0375     2.4037    -2.0919  O.3     1  <O>11      -0.4771
  14 C10       0.7349    -0.4680     0.3350  C.ar    1  <O>11       0.0405
  15 C11       1.7678    -0.9460     1.3794  C.ar    1  <O>11      -0.0492
  16 C12       1.2888    -0.7731     2.8287  C.ar    1  <O>11      -0.0609
  17 C13      -0.0890    -1.4086     3.0474  C.ar    1  <O>11      -0.0582
  18 C14      -1.1225    -0.8741     2.0475  C.ar    1  <O>11      -0.0186
  19 C15      -0.6733    -1.0760     0.5906  C.ar    1  <O>11       0.1409
  20 O3       -1.7385    -0.5809    -0.2821  O.2     1  <O>11      -0.4208
  21 C16      -1.3512     0.4485    -1.2339  C.ar    1  <O>11       0.3601
  22 O4       -1.6242     0.4671    -2.6151  O.2     1  <O>11      -0.2430
  23 H1       -1.8920     3.1462    -1.1686  H       1  <O>11       0.1426
  24 H2       -0.5228     3.6865    -0.1916  H       1  <O>11       0.1426
  25 H3        1.5565     2.8456     1.0025  H       1  <O>11       0.1522
  26 H4        3.3487     3.0589    -1.4486  H       1  <O>11       0.2954
  27 H5        3.1076     1.3991     2.9707  H       1  <O>11       0.0636
  28 H6        5.3533     0.5041     3.1917  H       1  <O>11       0.0618
  29 H7        6.6318    -0.0895     1.2104  H       1  <O>11       0.0618
  30 H8        5.6492     0.2128    -0.9911  H       1  <O>11       0.0626
  31 H9        2.6873    -1.3418     1.1287  H       1  <O>11       0.0625
  32 H10       1.8277    -0.2892     3.5639  H       1  <O>11       0.0618
  33 H11      -0.2956    -2.1090     3.7767  H       1  <O>11       0.0619
  34 H12      -2.0139    -0.4314     2.3203  H       1  <O>11       0.0654
@<TRIPOS>BOND
     1     1     2    1
     2     2     3   ar
     3     3     4    1
     4     4     5    1
     5     5     6   ar
     6     6     7   ar
     7     7     8   ar
     8     8     9   ar
     9     9    10   ar
    10     5    10   ar
    11    10    11    1
    12    11    12    2
    13    11    13    1
    14     3    14   ar
    15    14    15   ar
    16    15    16   ar
    17    16    17   ar
    18    17    18   ar
    19    18    19   ar
    20    14    19   ar
    21    19    20   ar
    22    20    21   ar
    23     2    21   ar
    24    21    22    2
    25     1    23    1
    26     1    24    1
    27     4    25    1
    28    13    26    1
    29     6    27    1
    30     7    28    1
    31     8    29    1
    32     9    30    1
    33    15    31    1
    34    16    32    1
    35    17    33    1
    36    18    34    1
@<TRIPOS>MOLECULE
mol33_1_19
 34 36 0 0 0
SMALL
USER_CHARGES
****
VDW energy = 62.20
@<TRIPOS>ATOM
   1 N1       -1.0416     2.9353    -0.6465  N.pl3   1  <O>11      -0.3510
   2 C1       -0.5730     1.5759    -0.5515  C.ar    1  <O>11       0.1323
   3 C2        0.6800     1.0694     0.1874  C.ar    1  <O>11       0.0701
   4 N2        1.7430     1.8830     0.7200  N.pl3   1  <O>11      -0.3117
   5 C3        3.0798     1.3341     0.8537  C.ar    1  <O>11       0.0455
   6 C4        3.6473     1.1509     2.1269  C.ar    1  <O>11      -0.0397
   7 C5        4.9411     0.6332     2.2545  C.ar    1  <O>11      -0.0600
   8 C6        5.6768     0.2905     1.1171  C.ar    1  <O>11      -0.0609
   9 C7        5.1084     0.4665    -0.1495  C.ar    1  <O>11      -0.0460
  10 C8        3.8189     0.9811    -0.2876  C.ar    1  <O>11       0.0799
  11 C9        3.2295     1.1570    -1.5975  C.2     1  <O>11       0.3386
  12 O1        3.3768     2.2113    -2.1965  O.2     1  <O>11      -0.2451
  13 O2        2.5145     0.1524    -2.1588  O.3     1  <O>11      -0.4771
  14 C10       0.7349    -0.4680     0.3350  C.ar    1  <O>11       0.0405
  15 C11       1.7678    -0.9460     1.3794  C.ar    1  <O>11      -0.0492
  16 C12       1.2888    -0.7731     2.8287  C.ar    1  <O>11      -0.0609
  17 C13      -0.0890    -1.4086     3.0474  C.ar    1  <O>11      -0.0582
  18 C14      -1.1225    -0.8741     2.0475  C.ar    1  <O>11      -0.0186
  19 C15      -0.6733    -1.0760     0.5906  C.ar    1  <O>11       0.1409
  20 O3       -1.7385    -0.5809    -0.2821  O.2     1  <O>11      -0.4208
  21 C16      -1.3512     0.4485    -1.2339  C.ar    1  <O>11       0.3601
  22 O4       -1.6242     0.4671    -2.6151  O.2     1  <O>11      -0.2430
  23 H1       -1.8920     3.1462    -1.1686  H       1  <O>11       0.1426
  24 H2       -0.5228     3.6865    -0.1916  H       1  <O>11       0.1426
  25 H3        1.5565     2.8456     1.0025  H       1  <O>11       0.1522
  26 H4        2.4930    -0.6064    -1.5556  H       1  <O>11       0.2954
  27 H5        3.1076     1.3991     2.9707  H       1  <O>11       0.0636
  28 H6        5.3533     0.5041     3.1917  H       1  <O>11       0.0618
  29 H7        6.6318    -0.0895     1.2104  H       1  <O>11       0.0618
  30 H8        5.6492     0.2128    -0.9911  H       1  <O>11       0.0626
  31 H9        2.6873    -1.3418     1.1287  H       1  <O>11       0.0625
  32 H10       1.8277    -0.2892     3.5639  H       1  <O>11       0.0618
  33 H11      -0.2956    -2.1090     3.7767  H       1  <O>11       0.0619
  34 H12      -2.0139    -0.4314     2.3203  H       1  <O>11       0.0654
@<TRIPOS>BOND
     1     1     2    1
     2     2     3   ar
     3     3     4    1
     4     4     5    1
     5     5     6   ar
     6     6     7   ar
     7     7     8   ar
     8     8     9   ar
     9     9    10   ar
    10     5    10   ar
    11    10    11    1
    12    11    12    2
    13    11    13    1
    14     3    14   ar
    15    14    15   ar
    16    15    16   ar
    17    16    17   ar
    18    17    18   ar
    19    18    19   ar
    20    14    19   ar
    21    19    20   ar
    22    20    21   ar
    23     2    21   ar
    24    21    22    2
    25     1    23    1
    26     1    24    1
    27     4    25    1
    28    13    26    1
    29     6    27    1
    30     7    28    1
    31     8    29    1
    32     9    30    1
    33    15    31    1
    34    16    32    1
    35    17    33    1
    36    18    34    1
@<TRIPOS>MOLECULE
mol33_1_20
 34 36 0 0 0
SMALL
USER_CHARGES
****
VDW energy = 67.63
@<TRIPOS>ATOM
   1 N1       -1.0416     2.9353    -0.6465  N.pl3   1  <O>11      -0.3510
   2 C1       -0.5730     1.5759    -0.5515  C.ar    1  <O>11       0.1323
   3 C2        0.6800     1.0694     0.1874  C.ar    1  <O>11       0.0701
   4 N2        1.7430     1.8830     0.7200  N.pl3   1  <O>11      -0.3117
   5 C3        2.5958     2.6410    -0.1768  C.ar    1  <O>11       0.0455
   6 C4        2.1352     3.0064    -1.4540  C.ar    1  <O>11      -0.0397
   7 C5        2.9628     3.7264    -2.3228  C.ar    1  <O>11      -0.0600
   8 C6        4.2517     4.0912    -1.9255  C.ar    1  <O>11      -0.0609
   9 C7        4.7068     3.7332    -0.6515  C.ar    1  <O>11      -0.0460
  10 C8        3.8893     3.0160     0.2226  C.ar    1  <O>11       0.0799
  11 C9        4.3584     2.6516     1.5423  C.2     1  <O>11       0.3386
  12 O1        3.6312     2.0238     2.2967  O.2     1  <O>11      -0.2451
  13 O2        5.6037     3.0069     1.9404  O.3     1  <O>11      -0.4771
  14 C10       0.7349    -0.4680     0.3350  C.ar    1  <O>11       0.0405
  15 C11       1.7678    -0.9460     1.3794  C.ar    1  <O>11      -0.0492
  16 C12       1.2888    -0.7731     2.8287  C.ar    1  <O>11      -0.0609
  17 C13      -0.0890    -1.4086     3.0474  C.ar    1  <O>11      -0.0582
  18 C14      -1.1225    -0.8741     2.0475  C.ar    1  <O>11      -0.0186
  19 C15      -0.6733    -1.0760     0.5906  C.ar    1  <O>11       0.1409
  20 O3       -1.7385    -0.5809    -0.2821  O.2     1  <O>11      -0.4208
  21 C16      -1.3512     0.4485    -1.2339  C.ar    1  <O>11       0.3601
  22 O4       -1.6242     0.4671    -2.6151  O.2     1  <O>11      -0.2430
  23 H1       -1.8920     3.1462    -1.1686  H       1  <O>11       0.1426
  24 H2       -0.5228     3.6865    -0.1916  H       1  <O>11       0.1426
  25 H3        1.8960     1.9272     1.7279  H       1  <O>11       0.1522
  26 H4        6.0436     3.4978     1.2293  H       1  <O>11       0.2954
  27 H5        1.1830     2.7426    -1.7518  H       1  <O>11       0.0636
  28 H6        2.6199     3.9889    -3.2602  H       1  <O>11       0.0618
  29 H7        4.8633     4.6205    -2.5666  H       1  <O>11       0.0618
  30 H8        5.6579     4.0027    -0.3551  H       1  <O>11       0.0626
  31 H9        2.6873    -1.3418     1.1287  H       1  <O>11       0.0625
  32 H10       1.8277    -0.2892     3.5639  H       1  <O>11       0.0618
  33 H11      -0.2956    -2.1090     3.7767  H       1  <O>11       0.0619
  34 H12      -2.0139    -0.4314     2.3203  H       1  <O>11       0.0654
@<TRIPOS>BOND
     1     1     2    1
     2     2     3   ar
     3     3     4    1
     4     4     5    1
     5     5     6   ar
     6     6     7   ar
     7     7     8   ar
     8     8     9   ar
     9     9    10   ar
    10     5    10   ar
    11    10    11    1
    12    11    12    2
    13    11    13    1
    14     3    14   ar
    15    14    15   ar
    16    15    16   ar
    17    16    17   ar
    18    17    18   ar
    19    18    19   ar
    20    14    19   ar
    21    19    20   ar
    22    20    21   ar
    23     2    21   ar
    24    21    22    2
    25     1    23    1
    26     1    24    1
    27     4    25    1
    28    13    26    1
    29     6    27    1
    30     7    28    1
    31     8    29    1
    32     9    30    1
    33    15    31    1
    34    16    32    1
    35    17    33    1
    36    18    34    1
@<TRIPOS>MOLECULE
mol33_1_21
 34 36 0 0 0
SMALL
USER_CHARGES
****
VDW energy = 70.91
@<TRIPOS>ATOM
   1 N1       -1.0416     2.9353    -0.6465  N.pl3   1  <O>11      -0.3510
   2 C1       -0.5730     1.5759    -0.5515  C.ar    1  <O>11       0.1323
   3 C2        0.6800     1.0694     0.1874  C.ar    1  <O>11       0.0701
   4 N2        1.7430     1.8830     0.7200  N.pl3   1  <O>11      -0.3117
   5 C3        2.8904     2.2099    -0.1063  C.ar    1  <O>11       0.0455
   6 C4        4.1657     1.7190     0.2245  C.ar    1  <O>11      -0.0397
   7 C5        5.2736     2.0449    -0.5657  C.ar    1  <O>11      -0.0600
   8 C6        5.1196     2.8574    -1.6920  C.ar    1  <O>11      -0.0609
   9 C7        3.8487     3.3398    -2.0245  C.ar    1  <O>11      -0.0460
  10 C8        2.7375     3.0200    -1.2437  C.ar    1  <O>11       0.0799
  11 C9        1.4226     3.5141    -1.5918  C.2     1  <O>11       0.3386
  12 O1        1.0353     4.5839    -1.1474  O.2     1  <O>11      -0.2451
  13 O2        0.6218     2.7899    -2.4102  O.3     1  <O>11      -0.4771
  14 C10       0.7349    -0.4680     0.3350  C.ar    1  <O>11       0.0405
  15 C11       1.7678    -0.9460     1.3794  C.ar    1  <O>11      -0.0492
  16 C12       1.2888    -0.7731     2.8287  C.ar    1  <O>11      -0.0609
  17 C13      -0.0890    -1.4086     3.0474  C.ar    1  <O>11      -0.0582
  18 C14      -1.1225    -0.8741     2.0475  C.ar    1  <O>11      -0.0186
  19 C15      -0.6733    -1.0760     0.5906  C.ar    1  <O>11       0.1409
  20 O3       -1.7385    -0.5809    -0.2821  O.2     1  <O>11      -0.4208
  21 C16      -1.3512     0.4485    -1.2339  C.ar    1  <O>11       0.3601
  22 O4       -1.6242     0.4671    -2.6151  O.2     1  <O>11      -0.2430
  23 H1       -1.8920     3.1462    -1.1686  H       1  <O>11       0.1426
  24 H2       -0.5228     3.6865    -0.1916  H       1  <O>11       0.1426
  25 H3        1.6890     2.2303     1.6779  H       1  <O>11       0.1522
  26 H4        1.0763     1.9735    -2.6690  H       1  <O>11       0.2954
  27 H5        4.2852     1.1159     1.0533  H       1  <O>11       0.0636
  28 H6        6.2076     1.6841    -0.3158  H       1  <O>11       0.0618
  29 H7        5.9366     3.0998    -2.2741  H       1  <O>11       0.0618
  30 H8        3.7320     3.9388    -2.8568  H       1  <O>11       0.0626
  31 H9        2.6873    -1.3418     1.1287  H       1  <O>11       0.0625
  32 H10       1.8277    -0.2892     3.5639  H       1  <O>11       0.0618
  33 H11      -0.2956    -2.1090     3.7767  H       1  <O>11       0.0619
  34 H12      -2.0139    -0.4314     2.3203  H       1  <O>11       0.0654
@<TRIPOS>BOND
     1     1     2    1
     2     2     3   ar
     3     3     4    1
     4     4     5    1
     5     5     6   ar
     6     6     7   ar
     7     7     8   ar
     8     8     9   ar
     9     9    10   ar
    10     5    10   ar
    11    10    11    1
    12    11    12    2
    13    11    13    1
    14     3    14   ar
    15    14    15   ar
    16    15    16   ar
    17    16    17   ar
    18    17    18   ar
    19    18    19   ar
    20    14    19   ar
    21    19    20   ar
    22    20    21   ar
    23     2    21   ar
    24    21    22    2
    25     1    23    1
    26     1    24    1
    27     4    25    1
    28    13    26    1
    29     6    27    1
    30     7    28    1
    31     8    29    1
    32     9    30    1
    33    15    31    1
    34    16    32    1
    35    17    33    1
    36    18    34    1
@<TRIPOS>MOLECULE
mol33_1_22
 34 36 0 0 0
SMALL
USER_CHARGES
****
VDW energy = 71.40
@<TRIPOS>ATOM
   1 N1       -1.0416     2.9353    -0.6465  N.pl3   1  <O>11      -0.3510
   2 C1       -0.5730     1.5759    -0.5515  C.ar    1  <O>11       0.1323
   3 C2        0.6800     1.0694     0.1874  C.ar    1  <O>11       0.0701
   4 N2        1.7430     1.8830     0.7200  N.pl3   1  <O>11      -0.3117
   5 C3        3.0798     1.3341     0.8537  C.ar    1  <O>11       0.0455
   6 C4        3.6473     1.1509     2.1269  C.ar    1  <O>11      -0.0397
   7 C5        4.9411     0.6332     2.2545  C.ar    1  <O>11      -0.0600
   8 C6        5.6768     0.2905     1.1171  C.ar    1  <O>11      -0.0609
   9 C7        5.1084     0.4665    -0.1495  C.ar    1  <O>11      -0.0460
  10 C8        3.8189     0.9811    -0.2876  C.ar    1  <O>11       0.0799
  11 C9        3.2295     1.1570    -1.5975  C.2     1  <O>11       0.3386
  12 O1        2.2876     1.9207    -1.7454  O.2     1  <O>11      -0.2451
  13 O2        3.7223     0.4747    -2.6591  O.3     1  <O>11      -0.4771
  14 C10       0.7349    -0.4680     0.3350  C.ar    1  <O>11       0.0405
  15 C11       1.7678    -0.9460     1.3794  C.ar    1  <O>11      -0.0492
  16 C12       1.2888    -0.7731     2.8287  C.ar    1  <O>11      -0.0609
  17 C13      -0.0890    -1.4086     3.0474  C.ar    1  <O>11      -0.0582
  18 C14      -1.1225    -0.8741     2.0475  C.ar    1  <O>11      -0.0186
  19 C15      -0.6733    -1.0760     0.5906  C.ar    1  <O>11       0.1409
  20 O3       -1.7385    -0.5809    -0.2821  O.2     1  <O>11      -0.4208
  21 C16      -1.3512     0.4485    -1.2339  C.ar    1  <O>11       0.3601
  22 O4       -1.6242     0.4671    -2.6151  O.2     1  <O>11      -0.2430
  23 H1       -1.8920     3.1462    -1.1686  H       1  <O>11       0.1426
  24 H2       -0.5228     3.6865    -0.1916  H       1  <O>11       0.1426
  25 H3        1.5565     2.8456     1.0025  H       1  <O>11       0.1522
  26 H4        4.4605    -0.0841    -2.3708  H       1  <O>11       0.2954
  27 H5        3.1076     1.3991     2.9707  H       1  <O>11       0.0636
  28 H6        5.3533     0.5041     3.1917  H       1  <O>11       0.0618
  29 H7        6.6318    -0.0895     1.2104  H       1  <O>11       0.0618
  30 H8        5.6492     0.2128    -0.9911  H       1  <O>11       0.0626
  31 H9        2.6873    -1.3418     1.1287  H       1  <O>11       0.0625
  32 H10       1.8277    -0.2892     3.5639  H       1  <O>11       0.0618
  33 H11      -0.2956    -2.1090     3.7767  H       1  <O>11       0.0619
  34 H12      -2.0139    -0.4314     2.3203  H       1  <O>11       0.0654
@<TRIPOS>BOND
     1     1     2    1
     2     2     3   ar
     3     3     4    1
     4     4     5    1
     5     5     6   ar
     6     6     7   ar
     7     7     8   ar
     8     8     9   ar
     9     9    10   ar
    10     5    10   ar
    11    10    11    1
    12    11    12    2
    13    11    13    1
    14     3    14   ar
    15    14    15   ar
    16    15    16   ar
    17    16    17   ar
    18    17    18   ar
    19    18    19   ar
    20    14    19   ar
    21    19    20   ar
    22    20    21   ar
    23     2    21   ar
    24    21    22    2
    25     1    23    1
    26     1    24    1
    27     4    25    1
    28    13    26    1
    29     6    27    1
    30     7    28    1
    31     8    29    1
    32     9    30    1
    33    15    31    1
    34    16    32    1
    35    17    33    1
    36    18    34    1
@<TRIPOS>MOLECULE
mol33_1_23
 34 36 0 0 0
SMALL
USER_CHARGES
****
VDW energy = 72.09
@<TRIPOS>ATOM
   1 N1       -1.0416     2.9353    -0.6465  N.pl3   1  <O>11      -0.3510
   2 C1       -0.5730     1.5759    -0.5515  C.ar    1  <O>11       0.1323
   3 C2        0.6800     1.0694     0.1874  C.ar    1  <O>11       0.0701
   4 N2        1.7430     1.8830     0.7200  N.pl3   1  <O>11      -0.3117
   5 C3        3.0798     1.3341     0.8537  C.ar    1  <O>11       0.0455
   6 C4        3.6473     1.1509     2.1269  C.ar    1  <O>11      -0.0397
   7 C5        4.9411     0.6332     2.2545  C.ar    1  <O>11      -0.0600
   8 C6        5.6768     0.2905     1.1171  C.ar    1  <O>11      -0.0609
   9 C7        5.1084     0.4665    -0.1495  C.ar    1  <O>11      -0.0460
  10 C8        3.8189     0.9811    -0.2876  C.ar    1  <O>11       0.0799
  11 C9        3.2295     1.1570    -1.5975  C.2     1  <O>11       0.3386
  12 O1        3.6508     2.0268    -2.3445  O.2     1  <O>11      -0.2451
  13 O2        2.2107     0.3571    -1.9946  O.3     1  <O>11      -0.4771
  14 C10       0.7349    -0.4680     0.3350  C.ar    1  <O>11       0.0405
  15 C11       1.7678    -0.9460     1.3794  C.ar    1  <O>11      -0.0492
  16 C12       1.2888    -0.7731     2.8287  C.ar    1  <O>11      -0.0609
  17 C13      -0.0890    -1.4086     3.0474  C.ar    1  <O>11      -0.0582
  18 C14      -1.1225    -0.8741     2.0475  C.ar    1  <O>11      -0.0186
  19 C15      -0.6733    -1.0760     0.5906  C.ar    1  <O>11       0.1409
  20 O3       -1.7385    -0.5809    -0.2821  O.2     1  <O>11      -0.4208
  21 C16      -1.3512     0.4485    -1.2339  C.ar    1  <O>11       0.3601
  22 O4       -1.6242     0.4671    -2.6151  O.2     1  <O>11      -0.2430
  23 H1       -1.8920     3.1462    -1.1686  H       1  <O>11       0.1426
  24 H2       -0.5228     3.6865    -0.1916  H       1  <O>11       0.1426
  25 H3        1.5565     2.8456     1.0025  H       1  <O>11       0.1522
  26 H4        1.9986    -0.2724    -1.2883  H       1  <O>11       0.2954
  27 H5        3.1076     1.3991     2.9707  H       1  <O>11       0.0636
  28 H6        5.3533     0.5041     3.1917  H       1  <O>11       0.0618
  29 H7        6.6318    -0.0895     1.2104  H       1  <O>11       0.0618
  30 H8        5.6492     0.2128    -0.9911  H       1  <O>11       0.0626
  31 H9        2.6873    -1.3418     1.1287  H       1  <O>11       0.0625
  32 H10       1.8277    -0.2892     3.5639  H       1  <O>11       0.0618
  33 H11      -0.2956    -2.1090     3.7767  H       1  <O>11       0.0619
  34 H12      -2.0139    -0.4314     2.3203  H       1  <O>11       0.0654
@<TRIPOS>BOND
     1     1     2    1
     2     2     3   ar
     3     3     4    1
     4     4     5    1
     5     5     6   ar
     6     6     7   ar
     7     7     8   ar
     8     8     9   ar
     9     9    10   ar
    10     5    10   ar
    11    10    11    1
    12    11    12    2
    13    11    13    1
    14     3    14   ar
    15    14    15   ar
    16    15    16   ar
    17    16    17   ar
    18    17    18   ar
    19    18    19   ar
    20    14    19   ar
    21    19    20   ar
    22    20    21   ar
    23     2    21   ar
    24    21    22    2
    25     1    23    1
    26     1    24    1
    27     4    25    1
    28    13    26    1
    29     6    27    1
    30     7    28    1
    31     8    29    1
    32     9    30    1
    33    15    31    1
    34    16    32    1
    35    17    33    1
    36    18    34    1
@<TRIPOS>MOLECULE
mol33_1_24
 34 36 0 0 0
SMALL
USER_CHARGES
****
VDW energy = 82.55
@<TRIPOS>ATOM
   1 N1       -1.0416     2.9353    -0.6465  N.pl3   1  <O>11      -0.3510
   2 C1       -0.5730     1.5759    -0.5515  C.ar    1  <O>11       0.1323
   3 C2        0.6800     1.0694     0.1874  C.ar    1  <O>11       0.0701
   4 N2        1.7430     1.8830     0.7200  N.pl3   1  <O>11      -0.3117
   5 C3        3.0798     1.3341     0.8537  C.ar    1  <O>11       0.0455
   6 C4        3.4875     0.2556     0.0492  C.ar    1  <O>11      -0.0397
   7 C5        4.7724    -0.2812     0.1875  C.ar    1  <O>11      -0.0600
   8 C6        5.6611     0.2538     1.1236  C.ar    1  <O>11      -0.0609
   9 C7        5.2568     1.3319     1.9191  C.ar    1  <O>11      -0.0460
  10 C8        3.9782     1.8749     1.7884  C.ar    1  <O>11       0.0799
  11 C9        3.5631     2.9937     2.6070  C.2     1  <O>11       0.3386
  12 O1        3.7483     4.1366     2.2177  O.2     1  <O>11      -0.2451
  13 O2        2.9694     2.7732     3.8046  O.3     1  <O>11      -0.4771
  14 C10       0.7349    -0.4680     0.3350  C.ar    1  <O>11       0.0405
  15 C11       1.7678    -0.9460     1.3794  C.ar    1  <O>11      -0.0492
  16 C12       1.2888    -0.7731     2.8287  C.ar    1  <O>11      -0.0609
  17 C13      -0.0890    -1.4086     3.0474  C.ar    1  <O>11      -0.0582
  18 C14      -1.1225    -0.8741     2.0475  C.ar    1  <O>11      -0.0186
  19 C15      -0.6733    -1.0760     0.5906  C.ar    1  <O>11       0.1409
  20 O3       -1.7385    -0.5809    -0.2821  O.2     1  <O>11      -0.4208
  21 C16      -1.3512     0.4485    -1.2339  C.ar    1  <O>11       0.3601
  22 O4       -1.6242     0.4671    -2.6151  O.2     1  <O>11      -0.2430
  23 H1       -1.8920     3.1462    -1.1686  H       1  <O>11       0.1426
  24 H2       -0.5228     3.6865    -0.1916  H       1  <O>11       0.1426
  25 H3        1.5565     2.8456     1.0025  H       1  <O>11       0.1522
  26 H4        2.9009     1.8188     3.9615  H       1  <O>11       0.2954
  27 H5        2.8367    -0.1417    -0.6462  H       1  <O>11       0.0636
  28 H6        5.0645    -1.0750    -0.4038  H       1  <O>11       0.0618
  29 H7        6.6082    -0.1429     1.2275  H       1  <O>11       0.0618
  30 H8        5.9119     1.7298     2.6102  H       1  <O>11       0.0626
  31 H9        2.6873    -1.3418     1.1287  H       1  <O>11       0.0625
  32 H10       1.8277    -0.2892     3.5639  H       1  <O>11       0.0618
  33 H11      -0.2956    -2.1090     3.7767  H       1  <O>11       0.0619
  34 H12      -2.0139    -0.4314     2.3203  H       1  <O>11       0.0654
@<TRIPOS>BOND
     1     1     2    1
     2     2     3   ar
     3     3     4    1
     4     4     5    1
     5     5     6   ar
     6     6     7   ar
     7     7     8   ar
     8     8     9   ar
     9     9    10   ar
    10     5    10   ar
    11    10    11    1
    12    11    12    2
    13    11    13    1
    14     3    14   ar
    15    14    15   ar
    16    15    16   ar
    17    16    17   ar
    18    17    18   ar
    19    18    19   ar
    20    14    19   ar
    21    19    20   ar
    22    20    21   ar
    23     2    21   ar
    24    21    22    2
    25     1    23    1
    26     1    24    1
    27     4    25    1
    28    13    26    1
    29     6    27    1
    30     7    28    1
    31     8    29    1
    32     9    30    1
    33    15    31    1
    34    16    32    1
    35    17    33    1
    36    18    34    1
@<TRIPOS>MOLECULE
mol33_1_25
 34 36 0 0 0
SMALL
USER_CHARGES
****
VDW energy = 83.56
@<TRIPOS>ATOM
   1 N1       -1.0416     2.9353    -0.6465  N.pl3   1  <O>11      -0.3510
   2 C1       -0.5730     1.5759    -0.5515  C.ar    1  <O>11       0.1323
   3 C2        0.6800     1.0694     0.1874  C.ar    1  <O>11       0.0701
   4 N2        1.7430     1.8830     0.7200  N.pl3   1  <O>11      -0.3117
   5 C3        3.0798     1.3341     0.8537  C.ar    1  <O>11       0.0455
   6 C4        3.4875     0.2556     0.0492  C.ar    1  <O>11      -0.0397
   7 C5        4.7724    -0.2812     0.1875  C.ar    1  <O>11      -0.0600
   8 C6        5.6611     0.2538     1.1236  C.ar    1  <O>11      -0.0609
   9 C7        5.2568     1.3319     1.9191  C.ar    1  <O>11      -0.0460
  10 C8        3.9782     1.8749     1.7884  C.ar    1  <O>11       0.0799
  11 C9        3.5631     2.9937     2.6070  C.2     1  <O>11       0.3386
  12 O1        3.0277     2.7945     3.6867  O.2     1  <O>11      -0.2451
  13 O2        3.7683     4.2615     2.1756  O.3     1  <O>11      -0.4771
  14 C10       0.7349    -0.4680     0.3350  C.ar    1  <O>11       0.0405
  15 C11       1.7678    -0.9460     1.3794  C.ar    1  <O>11      -0.0492
  16 C12       1.2888    -0.7731     2.8287  C.ar    1  <O>11      -0.0609
  17 C13      -0.0890    -1.4086     3.0474  C.ar    1  <O>11      -0.0582
  18 C14      -1.1225    -0.8741     2.0475  C.ar    1  <O>11      -0.0186
  19 C15      -0.6733    -1.0760     0.5906  C.ar    1  <O>11       0.1409
  20 O3       -1.7385    -0.5809    -0.2821  O.2     1  <O>11      -0.4208
  21 C16      -1.3512     0.4485    -1.2339  C.ar    1  <O>11       0.3601
  22 O4       -1.6242     0.4671    -2.6151  O.2     1  <O>11      -0.2430
  23 H1       -1.8920     3.1462    -1.1686  H       1  <O>11       0.1426
  24 H2       -0.5228     3.6865    -0.1916  H       1  <O>11       0.1426
  25 H3        1.5565     2.8456     1.0025  H       1  <O>11       0.1522
  26 H4        4.1979     4.2425     1.3066  H       1  <O>11       0.2954
  27 H5        2.8367    -0.1417    -0.6462  H       1  <O>11       0.0636
  28 H6        5.0645    -1.0750    -0.4038  H       1  <O>11       0.0618
  29 H7        6.6082    -0.1429     1.2275  H       1  <O>11       0.0618
  30 H8        5.9119     1.7298     2.6102  H       1  <O>11       0.0626
  31 H9        2.6873    -1.3418     1.1287  H       1  <O>11       0.0625
  32 H10       1.8277    -0.2892     3.5639  H       1  <O>11       0.0618
  33 H11      -0.2956    -2.1090     3.7767  H       1  <O>11       0.0619
  34 H12      -2.0139    -0.4314     2.3203  H       1  <O>11       0.0654
@<TRIPOS>BOND
     1     1     2    1
     2     2     3   ar
     3     3     4    1
     4     4     5    1
     5     5     6   ar
     6     6     7   ar
     7     7     8   ar
     8     8     9   ar
     9     9    10   ar
    10     5    10   ar
    11    10    11    1
    12    11    12    2
    13    11    13    1
    14     3    14   ar
    15    14    15   ar
    16    15    16   ar
    17    16    17   ar
    18    17    18   ar
    19    18    19   ar
    20    14    19   ar
    21    19    20   ar
    22    20    21   ar
    23     2    21   ar
    24    21    22    2
    25     1    23    1
    26     1    24    1
    27     4    25    1
    28    13    26    1
    29     6    27    1
    30     7    28    1
    31     8    29    1
    32     9    30    1
    33    15    31    1
    34    16    32    1
    35    17    33    1
    36    18    34    1
@<TRIPOS>MOLECULE
mol33_1_26
 34 36 0 0 0
SMALL
USER_CHARGES
****
VDW energy = 83.95
@<TRIPOS>ATOM
   1 N1       -1.0416     2.9353    -0.6465  N.pl3   1  <O>11      -0.3510
   2 C1       -0.5730     1.5759    -0.5515  C.ar    1  <O>11       0.1323
   3 C2        0.6800     1.0694     0.1874  C.ar    1  <O>11       0.0701
   4 N2        1.7430     1.8830     0.7200  N.pl3   1  <O>11      -0.3117
   5 C3        3.0798     1.3341     0.8537  C.ar    1  <O>11       0.0455
   6 C4        3.4875     0.2556     0.0492  C.ar    1  <O>11      -0.0397
   7 C5        4.7724    -0.2812     0.1875  C.ar    1  <O>11      -0.0600
   8 C6        5.6611     0.2538     1.1236  C.ar    1  <O>11      -0.0609
   9 C7        5.2568     1.3319     1.9191  C.ar    1  <O>11      -0.0460
  10 C8        3.9782     1.8749     1.7884  C.ar    1  <O>11       0.0799
  11 C9        3.5631     2.9937     2.6070  C.2     1  <O>11       0.3386
  12 O1        4.0466     4.0997     2.4195  O.2     1  <O>11      -0.2451
  13 O2        2.6386     2.8141     3.5809  O.3     1  <O>11      -0.4771
  14 C10       0.7349    -0.4680     0.3350  C.ar    1  <O>11       0.0405
  15 C11       1.7678    -0.9460     1.3794  C.ar    1  <O>11      -0.0492
  16 C12       1.2888    -0.7731     2.8287  C.ar    1  <O>11      -0.0609
  17 C13      -0.0890    -1.4086     3.0474  C.ar    1  <O>11      -0.0582
  18 C14      -1.1225    -0.8741     2.0475  C.ar    1  <O>11      -0.0186
  19 C15      -0.6733    -1.0760     0.5906  C.ar    1  <O>11       0.1409
  20 O3       -1.7385    -0.5809    -0.2821  O.2     1  <O>11      -0.4208
  21 C16      -1.3512     0.4485    -1.2339  C.ar    1  <O>11       0.3601
  22 O4       -1.6242     0.4671    -2.6151  O.2     1  <O>11      -0.2430
  23 H1       -1.8920     3.1462    -1.1686  H       1  <O>11       0.1426
  24 H2       -0.5228     3.6865    -0.1916  H       1  <O>11       0.1426
  25 H3        1.5565     2.8456     1.0025  H       1  <O>11       0.1522
  26 H4        2.3618     1.8850     3.5976  H       1  <O>11       0.2954
  27 H5        2.8367    -0.1417    -0.6462  H       1  <O>11       0.0636
  28 H6        5.0645    -1.0750    -0.4038  H       1  <O>11       0.0618
  29 H7        6.6082    -0.1429     1.2275  H       1  <O>11       0.0618
  30 H8        5.9119     1.7298     2.6102  H       1  <O>11       0.0626
  31 H9        2.6873    -1.3418     1.1287  H       1  <O>11       0.0625
  32 H10       1.8277    -0.2892     3.5639  H       1  <O>11       0.0618
  33 H11      -0.2956    -2.1090     3.7767  H       1  <O>11       0.0619
  34 H12      -2.0139    -0.4314     2.3203  H       1  <O>11       0.0654
@<TRIPOS>BOND
     1     1     2    1
     2     2     3   ar
     3     3     4    1
     4     4     5    1
     5     5     6   ar
     6     6     7   ar
     7     7     8   ar
     8     8     9   ar
     9     9    10   ar
    10     5    10   ar
    11    10    11    1
    12    11    12    2
    13    11    13    1
    14     3    14   ar
    15    14    15   ar
    16    15    16   ar
    17    16    17   ar
    18    17    18   ar
    19    18    19   ar
    20    14    19   ar
    21    19    20   ar
    22    20    21   ar
    23     2    21   ar
    24    21    22    2
    25     1    23    1
    26     1    24    1
    27     4    25    1
    28    13    26    1
    29     6    27    1
    30     7    28    1
    31     8    29    1
    32     9    30    1
    33    15    31    1
    34    16    32    1
    35    17    33    1
    36    18    34    1
@<TRIPOS>MOLECULE
mol33_1_27
 34 36 0 0 0
SMALL
USER_CHARGES
****
VDW energy = 89.55
@<TRIPOS>ATOM
   1 N1       -1.0416     2.9353    -0.6465  N.pl3   1  <O>11      -0.3510
   2 C1       -0.5730     1.5759    -0.5515  C.ar    1  <O>11       0.1323
   3 C2        0.6800     1.0694     0.1874  C.ar    1  <O>11       0.0701
   4 N2        1.7430     1.8830     0.7200  N.pl3   1  <O>11      -0.3117
   5 C3        1.6666     2.3758     2.0829  C.ar    1  <O>11       0.0455
   6 C4        0.8812     1.7050     3.0368  C.ar    1  <O>11      -0.0397
   7 C5        0.7981     2.1881     4.3475  C.ar    1  <O>11      -0.0600
   8 C6        1.4988     3.3385     4.7188  C.ar    1  <O>11      -0.0609
   9 C7        2.2859     4.0016     3.7705  C.ar    1  <O>11      -0.0460
  10 C8        2.3761     3.5277     2.4613  C.ar    1  <O>11       0.0799
  11 C9        3.1952     4.2104     1.4829  C.2     1  <O>11       0.3386
  12 O1        2.8546     5.3038     1.0580  O.2     1  <O>11      -0.2451
  13 O2        4.3391     3.6365     1.0385  O.3     1  <O>11      -0.4771
  14 C10       0.7349    -0.4680     0.3350  C.ar    1  <O>11       0.0405
  15 C11       1.7678    -0.9460     1.3794  C.ar    1  <O>11      -0.0492
  16 C12       1.2888    -0.7731     2.8287  C.ar    1  <O>11      -0.0609
  17 C13      -0.0890    -1.4086     3.0474  C.ar    1  <O>11      -0.0582
  18 C14      -1.1225    -0.8741     2.0475  C.ar    1  <O>11      -0.0186
  19 C15      -0.6733    -1.0760     0.5906  C.ar    1  <O>11       0.1409
  20 O3       -1.7385    -0.5809    -0.2821  O.2     1  <O>11      -0.4208
  21 C16      -1.3512     0.4485    -1.2339  C.ar    1  <O>11       0.3601
  22 O4       -1.6242     0.4671    -2.6151  O.2     1  <O>11      -0.2430
  23 H1       -1.8920     3.1462    -1.1686  H       1  <O>11       0.1426
  24 H2       -0.5228     3.6865    -0.1916  H       1  <O>11       0.1426
  25 H3        2.5502     2.1122     0.1395  H       1  <O>11       0.1522
  26 H4        4.4598     2.7771     1.4709  H       1  <O>11       0.2954
  27 H5        0.3640     0.8530     2.7693  H       1  <O>11       0.0636
  28 H6        0.2174     1.6929     5.0422  H       1  <O>11       0.0618
  29 H7        1.4364     3.6964     5.6848  H       1  <O>11       0.0618
  30 H8        2.8055     4.8507     4.0426  H       1  <O>11       0.0626
  31 H9        2.6873    -1.3418     1.1287  H       1  <O>11       0.0625
  32 H10       1.8277    -0.2892     3.5639  H       1  <O>11       0.0618
  33 H11      -0.2956    -2.1090     3.7767  H       1  <O>11       0.0619
  34 H12      -2.0139    -0.4314     2.3203  H       1  <O>11       0.0654
@<TRIPOS>BOND
     1     1     2    1
     2     2     3   ar
     3     3     4    1
     4     4     5    1
     5     5     6   ar
     6     6     7   ar
     7     7     8   ar
     8     8     9   ar
     9     9    10   ar
    10     5    10   ar
    11    10    11    1
    12    11    12    2
    13    11    13    1
    14     3    14   ar
    15    14    15   ar
    16    15    16   ar
    17    16    17   ar
    18    17    18   ar
    19    18    19   ar
    20    14    19   ar
    21    19    20   ar
    22    20    21   ar
    23     2    21   ar
    24    21    22    2
    25     1    23    1
    26     1    24    1
    27     4    25    1
    28    13    26    1
    29     6    27    1
    30     7    28    1
    31     8    29    1
    32     9    30    1
    33    15    31    1
    34    16    32    1
    35    17    33    1
    36    18    34    1
@<TRIPOS>MOLECULE
mol33_1_28
 34 36 0 0 0
SMALL
USER_CHARGES
****
VDW energy = 89.99
@<TRIPOS>ATOM
   1 N1       -1.0416     2.9353    -0.6465  N.pl3   1  <O>11      -0.3510
   2 C1       -0.5730     1.5759    -0.5515  C.ar    1  <O>11       0.1323
   3 C2        0.6800     1.0694     0.1874  C.ar    1  <O>11       0.0701
   4 N2        1.7430     1.8830     0.7200  N.pl3   1  <O>11      -0.3117
   5 C3        1.6666     2.3758     2.0829  C.ar    1  <O>11       0.0455
   6 C4        0.8812     1.7050     3.0368  C.ar    1  <O>11      -0.0397
   7 C5        0.7981     2.1881     4.3475  C.ar    1  <O>11      -0.0600
   8 C6        1.4988     3.3385     4.7188  C.ar    1  <O>11      -0.0609
   9 C7        2.2859     4.0016     3.7705  C.ar    1  <O>11      -0.0460
  10 C8        2.3761     3.5277     2.4613  C.ar    1  <O>11       0.0799
  11 C9        3.1952     4.2104     1.4829  C.2     1  <O>11       0.3386
  12 O1        4.4127     4.1746     1.5745  O.2     1  <O>11      -0.2451
  13 O2        2.6114     4.8889     0.4658  O.3     1  <O>11      -0.4771
  14 C10       0.7349    -0.4680     0.3350  C.ar    1  <O>11       0.0405
  15 C11       1.7678    -0.9460     1.3794  C.ar    1  <O>11      -0.0492
  16 C12       1.2888    -0.7731     2.8287  C.ar    1  <O>11      -0.0609
  17 C13      -0.0890    -1.4086     3.0474  C.ar    1  <O>11      -0.0582
  18 C14      -1.1225    -0.8741     2.0475  C.ar    1  <O>11      -0.0186
  19 C15      -0.6733    -1.0760     0.5906  C.ar    1  <O>11       0.1409
  20 O3       -1.7385    -0.5809    -0.2821  O.2     1  <O>11      -0.4208
  21 C16      -1.3512     0.4485    -1.2339  C.ar    1  <O>11       0.3601
  22 O4       -1.6242     0.4671    -2.6151  O.2     1  <O>11      -0.2430
  23 H1       -1.8920     3.1462    -1.1686  H       1  <O>11       0.1426
  24 H2       -0.5228     3.6865    -0.1916  H       1  <O>11       0.1426
  25 H3        2.5502     2.1122     0.1395  H       1  <O>11       0.1522
  26 H4        1.6472     4.8194     0.5412  H       1  <O>11       0.2954
  27 H5        0.3640     0.8530     2.7693  H       1  <O>11       0.0636
  28 H6        0.2174     1.6929     5.0422  H       1  <O>11       0.0618
  29 H7        1.4364     3.6964     5.6848  H       1  <O>11       0.0618
  30 H8        2.8055     4.8507     4.0426  H       1  <O>11       0.0626
  31 H9        2.6873    -1.3418     1.1287  H       1  <O>11       0.0625
  32 H10       1.8277    -0.2892     3.5639  H       1  <O>11       0.0618
  33 H11      -0.2956    -2.1090     3.7767  H       1  <O>11       0.0619
  34 H12      -2.0139    -0.4314     2.3203  H       1  <O>11       0.0654
@<TRIPOS>BOND
     1     1     2    1
     2     2     3   ar
     3     3     4    1
     4     4     5    1
     5     5     6   ar
     6     6     7   ar
     7     7     8   ar
     8     8     9   ar
     9     9    10   ar
    10     5    10   ar
    11    10    11    1
    12    11    12    2
    13    11    13    1
    14     3    14   ar
    15    14    15   ar
    16    15    16   ar
    17    16    17   ar
    18    17    18   ar
    19    18    19   ar
    20    14    19   ar
    21    19    20   ar
    22    20    21   ar
    23     2    21   ar
    24    21    22    2
    25     1    23    1
    26     1    24    1
    27     4    25    1
    28    13    26    1
    29     6    27    1
    30     7    28    1
    31     8    29    1
    32     9    30    1
    33    15    31    1
    34    16    32    1
    35    17    33    1
    36    18    34    1
@<TRIPOS>MOLECULE
mol33_1_29
 34 36 0 0 0
SMALL
USER_CHARGES
****
VDW energy = 91.97
@<TRIPOS>ATOM
   1 N1       -1.0416     2.9353    -0.6465  N.pl3   1  <O>11      -0.3510
   2 C1       -0.5730     1.5759    -0.5515  C.ar    1  <O>11       0.1323
   3 C2        0.6800     1.0694     0.1874  C.ar    1  <O>11       0.0701
   4 N2        1.7430     1.8830     0.7200  N.pl3   1  <O>11      -0.3117
   5 C3        3.0798     1.3341     0.8537  C.ar    1  <O>11       0.0455
   6 C4        3.4875     0.2556     0.0492  C.ar    1  <O>11      -0.0397
   7 C5        4.7724    -0.2812     0.1875  C.ar    1  <O>11      -0.0600
   8 C6        5.6611     0.2538     1.1236  C.ar    1  <O>11      -0.0609
   9 C7        5.2568     1.3319     1.9191  C.ar    1  <O>11      -0.0460
  10 C8        3.9782     1.8749     1.7884  C.ar    1  <O>11       0.0799
  11 C9        3.5631     2.9937     2.6070  C.2     1  <O>11       0.3386
  12 O1        2.3745     3.2298     2.7604  O.2     1  <O>11      -0.2451
  13 O2        4.4928     3.7788     3.2027  O.3     1  <O>11      -0.4771
  14 C10       0.7349    -0.4680     0.3350  C.ar    1  <O>11       0.0405
  15 C11       1.7678    -0.9460     1.3794  C.ar    1  <O>11      -0.0492
  16 C12       1.2888    -0.7731     2.8287  C.ar    1  <O>11      -0.0609
  17 C13      -0.0890    -1.4086     3.0474  C.ar    1  <O>11      -0.0582
  18 C14      -1.1225    -0.8741     2.0475  C.ar    1  <O>11      -0.0186
  19 C15      -0.6733    -1.0760     0.5906  C.ar    1  <O>11       0.1409
  20 O3       -1.7385    -0.5809    -0.2821  O.2     1  <O>11      -0.4208
  21 C16      -1.3512     0.4485    -1.2339  C.ar    1  <O>11       0.3601
  22 O4       -1.6242     0.4671    -2.6151  O.2     1  <O>11      -0.2430
  23 H1       -1.8920     3.1462    -1.1686  H       1  <O>11       0.1426
  24 H2       -0.5228     3.6865    -0.1916  H       1  <O>11       0.1426
  25 H3        1.5565     2.8456     1.0025  H       1  <O>11       0.1522
  26 H4        5.3798     3.4578     2.9785  H       1  <O>11       0.2954
  27 H5        2.8367    -0.1417    -0.6462  H       1  <O>11       0.0636
  28 H6        5.0645    -1.0750    -0.4038  H       1  <O>11       0.0618
  29 H7        6.6082    -0.1429     1.2275  H       1  <O>11       0.0618
  30 H8        5.9119     1.7298     2.6102  H       1  <O>11       0.0626
  31 H9        2.6873    -1.3418     1.1287  H       1  <O>11       0.0625
  32 H10       1.8277    -0.2892     3.5639  H       1  <O>11       0.0618
  33 H11      -0.2956    -2.1090     3.7767  H       1  <O>11       0.0619
  34 H12      -2.0139    -0.4314     2.3203  H       1  <O>11       0.0654
@<TRIPOS>BOND
     1     1     2    1
     2     2     3   ar
     3     3     4    1
     4     4     5    1
     5     5     6   ar
     6     6     7   ar
     7     7     8   ar
     8     8     9   ar
     9     9    10   ar
    10     5    10   ar
    11    10    11    1
    12    11    12    2
    13    11    13    1
    14     3    14   ar
    15    14    15   ar
    16    15    16   ar
    17    16    17   ar
    18    17    18   ar
    19    18    19   ar
    20    14    19   ar
    21    19    20   ar
    22    20    21   ar
    23     2    21   ar
    24    21    22    2
    25     1    23    1
    26     1    24    1
    27     4    25    1
    28    13    26    1
    29     6    27    1
    30     7    28    1
    31     8    29    1
    32     9    30    1
    33    15    31    1
    34    16    32    1
    35    17    33    1
    36    18    34    1
@<TRIPOS>MOLECULE
mol33_1_30
 34 36 0 0 0
SMALL
USER_CHARGES
****
VDW energy = 94.64
@<TRIPOS>ATOM
   1 N1       -1.0416     2.9353    -0.6465  N.pl3   1  <O>11      -0.3510
   2 C1       -0.5730     1.5759    -0.5515  C.ar    1  <O>11       0.1323
   3 C2        0.6800     1.0694     0.1874  C.ar    1  <O>11       0.0701
   4 N2        1.7430     1.8830     0.7200  N.pl3   1  <O>11      -0.3117
   5 C3        2.8904     2.2099    -0.1063  C.ar    1  <O>11       0.0455
   6 C4        4.0189     1.3713    -0.1169  C.ar    1  <O>11      -0.0397
   7 C5        5.1298     1.6939    -0.9043  C.ar    1  <O>11      -0.0600
   8 C6        5.1238     2.8498    -1.6893  C.ar    1  <O>11      -0.0609
   9 C7        3.9973     3.6802    -1.6835  C.ar    1  <O>11      -0.0460
  10 C8        2.8843     3.3672    -0.9026  C.ar    1  <O>11       0.0799
  11 C9        1.7173     4.2231    -0.9020  C.2     1  <O>11       0.3386
  12 O1        1.7690     5.3249    -0.3773  O.2     1  <O>11      -0.2451
  13 O2        0.5683     3.8019    -1.4832  O.3     1  <O>11      -0.4771
  14 C10       0.7349    -0.4680     0.3350  C.ar    1  <O>11       0.0405
  15 C11       1.7678    -0.9460     1.3794  C.ar    1  <O>11      -0.0492
  16 C12       1.2888    -0.7731     2.8287  C.ar    1  <O>11      -0.0609
  17 C13      -0.0890    -1.4086     3.0474  C.ar    1  <O>11      -0.0582
  18 C14      -1.1225    -0.8741     2.0475  C.ar    1  <O>11      -0.0186
  19 C15      -0.6733    -1.0760     0.5906  C.ar    1  <O>11       0.1409
  20 O3       -1.7385    -0.5809    -0.2821  O.2     1  <O>11      -0.4208
  21 C16      -1.3512     0.4485    -1.2339  C.ar    1  <O>11       0.3601
  22 O4       -1.6242     0.4671    -2.6151  O.2     1  <O>11      -0.2430
  23 H1       -1.8920     3.1462    -1.1686  H       1  <O>11       0.1426
  24 H2       -0.5228     3.6865    -0.1916  H       1  <O>11       0.1426
  25 H3        1.6890     2.2303     1.6779  H       1  <O>11       0.1522
  26 H4        0.6962     2.9123    -1.8470  H       1  <O>11       0.2954
  27 H5        4.0279     0.5145     0.4582  H       1  <O>11       0.0636
  28 H6        5.9563     1.0759    -0.9053  H       1  <O>11       0.0618
  29 H7        5.9435     3.0893    -2.2687  H       1  <O>11       0.0618
  30 H8        3.9898     4.5338    -2.2635  H       1  <O>11       0.0626
  31 H9        2.6873    -1.3418     1.1287  H       1  <O>11       0.0625
  32 H10       1.8277    -0.2892     3.5639  H       1  <O>11       0.0618
  33 H11      -0.2956    -2.1090     3.7767  H       1  <O>11       0.0619
  34 H12      -2.0139    -0.4314     2.3203  H       1  <O>11       0.0654
@<TRIPOS>BOND
     1     1     2    1
     2     2     3   ar
     3     3     4    1
     4     4     5    1
     5     5     6   ar
     6     6     7   ar
     7     7     8   ar
     8     8     9   ar
     9     9    10   ar
    10     5    10   ar
    11    10    11    1
    12    11    12    2
    13    11    13    1
    14     3    14   ar
    15    14    15   ar
    16    15    16   ar
    17    16    17   ar
    18    17    18   ar
    19    18    19   ar
    20    14    19   ar
    21    19    20   ar
    22    20    21   ar
    23     2    21   ar
    24    21    22    2
    25     1    23    1
    26     1    24    1
    27     4    25    1
    28    13    26    1
    29     6    27    1
    30     7    28    1
    31     8    29    1
    32     9    30    1
    33    15    31    1
    34    16    32    1
    35    17    33    1
    36    18    34    1
@<TRIPOS>MOLECULE
mol33_2_1
 34 36 0 0 0
SMALL
USER_CHARGES
****
VDW energy = 48.35
@<TRIPOS>ATOM
   1 N1       -1.0416     2.9353    -0.6465  N.pl3   1  <O>11      -0.3510
   2 C1       -0.5730     1.5759    -0.5515  C.ar    1  <O>11       0.1323
   3 C2        0.6800     1.0694     0.1874  C.ar    1  <O>11       0.0701
   4 N2        1.7430     1.8830     0.7200  N.pl3   1  <O>11      -0.3117
   5 C3        2.8904     2.2099    -0.1063  C.ar    1  <O>11       0.0455
   6 C4        2.7999     2.1356    -1.5073  C.ar    1  <O>11      -0.0397
   7 C5        3.9097     2.4396    -2.3028  C.ar    1  <O>11      -0.0600
   8 C6        5.1164     2.8220    -1.7104  C.ar    1  <O>11      -0.0609
   9 C7        5.2038     2.9024    -0.3150  C.ar    1  <O>11      -0.0460
  10 C8        4.1020     2.6029     0.4862  C.ar    1  <O>11       0.0799
  11 C9        4.1918     2.6931     1.9277  C.2     1  <O>11       0.3386
  12 O1        3.9245     3.7442     2.4917  O.2     1  <O>11      -0.2451
  13 O2        4.5739     1.6135     2.6521  O.3     1  <O>11      -0.4771
  14 C10       0.7349    -0.4680     0.3350  C.ar    1  <O>11       0.0405
  15 C11       1.7678    -0.9460     1.3794  C.ar    1  <O>11      -0.0492
  16 C12       1.2888    -0.7731     2.8287  C.ar    1  <O>11      -0.0609
  17 C13      -0.0890    -1.4086     3.0474  C.ar    1  <O>11      -0.0582
  18 C14      -1.1225    -0.8741     2.0475  C.ar    1  <O>11      -0.0186
  19 C15      -0.6733    -1.0760     0.5906  C.ar    1  <O>11       0.1409
  20 O3       -1.7385    -0.5809    -0.2821  O.2     1  <O>11      -0.4208
  21 C16      -1.3512     0.4485    -1.2339  C.ar    1  <O>11       0.3601
  22 O4       -1.6242     0.4671    -2.6151  O.2     1  <O>11      -0.2430
  23 H1       -1.8920     3.1462    -1.1686  H       1  <O>11       0.1426
  24 H2       -0.5228     3.6865    -0.1916  H       1  <O>11       0.1426
  25 H3        1.6890     2.2303     1.6779  H       1  <O>11       0.1522
  26 H4        4.7482     0.8699     2.0553  H       1  <O>11       0.2954
  27 H5        1.9110     1.8558    -1.9507  H       1  <O>11       0.0636
  28 H6        3.8371     2.3812    -3.3306  H       1  <O>11       0.0618
  29 H7        5.9365     3.0432    -2.2966  H       1  <O>11       0.0618
  30 H8        6.0929     3.1864     0.1253  H       1  <O>11       0.0626
  31 H9        2.6873    -1.3418     1.1287  H       1  <O>11       0.0625
  32 H10       1.8277    -0.2892     3.5639  H       1  <O>11       0.0618
  33 H11      -0.2956    -2.1090     3.7767  H       1  <O>11       0.0619
  34 H12      -2.0139    -0.4314     2.3203  H       1  <O>11       0.0654
@<TRIPOS>BOND
     1     1     2    1
     2     2     3   ar
     3     3     4    1
     4     4     5    1
     5     5     6   ar
     6     6     7   ar
     7     7     8   ar
     8     8     9   ar
     9     9    10   ar
    10     5    10   ar
    11    10    11    1
    12    11    12    2
    13    11    13    1
    14     3    14   ar
    15    14    15   ar
    16    15    16   ar
    17    16    17   ar
    18    17    18   ar
    19    18    19   ar
    20    14    19   ar
    21    19    20   ar
    22    20    21   ar
    23     2    21   ar
    24    21    22    2
    25     1    23    1
    26     1    24    1
    27     4    25    1
    28    13    26    1
    29     6    27    1
    30     7    28    1
    31     8    29    1
    32     9    30    1
    33    15    31    1
    34    16    32    1
    35    17    33    1
    36    18    34    1
@<TRIPOS>MOLECULE
mol33_2_2
 34 36 0 0 0
SMALL
USER_CHARGES
****
VDW energy = 49.64
@<TRIPOS>ATOM
   1 N1       -1.0416     2.9353    -0.6465  N.pl3   1  <O>11      -0.3510
   2 C1       -0.5730     1.5759    -0.5515  C.ar    1  <O>11       0.1323
   3 C2        0.6800     1.0694     0.1874  C.ar    1  <O>11       0.0701
   4 N2        1.7430     1.8830     0.7200  N.pl3   1  <O>11      -0.3117
   5 C3        2.8904     2.2099    -0.1063  C.ar    1  <O>11       0.0455
   6 C4        2.7999     2.1356    -1.5073  C.ar    1  <O>11      -0.0397
   7 C5        3.9097     2.4396    -2.3028  C.ar    1  <O>11      -0.0600
   8 C6        5.1164     2.8220    -1.7104  C.ar    1  <O>11      -0.0609
   9 C7        5.2038     2.9024    -0.3150  C.ar    1  <O>11      -0.0460
  10 C8        4.1020     2.6029     0.4862  C.ar    1  <O>11       0.0799
  11 C9        4.1918     2.6931     1.9277  C.2     1  <O>11       0.3386
  12 O1        4.2835     3.7865     2.4667  O.2     1  <O>11      -0.2451
  13 O2        4.1763     1.5660     2.6798  O.3     1  <O>11      -0.4771
  14 C10       0.7349    -0.4680     0.3350  C.ar    1  <O>11       0.0405
  15 C11       1.7678    -0.9460     1.3794  C.ar    1  <O>11      -0.0492
  16 C12       1.2888    -0.7731     2.8287  C.ar    1  <O>11      -0.0609
  17 C13      -0.0890    -1.4086     3.0474  C.ar    1  <O>11      -0.0582
  18 C14      -1.1225    -0.8741     2.0475  C.ar    1  <O>11      -0.0186
  19 C15      -0.6733    -1.0760     0.5906  C.ar    1  <O>11       0.1409
  20 O3       -1.7385    -0.5809    -0.2821  O.2     1  <O>11      -0.4208
  21 C16      -1.3512     0.4485    -1.2339  C.ar    1  <O>11       0.3601
  22 O4       -1.6242     0.4671    -2.6151  O.2     1  <O>11      -0.2430
  23 H1       -1.8920     3.1462    -1.1686  H       1  <O>11       0.1426
  24 H2       -0.5228     3.6865    -0.1916  H       1  <O>11       0.1426
  25 H3        1.6890     2.2303     1.6779  H       1  <O>11       0.1522
  26 H4        4.1009     0.7927     2.1004  H       1  <O>11       0.2954
  27 H5        1.9110     1.8558    -1.9507  H       1  <O>11       0.0636
  28 H6        3.8371     2.3812    -3.3306  H       1  <O>11       0.0618
  29 H7        5.9365     3.0432    -2.2966  H       1  <O>11       0.0618
  30 H8        6.0929     3.1864     0.1253  H       1  <O>11       0.0626
  31 H9        2.6873    -1.3418     1.1287  H       1  <O>11       0.0625
  32 H10       1.8277    -0.2892     3.5639  H       1  <O>11       0.0618
  33 H11      -0.2956    -2.1090     3.7767  H       1  <O>11       0.0619
  34 H12      -2.0139    -0.4314     2.3203  H       1  <O>11       0.0654
@<TRIPOS>BOND
     1     1     2    1
     2     2     3   ar
     3     3     4    1
     4     4     5    1
     5     5     6   ar
     6     6     7   ar
     7     7     8   ar
     8     8     9   ar
     9     9    10   ar
    10     5    10   ar
    11    10    11    1
    12    11    12    2
    13    11    13    1
    14     3    14   ar
    15    14    15   ar
    16    15    16   ar
    17    16    17   ar
    18    17    18   ar
    19    18    19   ar
    20    14    19   ar
    21    19    20   ar
    22    20    21   ar
    23     2    21   ar
    24    21    22    2
    25     1    23    1
    26     1    24    1
    27     4    25    1
    28    13    26    1
    29     6    27    1
    30     7    28    1
    31     8    29    1
    32     9    30    1
    33    15    31    1
    34    16    32    1
    35    17    33    1
    36    18    34    1
@<TRIPOS>MOLECULE
mol33_2_3
 34 36 0 0 0
SMALL
USER_CHARGES
****
VDW energy = 50.04
@<TRIPOS>ATOM
   1 N1       -1.0416     2.9353    -0.6465  N.pl3   1  <O>11      -0.3510
   2 C1       -0.5730     1.5759    -0.5515  C.ar    1  <O>11       0.1323
   3 C2        0.6800     1.0694     0.1874  C.ar    1  <O>11       0.0701
   4 N2        1.7430     1.8830     0.7200  N.pl3   1  <O>11      -0.3117
   5 C3        2.8904     2.2099    -0.1063  C.ar    1  <O>11       0.0455
   6 C4        2.7999     2.1356    -1.5073  C.ar    1  <O>11      -0.0397
   7 C5        3.9097     2.4396    -2.3028  C.ar    1  <O>11      -0.0600
   8 C6        5.1164     2.8220    -1.7104  C.ar    1  <O>11      -0.0609
   9 C7        5.2038     2.9024    -0.3150  C.ar    1  <O>11      -0.0460
  10 C8        4.1020     2.6029     0.4862  C.ar    1  <O>11       0.0799
  11 C9        4.1918     2.6931     1.9277  C.2     1  <O>11       0.3386
  12 O1        4.5350     1.7182     2.5804  O.2     1  <O>11      -0.2451
  13 O2        3.8939     3.8574     2.5540  O.3     1  <O>11      -0.4771
  14 C10       0.7349    -0.4680     0.3350  C.ar    1  <O>11       0.0405
  15 C11       1.7678    -0.9460     1.3794  C.ar    1  <O>11      -0.0492
  16 C12       1.2888    -0.7731     2.8287  C.ar    1  <O>11      -0.0609
  17 C13      -0.0890    -1.4086     3.0474  C.ar    1  <O>11      -0.0582
  18 C14      -1.1225    -0.8741     2.0475  C.ar    1  <O>11      -0.0186
  19 C15      -0.6733    -1.0760     0.5906  C.ar    1  <O>11       0.1409
  20 O3       -1.7385    -0.5809    -0.2821  O.2     1  <O>11      -0.4208
  21 C16      -1.3512     0.4485    -1.2339  C.ar    1  <O>11       0.3601
  22 O4       -1.6242     0.4671    -2.6151  O.2     1  <O>11      -0.2430
  23 H1       -1.8920     3.1462    -1.1686  H       1  <O>11       0.1426
  24 H2       -0.5228     3.6865    -0.1916  H       1  <O>11       0.1426
  25 H3        1.6890     2.2303     1.6779  H       1  <O>11       0.1522
  26 H4        3.6415     4.5224     1.8956  H       1  <O>11       0.2954
  27 H5        1.9110     1.8558    -1.9507  H       1  <O>11       0.0636
  28 H6        3.8371     2.3812    -3.3306  H       1  <O>11       0.0618
  29 H7        5.9365     3.0432    -2.2966  H       1  <O>11       0.0618
  30 H8        6.0929     3.1864     0.1253  H       1  <O>11       0.0626
  31 H9        2.6873    -1.3418     1.1287  H       1  <O>11       0.0625
  32 H10       1.8277    -0.2892     3.5639  H       1  <O>11       0.0618
  33 H11      -0.2956    -2.1090     3.7767  H       1  <O>11       0.0619
  34 H12      -2.0139    -0.4314     2.3203  H       1  <O>11       0.0654
@<TRIPOS>BOND
     1     1     2    1
     2     2     3   ar
     3     3     4    1
     4     4     5    1
     5     5     6   ar
     6     6     7   ar
     7     7     8   ar
     8     8     9   ar
     9     9    10   ar
    10     5    10   ar
    11    10    11    1
    12    11    12    2
    13    11    13    1
    14     3    14   ar
    15    14    15   ar
    16    15    16   ar
    17    16    17   ar
    18    17    18   ar
    19    18    19   ar
    20    14    19   ar
    21    19    20   ar
    22    20    21   ar
    23     2    21   ar
    24    21    22    2
    25     1    23    1
    26     1    24    1
    27     4    25    1
    28    13    26    1
    29     6    27    1
    30     7    28    1
    31     8    29    1
    32     9    30    1
    33    15    31    1
    34    16    32    1
    35    17    33    1
    36    18    34    1
@<TRIPOS>MOLECULE
mol33_2_4
 34 36 0 0 0
SMALL
USER_CHARGES
****
VDW energy = 51.33
@<TRIPOS>ATOM
   1 N1       -1.0416     2.9353    -0.6465  N.pl3   1  <O>11      -0.3510
   2 C1       -0.5730     1.5759    -0.5515  C.ar    1  <O>11       0.1323
   3 C2        0.6800     1.0694     0.1874  C.ar    1  <O>11       0.0701
   4 N2        1.7430     1.8830     0.7200  N.pl3   1  <O>11      -0.3117
   5 C3        1.4795     2.7923     1.8199  C.ar    1  <O>11       0.0455
   6 C4        0.3649     2.5934     2.6534  C.ar    1  <O>11      -0.0397
   7 C5        0.1050     3.4770     3.7063  C.ar    1  <O>11      -0.0600
   8 C6        0.9533     4.5630     3.9391  C.ar    1  <O>11      -0.0609
   9 C7        2.0673     4.7565     3.1127  C.ar    1  <O>11      -0.0460
  10 C8        2.3354     3.8798     2.0616  C.ar    1  <O>11       0.0799
  11 C9        3.4907     4.0771     1.2128  C.2     1  <O>11       0.3386
  12 O1        4.6139     3.8856     1.6558  O.2     1  <O>11      -0.2451
  13 O2        3.3279     4.4759    -0.0721  O.3     1  <O>11      -0.4771
  14 C10       0.7349    -0.4680     0.3350  C.ar    1  <O>11       0.0405
  15 C11       1.7678    -0.9460     1.3794  C.ar    1  <O>11      -0.0492
  16 C12       1.2888    -0.7731     2.8287  C.ar    1  <O>11      -0.0609
  17 C13      -0.0890    -1.4086     3.0474  C.ar    1  <O>11      -0.0582
  18 C14      -1.1225    -0.8741     2.0475  C.ar    1  <O>11      -0.0186
  19 C15      -0.6733    -1.0760     0.5906  C.ar    1  <O>11       0.1409
  20 O3       -1.7385    -0.5809    -0.2821  O.2     1  <O>11      -0.4208
  21 C16      -1.3512     0.4485    -1.2339  C.ar    1  <O>11       0.3601
  22 O4       -1.6242     0.4671    -2.6151  O.2     1  <O>11      -0.2430
  23 H1       -1.8920     3.1462    -1.1686  H       1  <O>11       0.1426
  24 H2       -0.5228     3.6865    -0.1916  H       1  <O>11       0.1426
  25 H3        2.6815     1.8195     0.3246  H       1  <O>11       0.1522
  26 H4        2.3829     4.5821    -0.2595  H       1  <O>11       0.2954
  27 H5       -0.2642     1.7922     2.4877  H       1  <O>11       0.0636
  28 H6       -0.7160     3.3264     4.3131  H       1  <O>11       0.0618
  29 H7        0.7603     5.2171     4.7136  H       1  <O>11       0.0618
  30 H8        2.6966     5.5564     3.2834  H       1  <O>11       0.0626
  31 H9        2.6873    -1.3418     1.1287  H       1  <O>11       0.0625
  32 H10       1.8277    -0.2892     3.5639  H       1  <O>11       0.0618
  33 H11      -0.2956    -2.1090     3.7767  H       1  <O>11       0.0619
  34 H12      -2.0139    -0.4314     2.3203  H       1  <O>11       0.0654
@<TRIPOS>BOND
     1     1     2    1
     2     2     3   ar
     3     3     4    1
     4     4     5    1
     5     5     6   ar
     6     6     7   ar
     7     7     8   ar
     8     8     9   ar
     9     9    10   ar
    10     5    10   ar
    11    10    11    1
    12    11    12    2
    13    11    13    1
    14     3    14   ar
    15    14    15   ar
    16    15    16   ar
    17    16    17   ar
    18    17    18   ar
    19    18    19   ar
    20    14    19   ar
    21    19    20   ar
    22    20    21   ar
    23     2    21   ar
    24    21    22    2
    25     1    23    1
    26     1    24    1
    27     4    25    1
    28    13    26    1
    29     6    27    1
    30     7    28    1
    31     8    29    1
    32     9    30    1
    33    15    31    1
    34    16    32    1
    35    17    33    1
    36    18    34    1
@<TRIPOS>MOLECULE
mol33_2_5
 34 36 0 0 0
SMALL
USER_CHARGES
****
VDW energy = 51.58
@<TRIPOS>ATOM
   1 N1       -1.0416     2.9353    -0.6465  N.pl3   1  <O>11      -0.3510
   2 C1       -0.5730     1.5759    -0.5515  C.ar    1  <O>11       0.1323
   3 C2        0.6800     1.0694     0.1874  C.ar    1  <O>11       0.0701
   4 N2        1.7430     1.8830     0.7200  N.pl3   1  <O>11      -0.3117
   5 C3        2.8904     2.2099    -0.1063  C.ar    1  <O>11       0.0455
   6 C4        2.7999     2.1356    -1.5073  C.ar    1  <O>11      -0.0397
   7 C5        3.9097     2.4396    -2.3028  C.ar    1  <O>11      -0.0600
   8 C6        5.1164     2.8220    -1.7104  C.ar    1  <O>11      -0.0609
   9 C7        5.2038     2.9024    -0.3150  C.ar    1  <O>11      -0.0460
  10 C8        4.1020     2.6029     0.4862  C.ar    1  <O>11       0.0799
  11 C9        4.1918     2.6931     1.9277  C.2     1  <O>11       0.3386
  12 O1        4.8582     1.8791     2.5502  O.2     1  <O>11      -0.2451
  13 O2        3.5360     3.6785     2.5875  O.3     1  <O>11      -0.4771
  14 C10       0.7349    -0.4680     0.3350  C.ar    1  <O>11       0.0405
  15 C11       1.7678    -0.9460     1.3794  C.ar    1  <O>11      -0.0492
  16 C12       1.2888    -0.7731     2.8287  C.ar    1  <O>11      -0.0609
  17 C13      -0.0890    -1.4086     3.0474  C.ar    1  <O>11      -0.0582
  18 C14      -1.1225    -0.8741     2.0475  C.ar    1  <O>11      -0.0186
  19 C15      -0.6733    -1.0760     0.5906  C.ar    1  <O>11       0.1409
  20 O3       -1.7385    -0.5809    -0.2821  O.2     1  <O>11      -0.4208
  21 C16      -1.3512     0.4485    -1.2339  C.ar    1  <O>11       0.3601
  22 O4       -1.6242     0.4671    -2.6151  O.2     1  <O>11      -0.2430
  23 H1       -1.8920     3.1462    -1.1686  H       1  <O>11       0.1426
  24 H2       -0.5228     3.6865    -0.1916  H       1  <O>11       0.1426
  25 H3        1.6890     2.2303     1.6779  H       1  <O>11       0.1522
  26 H4        3.0589     4.2313     1.9502  H       1  <O>11       0.2954
  27 H5        1.9110     1.8558    -1.9507  H       1  <O>11       0.0636
  28 H6        3.8371     2.3812    -3.3306  H       1  <O>11       0.0618
  29 H7        5.9365     3.0432    -2.2966  H       1  <O>11       0.0618
  30 H8        6.0929     3.1864     0.1253  H       1  <O>11       0.0626
  31 H9        2.6873    -1.3418     1.1287  H       1  <O>11       0.0625
  32 H10       1.8277    -0.2892     3.5639  H       1  <O>11       0.0618
  33 H11      -0.2956    -2.1090     3.7767  H       1  <O>11       0.0619
  34 H12      -2.0139    -0.4314     2.3203  H       1  <O>11       0.0654
@<TRIPOS>BOND
     1     1     2    1
     2     2     3   ar
     3     3     4    1
     4     4     5    1
     5     5     6   ar
     6     6     7   ar
     7     7     8   ar
     8     8     9   ar
     9     9    10   ar
    10     5    10   ar
    11    10    11    1
    12    11    12    2
    13    11    13    1
    14     3    14   ar
    15    14    15   ar
    16    15    16   ar
    17    16    17   ar
    18    17    18   ar
    19    18    19   ar
    20    14    19   ar
    21    19    20   ar
    22    20    21   ar
    23     2    21   ar
    24    21    22    2
    25     1    23    1
    26     1    24    1
    27     4    25    1
    28    13    26    1
    29     6    27    1
    30     7    28    1
    31     8    29    1
    32     9    30    1
    33    15    31    1
    34    16    32    1
    35    17    33    1
    36    18    34    1
@<TRIPOS>MOLECULE
mol33_2_6
 34 36 0 0 0
SMALL
USER_CHARGES
****
VDW energy = 52.84
@<TRIPOS>ATOM
   1 N1       -1.0416     2.9353    -0.6465  N.pl3   1  <O>11      -0.3510
   2 C1       -0.5730     1.5759    -0.5515  C.ar    1  <O>11       0.1323
   3 C2        0.6800     1.0694     0.1874  C.ar    1  <O>11       0.0701
   4 N2        1.7430     1.8830     0.7200  N.pl3   1  <O>11      -0.3117
   5 C3        2.5958     2.6410    -0.1768  C.ar    1  <O>11       0.0455
   6 C4        2.1595     2.9522    -1.4766  C.ar    1  <O>11      -0.0397
   7 C5        2.9868     3.6728    -2.3445  C.ar    1  <O>11      -0.0600
   8 C6        4.2526     4.0910    -1.9249  C.ar    1  <O>11      -0.0609
   9 C7        4.6837     3.7867    -0.6276  C.ar    1  <O>11      -0.0460
  10 C8        3.8651     3.0702     0.2453  C.ar    1  <O>11       0.0799
  11 C9        4.3092     2.7623     1.5877  C.2     1  <O>11       0.3386
  12 O1        4.0759     3.5399     2.5016  O.2     1  <O>11      -0.2451
  13 O2        4.9851     1.6133     1.8315  O.3     1  <O>11      -0.4771
  14 C10       0.7349    -0.4680     0.3350  C.ar    1  <O>11       0.0405
  15 C11       1.7678    -0.9460     1.3794  C.ar    1  <O>11      -0.0492
  16 C12       1.2888    -0.7731     2.8287  C.ar    1  <O>11      -0.0609
  17 C13      -0.0890    -1.4086     3.0474  C.ar    1  <O>11      -0.0582
  18 C14      -1.1225    -0.8741     2.0475  C.ar    1  <O>11      -0.0186
  19 C15      -0.6733    -1.0760     0.5906  C.ar    1  <O>11       0.1409
  20 O3       -1.7385    -0.5809    -0.2821  O.2     1  <O>11      -0.4208
  21 C16      -1.3512     0.4485    -1.2339  C.ar    1  <O>11       0.3601
  22 O4       -1.6242     0.4671    -2.6151  O.2     1  <O>11      -0.2430
  23 H1       -1.8920     3.1462    -1.1686  H       1  <O>11       0.1426
  24 H2       -0.5228     3.6865    -0.1916  H       1  <O>11       0.1426
  25 H3        1.8960     1.9272     1.7279  H       1  <O>11       0.1522
  26 H4        5.0854     1.1166     1.0053  H       1  <O>11       0.2954
  27 H5        1.2251     2.6478    -1.7917  H       1  <O>11       0.0636
  28 H6        2.6613     3.8963    -3.2980  H       1  <O>11       0.0618
  29 H7        4.8647     4.6198    -2.5658  H       1  <O>11       0.0618
  30 H8        5.6171     4.0958    -0.3142  H       1  <O>11       0.0626
  31 H9        2.6873    -1.3418     1.1287  H       1  <O>11       0.0625
  32 H10       1.8277    -0.2892     3.5639  H       1  <O>11       0.0618
  33 H11      -0.2956    -2.1090     3.7767  H       1  <O>11       0.0619
  34 H12      -2.0139    -0.4314     2.3203  H       1  <O>11       0.0654
@<TRIPOS>BOND
     1     1     2    1
     2     2     3   ar
     3     3     4    1
     4     4     5    1
     5     5     6   ar
     6     6     7   ar
     7     7     8   ar
     8     8     9   ar
     9     9    10   ar
    10     5    10   ar
    11    10    11    1
    12    11    12    2
    13    11    13    1
    14     3    14   ar
    15    14    15   ar
    16    15    16   ar
    17    16    17   ar
    18    17    18   ar
    19    18    19   ar
    20    14    19   ar
    21    19    20   ar
    22    20    21   ar
    23     2    21   ar
    24    21    22    2
    25     1    23    1
    26     1    24    1
    27     4    25    1
    28    13    26    1
    29     6    27    1
    30     7    28    1
    31     8    29    1
    32     9    30    1
    33    15    31    1
    34    16    32    1
    35    17    33    1
    36    18    34    1
@<TRIPOS>MOLECULE
mol33_2_7
 34 36 0 0 0
SMALL
USER_CHARGES
****
VDW energy = 53.95
@<TRIPOS>ATOM
   1 N1       -1.0416     2.9353    -0.6465  N.pl3   1  <O>11      -0.3510
   2 C1       -0.5730     1.5759    -0.5515  C.ar    1  <O>11       0.1323
   3 C2        0.6800     1.0694     0.1874  C.ar    1  <O>11       0.0701
   4 N2        1.7430     1.8830     0.7200  N.pl3   1  <O>11      -0.3117
   5 C3        2.5958     2.6410    -0.1768  C.ar    1  <O>11       0.0455
   6 C4        2.1595     2.9522    -1.4766  C.ar    1  <O>11      -0.0397
   7 C5        2.9868     3.6728    -2.3445  C.ar    1  <O>11      -0.0600
   8 C6        4.2526     4.0910    -1.9249  C.ar    1  <O>11      -0.0609
   9 C7        4.6837     3.7867    -0.6276  C.ar    1  <O>11      -0.0460
  10 C8        3.8651     3.0702     0.2453  C.ar    1  <O>11       0.0799
  11 C9        4.3092     2.7623     1.5877  C.2     1  <O>11       0.3386
  12 O1        4.4092     3.6543     2.4176  O.2     1  <O>11      -0.2451
  13 O2        4.6159     1.4860     1.9245  O.3     1  <O>11      -0.4771
  14 C10       0.7349    -0.4680     0.3350  C.ar    1  <O>11       0.0405
  15 C11       1.7678    -0.9460     1.3794  C.ar    1  <O>11      -0.0492
  16 C12       1.2888    -0.7731     2.8287  C.ar    1  <O>11      -0.0609
  17 C13      -0.0890    -1.4086     3.0474  C.ar    1  <O>11      -0.0582
  18 C14      -1.1225    -0.8741     2.0475  C.ar    1  <O>11      -0.0186
  19 C15      -0.6733    -1.0760     0.5906  C.ar    1  <O>11       0.1409
  20 O3       -1.7385    -0.5809    -0.2821  O.2     1  <O>11      -0.4208
  21 C16      -1.3512     0.4485    -1.2339  C.ar    1  <O>11       0.3601
  22 O4       -1.6242     0.4671    -2.6151  O.2     1  <O>11      -0.2430
  23 H1       -1.8920     3.1462    -1.1686  H       1  <O>11       0.1426
  24 H2       -0.5228     3.6865    -0.1916  H       1  <O>11       0.1426
  25 H3        1.8960     1.9272     1.7279  H       1  <O>11       0.1522
  26 H4        4.4844     0.9094     1.1566  H       1  <O>11       0.2954
  27 H5        1.2251     2.6478    -1.7917  H       1  <O>11       0.0636
  28 H6        2.6613     3.8963    -3.2980  H       1  <O>11       0.0618
  29 H7        4.8647     4.6198    -2.5658  H       1  <O>11       0.0618
  30 H8        5.6171     4.0958    -0.3142  H       1  <O>11       0.0626
  31 H9        2.6873    -1.3418     1.1287  H       1  <O>11       0.0625
  32 H10       1.8277    -0.2892     3.5639  H       1  <O>11       0.0618
  33 H11      -0.2956    -2.1090     3.7767  H       1  <O>11       0.0619
  34 H12      -2.0139    -0.4314     2.3203  H       1  <O>11       0.0654
@<TRIPOS>BOND
     1     1     2    1
     2     2     3   ar
     3     3     4    1
     4     4     5    1
     5     5     6   ar
     6     6     7   ar
     7     7     8   ar
     8     8     9   ar
     9     9    10   ar
    10     5    10   ar
    11    10    11    1
    12    11    12    2
    13    11    13    1
    14     3    14   ar
    15    14    15   ar
    16    15    16   ar
    17    16    17   ar
    18    17    18   ar
    19    18    19   ar
    20    14    19   ar
    21    19    20   ar
    22    20    21   ar
    23     2    21   ar
    24    21    22    2
    25     1    23    1
    26     1    24    1
    27     4    25    1
    28    13    26    1
    29     6    27    1
    30     7    28    1
    31     8    29    1
    32     9    30    1
    33    15    31    1
    34    16    32    1
    35    17    33    1
    36    18    34    1
@<TRIPOS>MOLECULE
mol33_2_8
 34 36 0 0 0
SMALL
USER_CHARGES
****
VDW energy = 54.04
@<TRIPOS>ATOM
   1 N1       -1.0416     2.9353    -0.6465  N.pl3   1  <O>11      -0.3510
   2 C1       -0.5730     1.5759    -0.5515  C.ar    1  <O>11       0.1323
   3 C2        0.6800     1.0694     0.1874  C.ar    1  <O>11       0.0701
   4 N2        1.7430     1.8830     0.7200  N.pl3   1  <O>11      -0.3117
   5 C3        2.5958     2.6410    -0.1768  C.ar    1  <O>11       0.0455
   6 C4        2.5744     4.0466    -0.1572  C.ar    1  <O>11      -0.0397
   7 C5        3.3882     4.7765    -1.0300  C.ar    1  <O>11      -0.0600
   8 C6        4.2307     4.1136    -1.9266  C.ar    1  <O>11      -0.0609
   9 C7        4.2566     2.7134    -1.9408  C.ar    1  <O>11      -0.0460
  10 C8        3.4501     1.9772    -1.0730  C.ar    1  <O>11       0.0799
  11 C9        3.4830     0.5305    -1.0841  C.2     1  <O>11       0.3386
  12 O1        3.0143    -0.0838    -2.0313  O.2     1  <O>11      -0.2451
  13 O2        4.0315    -0.1432    -0.0441  O.3     1  <O>11      -0.4771
  14 C10       0.7349    -0.4680     0.3350  C.ar    1  <O>11       0.0405
  15 C11       1.7678    -0.9460     1.3794  C.ar    1  <O>11      -0.0492
  16 C12       1.2888    -0.7731     2.8287  C.ar    1  <O>11      -0.0609
  17 C13      -0.0890    -1.4086     3.0474  C.ar    1  <O>11      -0.0582
  18 C14      -1.1225    -0.8741     2.0475  C.ar    1  <O>11      -0.0186
  19 C15      -0.6733    -1.0760     0.5906  C.ar    1  <O>11       0.1409
  20 O3       -1.7385    -0.5809    -0.2821  O.2     1  <O>11      -0.4208
  21 C16      -1.3512     0.4485    -1.2339  C.ar    1  <O>11       0.3601
  22 O4       -1.6242     0.4671    -2.6151  O.2     1  <O>11      -0.2430
  23 H1       -1.8920     3.1462    -1.1686  H       1  <O>11       0.1426
  24 H2       -0.5228     3.6865    -0.1916  H       1  <O>11       0.1426
  25 H3        1.8960     1.9272     1.7279  H       1  <O>11       0.1522
  26 H4        4.3519     0.4893     0.6168  H       1  <O>11       0.2954
  27 H5        1.9558     4.5419     0.5039  H       1  <O>11       0.0636
  28 H6        3.3663     5.8081    -1.0118  H       1  <O>11       0.0618
  29 H7        4.8289     4.6514    -2.5731  H       1  <O>11       0.0618
  30 H8        4.8792     2.2210    -2.6003  H       1  <O>11       0.0626
  31 H9        2.6873    -1.3418     1.1287  H       1  <O>11       0.0625
  32 H10       1.8277    -0.2892     3.5639  H       1  <O>11       0.0618
  33 H11      -0.2956    -2.1090     3.7767  H       1  <O>11       0.0619
  34 H12      -2.0139    -0.4314     2.3203  H       1  <O>11       0.0654
@<TRIPOS>BOND
     1     1     2    1
     2     2     3   ar
     3     3     4    1
     4     4     5    1
     5     5     6   ar
     6     6     7   ar
     7     7     8   ar
     8     8     9   ar
     9     9    10   ar
    10     5    10   ar
    11    10    11    1
    12    11    12    2
    13    11    13    1
    14     3    14   ar
    15    14    15   ar
    16    15    16   ar
    17    16    17   ar
    18    17    18   ar
    19    18    19   ar
    20    14    19   ar
    21    19    20   ar
    22    20    21   ar
    23     2    21   ar
    24    21    22    2
    25     1    23    1
    26     1    24    1
    27     4    25    1
    28    13    26    1
    29     6    27    1
    30     7    28    1
    31     8    29    1
    32     9    30    1
    33    15    31    1
    34    16    32    1
    35    17    33    1
    36    18    34    1
@<TRIPOS>MOLECULE
mol33_2_9
 34 36 0 0 0
SMALL
USER_CHARGES
****
VDW energy = 54.68
@<TRIPOS>ATOM
   1 N1       -1.0416     2.9353    -0.6465  N.pl3   1  <O>11      -0.3510
   2 C1       -0.5730     1.5759    -0.5515  C.ar    1  <O>11       0.1323
   3 C2        0.6800     1.0694     0.1874  C.ar    1  <O>11       0.0701
   4 N2        1.7430     1.8830     0.7200  N.pl3   1  <O>11      -0.3117
   5 C3        2.5958     2.6410    -0.1768  C.ar    1  <O>11       0.0455
   6 C4        2.1595     2.9522    -1.4766  C.ar    1  <O>11      -0.0397
   7 C5        2.9868     3.6728    -2.3445  C.ar    1  <O>11      -0.0600
   8 C6        4.2526     4.0910    -1.9249  C.ar    1  <O>11      -0.0609
   9 C7        4.6837     3.7867    -0.6276  C.ar    1  <O>11      -0.0460
  10 C8        3.8651     3.0702     0.2453  C.ar    1  <O>11       0.0799
  11 C9        4.3092     2.7623     1.5877  C.2     1  <O>11       0.3386
  12 O1        4.9174     1.7249     1.8070  O.2     1  <O>11      -0.2451
  13 O2        4.0494     3.6228     2.6019  O.3     1  <O>11      -0.4771
  14 C10       0.7349    -0.4680     0.3350  C.ar    1  <O>11       0.0405
  15 C11       1.7678    -0.9460     1.3794  C.ar    1  <O>11      -0.0492
  16 C12       1.2888    -0.7731     2.8287  C.ar    1  <O>11      -0.0609
  17 C13      -0.0890    -1.4086     3.0474  C.ar    1  <O>11      -0.0582
  18 C14      -1.1225    -0.8741     2.0475  C.ar    1  <O>11      -0.0186
  19 C15      -0.6733    -1.0760     0.5906  C.ar    1  <O>11       0.1409
  20 O3       -1.7385    -0.5809    -0.2821  O.2     1  <O>11      -0.4208
  21 C16      -1.3512     0.4485    -1.2339  C.ar    1  <O>11       0.3601
  22 O4       -1.6242     0.4671    -2.6151  O.2     1  <O>11      -0.2430
  23 H1       -1.8920     3.1462    -1.1686  H       1  <O>11       0.1426
  24 H2       -0.5228     3.6865    -0.1916  H       1  <O>11       0.1426
  25 H3        1.8960     1.9272     1.7279  H       1  <O>11       0.1522
  26 H4        3.5625     4.3876     2.2592  H       1  <O>11       0.2954
  27 H5        1.2251     2.6478    -1.7917  H       1  <O>11       0.0636
  28 H6        2.6613     3.8963    -3.2980  H       1  <O>11       0.0618
  29 H7        4.8647     4.6198    -2.5658  H       1  <O>11       0.0618
  30 H8        5.6171     4.0958    -0.3142  H       1  <O>11       0.0626
  31 H9        2.6873    -1.3418     1.1287  H       1  <O>11       0.0625
  32 H10       1.8277    -0.2892     3.5639  H       1  <O>11       0.0618
  33 H11      -0.2956    -2.1090     3.7767  H       1  <O>11       0.0619
  34 H12      -2.0139    -0.4314     2.3203  H       1  <O>11       0.0654
@<TRIPOS>BOND
     1     1     2    1
     2     2     3   ar
     3     3     4    1
     4     4     5    1
     5     5     6   ar
     6     6     7   ar
     7     7     8   ar
     8     8     9   ar
     9     9    10   ar
    10     5    10   ar
    11    10    11    1
    12    11    12    2
    13    11    13    1
    14     3    14   ar
    15    14    15   ar
    16    15    16   ar
    17    16    17   ar
    18    17    18   ar
    19    18    19   ar
    20    14    19   ar
    21    19    20   ar
    22    20    21   ar
    23     2    21   ar
    24    21    22    2
    25     1    23    1
    26     1    24    1
    27     4    25    1
    28    13    26    1
    29     6    27    1
    30     7    28    1
    31     8    29    1
    32     9    30    1
    33    15    31    1
    34    16    32    1
    35    17    33    1
    36    18    34    1
@<TRIPOS>MOLECULE
mol33_2_10
 34 36 0 0 0
SMALL
USER_CHARGES
****
VDW energy = 56.15
@<TRIPOS>ATOM
   1 N1       -1.0416     2.9353    -0.6465  N.pl3   1  <O>11      -0.3510
   2 C1       -0.5730     1.5759    -0.5515  C.ar    1  <O>11       0.1323
   3 C2        0.6800     1.0694     0.1874  C.ar    1  <O>11       0.0701
   4 N2        1.7430     1.8830     0.7200  N.pl3   1  <O>11      -0.3117
   5 C3        2.5958     2.6410    -0.1768  C.ar    1  <O>11       0.0455
   6 C4        2.1595     2.9522    -1.4766  C.ar    1  <O>11      -0.0397
   7 C5        2.9868     3.6728    -2.3445  C.ar    1  <O>11      -0.0600
   8 C6        4.2526     4.0910    -1.9249  C.ar    1  <O>11      -0.0609
   9 C7        4.6837     3.7867    -0.6276  C.ar    1  <O>11      -0.0460
  10 C8        3.8651     3.0702     0.2453  C.ar    1  <O>11       0.0799
  11 C9        4.3092     2.7623     1.5877  C.2     1  <O>11       0.3386
  12 O1        5.2015     1.9455     1.7636  O.2     1  <O>11      -0.2451
  13 O2        3.7350     3.3779     2.6497  O.3     1  <O>11      -0.4771
  14 C10       0.7349    -0.4680     0.3350  C.ar    1  <O>11       0.0405
  15 C11       1.7678    -0.9460     1.3794  C.ar    1  <O>11      -0.0492
  16 C12       1.2888    -0.7731     2.8287  C.ar    1  <O>11      -0.0609
  17 C13      -0.0890    -1.4086     3.0474  C.ar    1  <O>11      -0.0582
  18 C14      -1.1225    -0.8741     2.0475  C.ar    1  <O>11      -0.0186
  19 C15      -0.6733    -1.0760     0.5906  C.ar    1  <O>11       0.1409
  20 O3       -1.7385    -0.5809    -0.2821  O.2     1  <O>11      -0.4208
  21 C16      -1.3512     0.4485    -1.2339  C.ar    1  <O>11       0.3601
  22 O4       -1.6242     0.4671    -2.6151  O.2     1  <O>11      -0.2430
  23 H1       -1.8920     3.1462    -1.1686  H       1  <O>11       0.1426
  24 H2       -0.5228     3.6865    -0.1916  H       1  <O>11       0.1426
  25 H3        1.8960     1.9272     1.7279  H       1  <O>11       0.1522
  26 H4        3.0506     3.9889     2.3371  H       1  <O>11       0.2954
  27 H5        1.2251     2.6478    -1.7917  H       1  <O>11       0.0636
  28 H6        2.6613     3.8963    -3.2980  H       1  <O>11       0.0618
  29 H7        4.8647     4.6198    -2.5658  H       1  <O>11       0.0618
  30 H8        5.6171     4.0958    -0.3142  H       1  <O>11       0.0626
  31 H9        2.6873    -1.3418     1.1287  H       1  <O>11       0.0625
  32 H10       1.8277    -0.2892     3.5639  H       1  <O>11       0.0618
  33 H11      -0.2956    -2.1090     3.7767  H       1  <O>11       0.0619
  34 H12      -2.0139    -0.4314     2.3203  H       1  <O>11       0.0654
@<TRIPOS>BOND
     1     1     2    1
     2     2     3   ar
     3     3     4    1
     4     4     5    1
     5     5     6   ar
     6     6     7   ar
     7     7     8   ar
     8     8     9   ar
     9     9    10   ar
    10     5    10   ar
    11    10    11    1
    12    11    12    2
    13    11    13    1
    14     3    14   ar
    15    14    15   ar
    16    15    16   ar
    17    16    17   ar
    18    17    18   ar
    19    18    19   ar
    20    14    19   ar
    21    19    20   ar
    22    20    21   ar
    23     2    21   ar
    24    21    22    2
    25     1    23    1
    26     1    24    1
    27     4    25    1
    28    13    26    1
    29     6    27    1
    30     7    28    1
    31     8    29    1
    32     9    30    1
    33    15    31    1
    34    16    32    1
    35    17    33    1
    36    18    34    1
@<TRIPOS>MOLECULE
mol33_2_11
 34 36 0 0 0
SMALL
USER_CHARGES
****
VDW energy = 57.79
@<TRIPOS>ATOM
   1 N1       -1.0416     2.9353    -0.6465  N.pl3   1  <O>11      -0.3510
   2 C1       -0.5730     1.5759    -0.5515  C.ar    1  <O>11       0.1323
   3 C2        0.6800     1.0694     0.1874  C.ar    1  <O>11       0.0701
   4 N2        1.7430     1.8830     0.7200  N.pl3   1  <O>11      -0.3117
   5 C3        2.8904     2.2099    -0.1063  C.ar    1  <O>11       0.0455
   6 C4        4.0189     1.3713    -0.1169  C.ar    1  <O>11      -0.0397
   7 C5        5.1291     1.6932    -0.9047  C.ar    1  <O>11      -0.0600
   8 C6        5.1238     2.8498    -1.6893  C.ar    1  <O>11      -0.0609
   9 C7        3.9966     3.6808    -1.6835  C.ar    1  <O>11      -0.0460
  10 C8        2.8843     3.3672    -0.9026  C.ar    1  <O>11       0.0799
  11 C9        1.7176     4.2233    -0.9029  C.2     1  <O>11       0.3386
  12 O1        1.6318     5.1391    -0.0978  O.2     1  <O>11      -0.2451
  13 O2        0.7195     4.0089    -1.7942  O.3     1  <O>11      -0.4771
  14 C10       0.7349    -0.4680     0.3350  C.ar    1  <O>11       0.0405
  15 C11       1.7678    -0.9460     1.3794  C.ar    1  <O>11      -0.0492
  16 C12       1.2888    -0.7731     2.8287  C.ar    1  <O>11      -0.0609
  17 C13      -0.0890    -1.4086     3.0474  C.ar    1  <O>11      -0.0582
  18 C14      -1.1225    -0.8741     2.0475  C.ar    1  <O>11      -0.0186
  19 C15      -0.6733    -1.0760     0.5906  C.ar    1  <O>11       0.1409
  20 O3       -1.7385    -0.5809    -0.2821  O.2     1  <O>11      -0.4208
  21 C16      -1.3512     0.4485    -1.2339  C.ar    1  <O>11       0.3601
  22 O4       -1.6242     0.4671    -2.6151  O.2     1  <O>11      -0.2430
  23 H1       -1.8920     3.1462    -1.1686  H       1  <O>11       0.1426
  24 H2       -0.5228     3.6865    -0.1916  H       1  <O>11       0.1426
  25 H3        1.6890     2.2303     1.6779  H       1  <O>11       0.1522
  26 H4        0.9441     3.2498    -2.3534  H       1  <O>11       0.2954
  27 H5        4.0282     0.5149     0.4588  H       1  <O>11       0.0636
  28 H6        5.9551     1.0744    -0.9065  H       1  <O>11       0.0618
  29 H7        5.9438     3.0895    -2.2682  H       1  <O>11       0.0618
  30 H8        3.9888     4.5345    -2.2633  H       1  <O>11       0.0626
  31 H9        2.6873    -1.3418     1.1287  H       1  <O>11       0.0625
  32 H10       1.8277    -0.2892     3.5639  H       1  <O>11       0.0618
  33 H11      -0.2956    -2.1090     3.7767  H       1  <O>11       0.0619
  34 H12      -2.0139    -0.4314     2.3203  H       1  <O>11       0.0654
@<TRIPOS>BOND
     1     1     2    1
     2     2     3   ar
     3     3     4    1
     4     4     5    1
     5     5     6   ar
     6     6     7   ar
     7     7     8   ar
     8     8     9   ar
     9     9    10   ar
    10     5    10   ar
    11    10    11    1
    12    11    12    2
    13    11    13    1
    14     3    14   ar
    15    14    15   ar
    16    15    16   ar
    17    16    17   ar
    18    17    18   ar
    19    18    19   ar
    20    14    19   ar
    21    19    20   ar
    22    20    21   ar
    23     2    21   ar
    24    21    22    2
    25     1    23    1
    26     1    24    1
    27     4    25    1
    28    13    26    1
    29     6    27    1
    30     7    28    1
    31     8    29    1
    32     9    30    1
    33    15    31    1
    34    16    32    1
    35    17    33    1
    36    18    34    1
@<TRIPOS>MOLECULE
mol33_2_12
 34 36 0 0 0
SMALL
USER_CHARGES
****
VDW energy = 59.28
@<TRIPOS>ATOM
   1 N1       -1.0416     2.9353    -0.6465  N.pl3   1  <O>11      -0.3510
   2 C1       -0.5730     1.5759    -0.5515  C.ar    1  <O>11       0.1323
   3 C2        0.6800     1.0694     0.1874  C.ar    1  <O>11       0.0701
   4 N2        1.7430     1.8830     0.7200  N.pl3   1  <O>11      -0.3117
   5 C3        2.5958     2.6410    -0.1768  C.ar    1  <O>11       0.0455
   6 C4        2.5744     4.0466    -0.1572  C.ar    1  <O>11      -0.0397
   7 C5        3.3882     4.7765    -1.0300  C.ar    1  <O>11      -0.0600
   8 C6        4.2307     4.1136    -1.9266  C.ar    1  <O>11      -0.0609
   9 C7        4.2566     2.7134    -1.9408  C.ar    1  <O>11      -0.0460
  10 C8        3.4501     1.9772    -1.0730  C.ar    1  <O>11       0.0799
  11 C9        3.4830     0.5305    -1.0841  C.2     1  <O>11       0.3386
  12 O1        4.4679    -0.0612    -0.6668  O.2     1  <O>11      -0.2451
  13 O2        2.4232    -0.1682    -1.5586  O.3     1  <O>11      -0.4771
  14 C10       0.7349    -0.4680     0.3350  C.ar    1  <O>11       0.0405
  15 C11       1.7678    -0.9460     1.3794  C.ar    1  <O>11      -0.0492
  16 C12       1.2888    -0.7731     2.8287  C.ar    1  <O>11      -0.0609
  17 C13      -0.0890    -1.4086     3.0474  C.ar    1  <O>11      -0.0582
  18 C14      -1.1225    -0.8741     2.0475  C.ar    1  <O>11      -0.0186
  19 C15      -0.6733    -1.0760     0.5906  C.ar    1  <O>11       0.1409
  20 O3       -1.7385    -0.5809    -0.2821  O.2     1  <O>11      -0.4208
  21 C16      -1.3512     0.4485    -1.2339  C.ar    1  <O>11       0.3601
  22 O4       -1.6242     0.4671    -2.6151  O.2     1  <O>11      -0.2430
  23 H1       -1.8920     3.1462    -1.1686  H       1  <O>11       0.1426
  24 H2       -0.5228     3.6865    -0.1916  H       1  <O>11       0.1426
  25 H3        1.8960     1.9272     1.7279  H       1  <O>11       0.1522
  26 H4        1.7339     0.4486    -1.8484  H       1  <O>11       0.2954
  27 H5        1.9558     4.5419     0.5039  H       1  <O>11       0.0636
  28 H6        3.3663     5.8081    -1.0118  H       1  <O>11       0.0618
  29 H7        4.8289     4.6514    -2.5731  H       1  <O>11       0.0618
  30 H8        4.8792     2.2210    -2.6003  H       1  <O>11       0.0626
  31 H9        2.6873    -1.3418     1.1287  H       1  <O>11       0.0625
  32 H10       1.8277    -0.2892     3.5639  H       1  <O>11       0.0618
  33 H11      -0.2956    -2.1090     3.7767  H       1  <O>11       0.0619
  34 H12      -2.0139    -0.4314     2.3203  H       1  <O>11       0.0654
@<TRIPOS>BOND
     1     1     2    1
     2     2     3   ar
     3     3     4    1
     4     4     5    1
     5     5     6   ar
     6     6     7   ar
     7     7     8   ar
     8     8     9   ar
     9     9    10   ar
    10     5    10   ar
    11    10    11    1
    12    11    12    2
    13    11    13    1
    14     3    14   ar
    15    14    15   ar
    16    15    16   ar
    17    16    17   ar
    18    17    18   ar
    19    18    19   ar
    20    14    19   ar
    21    19    20   ar
    22    20    21   ar
    23     2    21   ar
    24    21    22    2
    25     1    23    1
    26     1    24    1
    27     4    25    1
    28    13    26    1
    29     6    27    1
    30     7    28    1
    31     8    29    1
    32     9    30    1
    33    15    31    1
    34    16    32    1
    35    17    33    1
    36    18    34    1
@<TRIPOS>MOLECULE
mol33_2_13
 34 36 0 0 0
SMALL
USER_CHARGES
****
VDW energy = 60.21
@<TRIPOS>ATOM
   1 N1       -1.0416     2.9353    -0.6465  N.pl3   1  <O>11      -0.3510
   2 C1       -0.5730     1.5759    -0.5515  C.ar    1  <O>11       0.1323
   3 C2        0.6800     1.0694     0.1874  C.ar    1  <O>11       0.0701
   4 N2        1.7430     1.8830     0.7200  N.pl3   1  <O>11      -0.3117
   5 C3        2.8904     2.2099    -0.1063  C.ar    1  <O>11       0.0455
   6 C4        2.7999     2.1356    -1.5073  C.ar    1  <O>11      -0.0397
   7 C5        3.9097     2.4396    -2.3028  C.ar    1  <O>11      -0.0600
   8 C6        5.1164     2.8220    -1.7104  C.ar    1  <O>11      -0.0609
   9 C7        5.2038     2.9024    -0.3150  C.ar    1  <O>11      -0.0460
  10 C8        4.1020     2.6029     0.4862  C.ar    1  <O>11       0.0799
  11 C9        4.1918     2.6931     1.9277  C.2     1  <O>11       0.3386
  12 O1        3.1730     2.7201     2.6026  O.2     1  <O>11      -0.2451
  13 O2        5.4049     2.7497     2.5292  O.3     1  <O>11      -0.4771
  14 C10       0.7349    -0.4680     0.3350  C.ar    1  <O>11       0.0405
  15 C11       1.7678    -0.9460     1.3794  C.ar    1  <O>11      -0.0492
  16 C12       1.2888    -0.7731     2.8287  C.ar    1  <O>11      -0.0609
  17 C13      -0.0890    -1.4086     3.0474  C.ar    1  <O>11      -0.0582
  18 C14      -1.1225    -0.8741     2.0475  C.ar    1  <O>11      -0.0186
  19 C15      -0.6733    -1.0760     0.5906  C.ar    1  <O>11       0.1409
  20 O3       -1.7385    -0.5809    -0.2821  O.2     1  <O>11      -0.4208
  21 C16      -1.3512     0.4485    -1.2339  C.ar    1  <O>11       0.3601
  22 O4       -1.6242     0.4671    -2.6151  O.2     1  <O>11      -0.2430
  23 H1       -1.8920     3.1462    -1.1686  H       1  <O>11       0.1426
  24 H2       -0.5228     3.6865    -0.1916  H       1  <O>11       0.1426
  25 H3        1.6890     2.2303     1.6779  H       1  <O>11       0.1522
  26 H4        6.1008     2.7192     1.8553  H       1  <O>11       0.2954
  27 H5        1.9110     1.8558    -1.9507  H       1  <O>11       0.0636
  28 H6        3.8371     2.3812    -3.3306  H       1  <O>11       0.0618
  29 H7        5.9365     3.0432    -2.2966  H       1  <O>11       0.0618
  30 H8        6.0929     3.1864     0.1253  H       1  <O>11       0.0626
  31 H9        2.6873    -1.3418     1.1287  H       1  <O>11       0.0625
  32 H10       1.8277    -0.2892     3.5639  H       1  <O>11       0.0618
  33 H11      -0.2956    -2.1090     3.7767  H       1  <O>11       0.0619
  34 H12      -2.0139    -0.4314     2.3203  H       1  <O>11       0.0654
@<TRIPOS>BOND
     1     1     2    1
     2     2     3   ar
     3     3     4    1
     4     4     5    1
     5     5     6   ar
     6     6     7   ar
     7     7     8   ar
     8     8     9   ar
     9     9    10   ar
    10     5    10   ar
    11    10    11    1
    12    11    12    2
    13    11    13    1
    14     3    14   ar
    15    14    15   ar
    16    15    16   ar
    17    16    17   ar
    18    17    18   ar
    19    18    19   ar
    20    14    19   ar
    21    19    20   ar
    22    20    21   ar
    23     2    21   ar
    24    21    22    2
    25     1    23    1
    26     1    24    1
    27     4    25    1
    28    13    26    1
    29     6    27    1
    30     7    28    1
    31     8    29    1
    32     9    30    1
    33    15    31    1
    34    16    32    1
    35    17    33    1
    36    18    34    1
@<TRIPOS>MOLECULE
mol33_2_14
 34 36 0 0 0
SMALL
USER_CHARGES
****
VDW energy = 60.32
@<TRIPOS>ATOM
   1 N1       -1.0416     2.9353    -0.6465  N.pl3   1  <O>11      -0.3510
   2 C1       -0.5730     1.5759    -0.5515  C.ar    1  <O>11       0.1323
   3 C2        0.6800     1.0694     0.1874  C.ar    1  <O>11       0.0701
   4 N2        1.7430     1.8830     0.7200  N.pl3   1  <O>11      -0.3117
   5 C3        3.0890     1.3484     0.8133  C.ar    1  <O>11       0.0455
   6 C4        3.6840     1.1402     2.0700  C.ar    1  <O>11      -0.0397
   7 C5        4.9858     0.6359     2.1590  C.ar    1  <O>11      -0.0600
   8 C6        5.7037     0.3327     0.9988  C.ar    1  <O>11      -0.0609
   9 C7        5.1078     0.5338    -0.2524  C.ar    1  <O>11      -0.0460
  10 C8        3.8097     1.0346    -0.3509  C.ar    1  <O>11       0.0799
  11 C9        3.1927     1.2355    -1.6444  C.2     1  <O>11       0.3386
  12 O1        2.8698     0.2716    -2.3233  O.2     1  <O>11      -0.2451
  13 O2        2.9747     2.4916    -2.1039  O.3     1  <O>11      -0.4771
  14 C10       0.7349    -0.4680     0.3350  C.ar    1  <O>11       0.0405
  15 C11       1.7678    -0.9460     1.3794  C.ar    1  <O>11      -0.0492
  16 C12       1.2888    -0.7731     2.8287  C.ar    1  <O>11      -0.0609
  17 C13      -0.0890    -1.4086     3.0474  C.ar    1  <O>11      -0.0582
  18 C14      -1.1225    -0.8741     2.0475  C.ar    1  <O>11      -0.0186
  19 C15      -0.6733    -1.0760     0.5906  C.ar    1  <O>11       0.1409
  20 O3       -1.7385    -0.5809    -0.2821  O.2     1  <O>11      -0.4208
  21 C16      -1.3512     0.4485    -1.2339  C.ar    1  <O>11       0.3601
  22 O4       -1.6242     0.4671    -2.6151  O.2     1  <O>11      -0.2430
  23 H1       -1.8920     3.1462    -1.1686  H       1  <O>11       0.1426
  24 H2       -0.5228     3.6865    -0.1916  H       1  <O>11       0.1426
  25 H3        1.5500     2.8355     1.0309  H       1  <O>11       0.1522
  26 H4        3.2879     3.1335    -1.4488  H       1  <O>11       0.2954
  27 H5        3.1583     1.3603     2.9303  H       1  <O>11       0.0636
  28 H6        5.4175     0.4872     3.0845  H       1  <O>11       0.0618
  29 H7        6.6653    -0.0363     1.0637  H       1  <O>11       0.0618
  30 H8        5.6347     0.3090    -1.1108  H       1  <O>11       0.0626
  31 H9        2.6873    -1.3418     1.1287  H       1  <O>11       0.0625
  32 H10       1.8277    -0.2892     3.5639  H       1  <O>11       0.0618
  33 H11      -0.2956    -2.1090     3.7767  H       1  <O>11       0.0619
  34 H12      -2.0139    -0.4314     2.3203  H       1  <O>11       0.0654
@<TRIPOS>BOND
     1     1     2    1
     2     2     3   ar
     3     3     4    1
     4     4     5    1
     5     5     6   ar
     6     6     7   ar
     7     7     8   ar
     8     8     9   ar
     9     9    10   ar
    10     5    10   ar
    11    10    11    1
    12    11    12    2
    13    11    13    1
    14     3    14   ar
    15    14    15   ar
    16    15    16   ar
    17    16    17   ar
    18    17    18   ar
    19    18    19   ar
    20    14    19   ar
    21    19    20   ar
    22    20    21   ar
    23     2    21   ar
    24    21    22    2
    25     1    23    1
    26     1    24    1
    27     4    25    1
    28    13    26    1
    29     6    27    1
    30     7    28    1
    31     8    29    1
    32     9    30    1
    33    15    31    1
    34    16    32    1
    35    17    33    1
    36    18    34    1
@<TRIPOS>MOLECULE
mol33_2_15
 34 36 0 0 0
SMALL
USER_CHARGES
****
VDW energy = 61.91
@<TRIPOS>ATOM
   1 N1       -1.0416     2.9353    -0.6465  N.pl3   1  <O>11      -0.3510
   2 C1       -0.5730     1.5759    -0.5515  C.ar    1  <O>11       0.1323
   3 C2        0.6800     1.0694     0.1874  C.ar    1  <O>11       0.0701
   4 N2        1.7430     1.8830     0.7200  N.pl3   1  <O>11      -0.3117
   5 C3        1.4795     2.7923     1.8199  C.ar    1  <O>11       0.0455
   6 C4        0.3649     2.5934     2.6534  C.ar    1  <O>11      -0.0397
   7 C5        0.1050     3.4770     3.7063  C.ar    1  <O>11      -0.0600
   8 C6        0.9533     4.5630     3.9391  C.ar    1  <O>11      -0.0609
   9 C7        2.0673     4.7565     3.1127  C.ar    1  <O>11      -0.0460
  10 C8        2.3354     3.8798     2.0616  C.ar    1  <O>11       0.0799
  11 C9        3.4907     4.0771     1.2128  C.2     1  <O>11       0.3386
  12 O1        3.8851     3.1681     0.4969  O.2     1  <O>11      -0.2451
  13 O2        4.1365     5.2685     1.2129  O.3     1  <O>11      -0.4771
  14 C10       0.7349    -0.4680     0.3350  C.ar    1  <O>11       0.0405
  15 C11       1.7678    -0.9460     1.3794  C.ar    1  <O>11      -0.0492
  16 C12       1.2888    -0.7731     2.8287  C.ar    1  <O>11      -0.0609
  17 C13      -0.0890    -1.4086     3.0474  C.ar    1  <O>11      -0.0582
  18 C14      -1.1225    -0.8741     2.0475  C.ar    1  <O>11      -0.0186
  19 C15      -0.6733    -1.0760     0.5906  C.ar    1  <O>11       0.1409
  20 O3       -1.7385    -0.5809    -0.2821  O.2     1  <O>11      -0.4208
  21 C16      -1.3512     0.4485    -1.2339  C.ar    1  <O>11       0.3601
  22 O4       -1.6242     0.4671    -2.6151  O.2     1  <O>11      -0.2430
  23 H1       -1.8920     3.1462    -1.1686  H       1  <O>11       0.1426
  24 H2       -0.5228     3.6865    -0.1916  H       1  <O>11       0.1426
  25 H3        2.6815     1.8195     0.3246  H       1  <O>11       0.1522
  26 H4        3.6990     5.8725     1.8320  H       1  <O>11       0.2954
  27 H5       -0.2642     1.7922     2.4877  H       1  <O>11       0.0636
  28 H6       -0.7160     3.3264     4.3131  H       1  <O>11       0.0618
  29 H7        0.7603     5.2171     4.7136  H       1  <O>11       0.0618
  30 H8        2.6966     5.5564     3.2834  H       1  <O>11       0.0626
  31 H9        2.6873    -1.3418     1.1287  H       1  <O>11       0.0625
  32 H10       1.8277    -0.2892     3.5639  H       1  <O>11       0.0618
  33 H11      -0.2956    -2.1090     3.7767  H       1  <O>11       0.0619
  34 H12      -2.0139    -0.4314     2.3203  H       1  <O>11       0.0654
@<TRIPOS>BOND
     1     1     2    1
     2     2     3   ar
     3     3     4    1
     4     4     5    1
     5     5     6   ar
     6     6     7   ar
     7     7     8   ar
     8     8     9   ar
     9     9    10   ar
    10     5    10   ar
    11    10    11    1
    12    11    12    2
    13    11    13    1
    14     3    14   ar
    15    14    15   ar
    16    15    16   ar
    17    16    17   ar
    18    17    18   ar
    19    18    19   ar
    20    14    19   ar
    21    19    20   ar
    22    20    21   ar
    23     2    21   ar
    24    21    22    2
    25     1    23    1
    26     1    24    1
    27     4    25    1
    28    13    26    1
    29     6    27    1
    30     7    28    1
    31     8    29    1
    32     9    30    1
    33    15    31    1
    34    16    32    1
    35    17    33    1
    36    18    34    1
@<TRIPOS>MOLECULE
mol33_2_16
 34 36 0 0 0
SMALL
USER_CHARGES
****
VDW energy = 64.75
@<TRIPOS>ATOM
   1 N1       -1.0416     2.9353    -0.6465  N.pl3   1  <O>11      -0.3510
   2 C1       -0.5730     1.5759    -0.5515  C.ar    1  <O>11       0.1323
   3 C2        0.6800     1.0694     0.1874  C.ar    1  <O>11       0.0701
   4 N2        1.7430     1.8830     0.7200  N.pl3   1  <O>11      -0.3117
   5 C3        2.5958     2.6410    -0.1768  C.ar    1  <O>11       0.0455
   6 C4        2.1595     2.9522    -1.4766  C.ar    1  <O>11      -0.0397
   7 C5        2.9868     3.6728    -2.3445  C.ar    1  <O>11      -0.0600
   8 C6        4.2526     4.0910    -1.9249  C.ar    1  <O>11      -0.0609
   9 C7        4.6837     3.7867    -0.6276  C.ar    1  <O>11      -0.0460
  10 C8        3.8651     3.0702     0.2453  C.ar    1  <O>11       0.0799
  11 C9        4.3092     2.7623     1.5877  C.2     1  <O>11       0.3386
  12 O1        3.5005     2.4042     2.4315  O.2     1  <O>11      -0.2451
  13 O2        5.6208     2.8728     1.9100  O.3     1  <O>11      -0.4771
  14 C10       0.7349    -0.4680     0.3350  C.ar    1  <O>11       0.0405
  15 C11       1.7678    -0.9460     1.3794  C.ar    1  <O>11      -0.0492
  16 C12       1.2888    -0.7731     2.8287  C.ar    1  <O>11      -0.0609
  17 C13      -0.0890    -1.4086     3.0474  C.ar    1  <O>11      -0.0582
  18 C14      -1.1225    -0.8741     2.0475  C.ar    1  <O>11      -0.0186
  19 C15      -0.6733    -1.0760     0.5906  C.ar    1  <O>11       0.1409
  20 O3       -1.7385    -0.5809    -0.2821  O.2     1  <O>11      -0.4208
  21 C16      -1.3512     0.4485    -1.2339  C.ar    1  <O>11       0.3601
  22 O4       -1.6242     0.4671    -2.6151  O.2     1  <O>11      -0.2430
  23 H1       -1.8920     3.1462    -1.1686  H       1  <O>11       0.1426
  24 H2       -0.5228     3.6865    -0.1916  H       1  <O>11       0.1426
  25 H3        1.8960     1.9272     1.7279  H       1  <O>11       0.1522
  26 H4        6.1202     3.1666     1.1330  H       1  <O>11       0.2954
  27 H5        1.2251     2.6478    -1.7917  H       1  <O>11       0.0636
  28 H6        2.6613     3.8963    -3.2980  H       1  <O>11       0.0618
  29 H7        4.8647     4.6198    -2.5658  H       1  <O>11       0.0618
  30 H8        5.6171     4.0958    -0.3142  H       1  <O>11       0.0626
  31 H9        2.6873    -1.3418     1.1287  H       1  <O>11       0.0625
  32 H10       1.8277    -0.2892     3.5639  H       1  <O>11       0.0618
  33 H11      -0.2956    -2.1090     3.7767  H       1  <O>11       0.0619
  34 H12      -2.0139    -0.4314     2.3203  H       1  <O>11       0.0654
@<TRIPOS>BOND
     1     1     2    1
     2     2     3   ar
     3     3     4    1
     4     4     5    1
     5     5     6   ar
     6     6     7   ar
     7     7     8   ar
     8     8     9   ar
     9     9    10   ar
    10     5    10   ar
    11    10    11    1
    12    11    12    2
    13    11    13    1
    14     3    14   ar
    15    14    15   ar
    16    15    16   ar
    17    16    17   ar
    18    17    18   ar
    19    18    19   ar
    20    14    19   ar
    21    19    20   ar
    22    20    21   ar
    23     2    21   ar
    24    21    22    2
    25     1    23    1
    26     1    24    1
    27     4    25    1
    28    13    26    1
    29     6    27    1
    30     7    28    1
    31     8    29    1
    32     9    30    1
    33    15    31    1
    34    16    32    1
    35    17    33    1
    36    18    34    1
@<TRIPOS>MOLECULE
mol33_2_17
 34 36 0 0 0
SMALL
USER_CHARGES
****
VDW energy = 73.00
@<TRIPOS>ATOM
   1 N1       -1.0416     2.9353    -0.6465  N.pl3   1  <O>11      -0.3510
   2 C1       -0.5730     1.5759    -0.5515  C.ar    1  <O>11       0.1323
   3 C2        0.6800     1.0694     0.1874  C.ar    1  <O>11       0.0701
   4 N2        1.7430     1.8830     0.7200  N.pl3   1  <O>11      -0.3117
   5 C3        2.8904     2.2099    -0.1063  C.ar    1  <O>11       0.0455
   6 C4        4.1657     1.7190     0.2245  C.ar    1  <O>11      -0.0397
   7 C5        5.2732     2.0440    -0.5658  C.ar    1  <O>11      -0.0600
   8 C6        5.1196     2.8574    -1.6920  C.ar    1  <O>11      -0.0609
   9 C7        3.8478     3.3402    -2.0248  C.ar    1  <O>11      -0.0460
  10 C8        2.7375     3.0200    -1.2437  C.ar    1  <O>11       0.0799
  11 C9        1.4229     3.5141    -1.5927  C.2     1  <O>11       0.3386
  12 O1        0.7017     2.8612    -2.3330  O.2     1  <O>11      -0.2451
  13 O2        0.9919     4.7009    -1.1007  O.3     1  <O>11      -0.4771
  14 C10       0.7349    -0.4680     0.3350  C.ar    1  <O>11       0.0405
  15 C11       1.7678    -0.9460     1.3794  C.ar    1  <O>11      -0.0492
  16 C12       1.2888    -0.7731     2.8287  C.ar    1  <O>11      -0.0609
  17 C13      -0.0890    -1.4086     3.0474  C.ar    1  <O>11      -0.0582
  18 C14      -1.1225    -0.8741     2.0475  C.ar    1  <O>11      -0.0186
  19 C15      -0.6733    -1.0760     0.5906  C.ar    1  <O>11       0.1409
  20 O3       -1.7385    -0.5809    -0.2821  O.2     1  <O>11      -0.4208
  21 C16      -1.3512     0.4485    -1.2339  C.ar    1  <O>11       0.3601
  22 O4       -1.6242     0.4671    -2.6151  O.2     1  <O>11      -0.2430
  23 H1       -1.8920     3.1462    -1.1686  H       1  <O>11       0.1426
  24 H2       -0.5228     3.6865    -0.1916  H       1  <O>11       0.1426
  25 H3        1.6890     2.2303     1.6779  H       1  <O>11       0.1522
  26 H4        1.6804     5.0855    -0.5372  H       1  <O>11       0.2954
  27 H5        4.2852     1.1164     1.0537  H       1  <O>11       0.0636
  28 H6        6.2069     1.6820    -0.3164  H       1  <O>11       0.0618
  29 H7        5.9368     3.1002    -2.2736  H       1  <O>11       0.0618
  30 H8        3.7310     3.9393    -2.8569  H       1  <O>11       0.0626
  31 H9        2.6873    -1.3418     1.1287  H       1  <O>11       0.0625
  32 H10       1.8277    -0.2892     3.5639  H       1  <O>11       0.0618
  33 H11      -0.2956    -2.1090     3.7767  H       1  <O>11       0.0619
  34 H12      -2.0139    -0.4314     2.3203  H       1  <O>11       0.0654
@<TRIPOS>BOND
     1     1     2    1
     2     2     3   ar
     3     3     4    1
     4     4     5    1
     5     5     6   ar
     6     6     7   ar
     7     7     8   ar
     8     8     9   ar
     9     9    10   ar
    10     5    10   ar
    11    10    11    1
    12    11    12    2
    13    11    13    1
    14     3    14   ar
    15    14    15   ar
    16    15    16   ar
    17    16    17   ar
    18    17    18   ar
    19    18    19   ar
    20    14    19   ar
    21    19    20   ar
    22    20    21   ar
    23     2    21   ar
    24    21    22    2
    25     1    23    1
    26     1    24    1
    27     4    25    1
    28    13    26    1
    29     6    27    1
    30     7    28    1
    31     8    29    1
    32     9    30    1
    33    15    31    1
    34    16    32    1
    35    17    33    1
    36    18    34    1
@<TRIPOS>MOLECULE
mol33_2_18
 34 36 0 0 0
SMALL
USER_CHARGES
****
VDW energy = 75.85
@<TRIPOS>ATOM
   1 N1       -1.0416     2.9353    -0.6465  N.pl3   1  <O>11      -0.3510
   2 C1       -0.5730     1.5759    -0.5515  C.ar    1  <O>11       0.1323
   3 C2        0.6800     1.0694     0.1874  C.ar    1  <O>11       0.0701
   4 N2        1.7430     1.8830     0.7200  N.pl3   1  <O>11      -0.3117
   5 C3        3.0890     1.3484     0.8133  C.ar    1  <O>11       0.0455
   6 C4        3.6840     1.1402     2.0700  C.ar    1  <O>11      -0.0397
   7 C5        4.9858     0.6359     2.1590  C.ar    1  <O>11      -0.0600
   8 C6        5.7037     0.3327     0.9988  C.ar    1  <O>11      -0.0609
   9 C7        5.1078     0.5338    -0.2524  C.ar    1  <O>11      -0.0460
  10 C8        3.8097     1.0346    -0.3509  C.ar    1  <O>11       0.0799
  11 C9        3.1927     1.2355    -1.6444  C.2     1  <O>11       0.3386
  12 O1        1.9827     1.3879    -1.7269  O.2     1  <O>11      -0.2451
  13 O2        3.9558     1.2527    -2.7642  O.3     1  <O>11      -0.4771
  14 C10       0.7349    -0.4680     0.3350  C.ar    1  <O>11       0.0405
  15 C11       1.7678    -0.9460     1.3794  C.ar    1  <O>11      -0.0492
  16 C12       1.2888    -0.7731     2.8287  C.ar    1  <O>11      -0.0609
  17 C13      -0.0890    -1.4086     3.0474  C.ar    1  <O>11      -0.0582
  18 C14      -1.1225    -0.8741     2.0475  C.ar    1  <O>11      -0.0186
  19 C15      -0.6733    -1.0760     0.5906  C.ar    1  <O>11       0.1409
  20 O3       -1.7385    -0.5809    -0.2821  O.2     1  <O>11      -0.4208
  21 C16      -1.3512     0.4485    -1.2339  C.ar    1  <O>11       0.3601
  22 O4       -1.6242     0.4671    -2.6151  O.2     1  <O>11      -0.2430
  23 H1       -1.8920     3.1462    -1.1686  H       1  <O>11       0.1426
  24 H2       -0.5228     3.6865    -0.1916  H       1  <O>11       0.1426
  25 H3        1.5500     2.8355     1.0309  H       1  <O>11       0.1522
  26 H4        4.8848     1.1171    -2.5236  H       1  <O>11       0.2954
  27 H5        3.1583     1.3603     2.9303  H       1  <O>11       0.0636
  28 H6        5.4175     0.4872     3.0845  H       1  <O>11       0.0618
  29 H7        6.6653    -0.0363     1.0637  H       1  <O>11       0.0618
  30 H8        5.6347     0.3090    -1.1108  H       1  <O>11       0.0626
  31 H9        2.6873    -1.3418     1.1287  H       1  <O>11       0.0625
  32 H10       1.8277    -0.2892     3.5639  H       1  <O>11       0.0618
  33 H11      -0.2956    -2.1090     3.7767  H       1  <O>11       0.0619
  34 H12      -2.0139    -0.4314     2.3203  H       1  <O>11       0.0654
@<TRIPOS>BOND
     1     1     2    1
     2     2     3   ar
     3     3     4    1
     4     4     5    1
     5     5     6   ar
     6     6     7   ar
     7     7     8   ar
     8     8     9   ar
     9     9    10   ar
    10     5    10   ar
    11    10    11    1
    12    11    12    2
    13    11    13    1
    14     3    14   ar
    15    14    15   ar
    16    15    16   ar
    17    16    17   ar
    18    17    18   ar
    19    18    19   ar
    20    14    19   ar
    21    19    20   ar
    22    20    21   ar
    23     2    21   ar
    24    21    22    2
    25     1    23    1
    26     1    24    1
    27     4    25    1
    28    13    26    1
    29     6    27    1
    30     7    28    1
    31     8    29    1
    32     9    30    1
    33    15    31    1
    34    16    32    1
    35    17    33    1
    36    18    34    1
@<TRIPOS>MOLECULE
mol33_2_19
 34 36 0 0 0
SMALL
USER_CHARGES
****
VDW energy = 80.41
@<TRIPOS>ATOM
   1 N1       -1.0416     2.9353    -0.6465  N.pl3   1  <O>11      -0.3510
   2 C1       -0.5730     1.5759    -0.5515  C.ar    1  <O>11       0.1323
   3 C2        0.6800     1.0694     0.1874  C.ar    1  <O>11       0.0701
   4 N2        1.7430     1.8830     0.7200  N.pl3   1  <O>11      -0.3117
   5 C3        1.6666     2.3758     2.0829  C.ar    1  <O>11       0.0455
   6 C4        0.8323     1.7422     3.0206  C.ar    1  <O>11      -0.0397
   7 C5        0.7503     2.2249     4.3310  C.ar    1  <O>11      -0.0600
   8 C6        1.4993     3.3395     4.7185  C.ar    1  <O>11      -0.0609
   9 C7        2.3353     3.9658     3.7858  C.ar    1  <O>11      -0.0460
  10 C8        2.4249     3.4906     2.4775  C.ar    1  <O>11       0.0799
  11 C9        3.2945     4.1346     1.5166  C.2     1  <O>11       0.3386
  12 O1        2.8686     5.0462     0.8224  O.2     1  <O>11      -0.2451
  13 O2        4.5799     3.7263     1.3851  O.3     1  <O>11      -0.4771
  14 C10       0.7349    -0.4680     0.3350  C.ar    1  <O>11       0.0405
  15 C11       1.7678    -0.9460     1.3794  C.ar    1  <O>11      -0.0492
  16 C12       1.2888    -0.7731     2.8287  C.ar    1  <O>11      -0.0609
  17 C13      -0.0890    -1.4086     3.0474  C.ar    1  <O>11      -0.0582
  18 C14      -1.1225    -0.8741     2.0475  C.ar    1  <O>11      -0.0186
  19 C15      -0.6733    -1.0760     0.5906  C.ar    1  <O>11       0.1409
  20 O3       -1.7385    -0.5809    -0.2821  O.2     1  <O>11      -0.4208
  21 C16      -1.3512     0.4485    -1.2339  C.ar    1  <O>11       0.3601
  22 O4       -1.6242     0.4671    -2.6151  O.2     1  <O>11      -0.2430
  23 H1       -1.8920     3.1462    -1.1686  H       1  <O>11       0.1426
  24 H2       -0.5228     3.6865    -0.1916  H       1  <O>11       0.1426
  25 H3        2.5502     2.1122     0.1395  H       1  <O>11       0.1522
  26 H4        4.7525     3.0001     2.0034  H       1  <O>11       0.2954
  27 H5        0.2782     0.9177     2.7410  H       1  <O>11       0.0636
  28 H6        0.1345     1.7565     5.0139  H       1  <O>11       0.0618
  29 H7        1.4367     3.6980     5.6842  H       1  <O>11       0.0618
  30 H8        2.8911     4.7877     4.0695  H       1  <O>11       0.0626
  31 H9        2.6873    -1.3418     1.1287  H       1  <O>11       0.0625
  32 H10       1.8277    -0.2892     3.5639  H       1  <O>11       0.0618
  33 H11      -0.2956    -2.1090     3.7767  H       1  <O>11       0.0619
  34 H12      -2.0139    -0.4314     2.3203  H       1  <O>11       0.0654
@<TRIPOS>BOND
     1     1     2    1
     2     2     3   ar
     3     3     4    1
     4     4     5    1
     5     5     6   ar
     6     6     7   ar
     7     7     8   ar
     8     8     9   ar
     9     9    10   ar
    10     5    10   ar
    11    10    11    1
    12    11    12    2
    13    11    13    1
    14     3    14   ar
    15    14    15   ar
    16    15    16   ar
    17    16    17   ar
    18    17    18   ar
    19    18    19   ar
    20    14    19   ar
    21    19    20   ar
    22    20    21   ar
    23     2    21   ar
    24    21    22    2
    25     1    23    1
    26     1    24    1
    27     4    25    1
    28    13    26    1
    29     6    27    1
    30     7    28    1
    31     8    29    1
    32     9    30    1
    33    15    31    1
    34    16    32    1
    35    17    33    1
    36    18    34    1
@<TRIPOS>MOLECULE
mol33_2_20
 34 36 0 0 0
SMALL
USER_CHARGES
****
VDW energy = 81.84
@<TRIPOS>ATOM
   1 N1       -1.0416     2.9353    -0.6465  N.pl3   1  <O>11      -0.3510
   2 C1       -0.5730     1.5759    -0.5515  C.ar    1  <O>11       0.1323
   3 C2        0.6800     1.0694     0.1874  C.ar    1  <O>11       0.0701
   4 N2        1.7430     1.8830     0.7200  N.pl3   1  <O>11      -0.3117
   5 C3        1.6666     2.3758     2.0829  C.ar    1  <O>11       0.0455
   6 C4        0.8323     1.7422     3.0206  C.ar    1  <O>11      -0.0397
   7 C5        0.7503     2.2249     4.3310  C.ar    1  <O>11      -0.0600
   8 C6        1.4993     3.3395     4.7185  C.ar    1  <O>11      -0.0609
   9 C7        2.3353     3.9658     3.7858  C.ar    1  <O>11      -0.0460
  10 C8        2.4249     3.4906     2.4775  C.ar    1  <O>11       0.0799
  11 C9        3.2945     4.1346     1.5166  C.2     1  <O>11       0.3386
  12 O1        3.0149     5.2447     1.0879  O.2     1  <O>11      -0.2451
  13 O2        4.4174     3.5068     1.0908  O.3     1  <O>11      -0.4771
  14 C10       0.7349    -0.4680     0.3350  C.ar    1  <O>11       0.0405
  15 C11       1.7678    -0.9460     1.3794  C.ar    1  <O>11      -0.0492
  16 C12       1.2888    -0.7731     2.8287  C.ar    1  <O>11      -0.0609
  17 C13      -0.0890    -1.4086     3.0474  C.ar    1  <O>11      -0.0582
  18 C14      -1.1225    -0.8741     2.0475  C.ar    1  <O>11      -0.0186
  19 C15      -0.6733    -1.0760     0.5906  C.ar    1  <O>11       0.1409
  20 O3       -1.7385    -0.5809    -0.2821  O.2     1  <O>11      -0.4208
  21 C16      -1.3512     0.4485    -1.2339  C.ar    1  <O>11       0.3601
  22 O4       -1.6242     0.4671    -2.6151  O.2     1  <O>11      -0.2430
  23 H1       -1.8920     3.1462    -1.1686  H       1  <O>11       0.1426
  24 H2       -0.5228     3.6865    -0.1916  H       1  <O>11       0.1426
  25 H3        2.5502     2.1122     0.1395  H       1  <O>11       0.1522
  26 H4        4.4880     2.6428     1.5245  H       1  <O>11       0.2954
  27 H5        0.2782     0.9177     2.7410  H       1  <O>11       0.0636
  28 H6        0.1345     1.7565     5.0139  H       1  <O>11       0.0618
  29 H7        1.4367     3.6980     5.6842  H       1  <O>11       0.0618
  30 H8        2.8911     4.7877     4.0695  H       1  <O>11       0.0626
  31 H9        2.6873    -1.3418     1.1287  H       1  <O>11       0.0625
  32 H10       1.8277    -0.2892     3.5639  H       1  <O>11       0.0618
  33 H11      -0.2956    -2.1090     3.7767  H       1  <O>11       0.0619
  34 H12      -2.0139    -0.4314     2.3203  H       1  <O>11       0.0654
@<TRIPOS>BOND
     1     1     2    1
     2     2     3   ar
     3     3     4    1
     4     4     5    1
     5     5     6   ar
     6     6     7   ar
     7     7     8   ar
     8     8     9   ar
     9     9    10   ar
    10     5    10   ar
    11    10    11    1
    12    11    12    2
    13    11    13    1
    14     3    14   ar
    15    14    15   ar
    16    15    16   ar
    17    16    17   ar
    18    17    18   ar
    19    18    19   ar
    20    14    19   ar
    21    19    20   ar
    22    20    21   ar
    23     2    21   ar
    24    21    22    2
    25     1    23    1
    26     1    24    1
    27     4    25    1
    28    13    26    1
    29     6    27    1
    30     7    28    1
    31     8    29    1
    32     9    30    1
    33    15    31    1
    34    16    32    1
    35    17    33    1
    36    18    34    1
@<TRIPOS>MOLECULE
mol33_2_21
 34 36 0 0 0
SMALL
USER_CHARGES
****
VDW energy = 82.21
@<TRIPOS>ATOM
   1 N1       -1.0416     2.9353    -0.6465  N.pl3   1  <O>11      -0.3510
   2 C1       -0.5730     1.5759    -0.5515  C.ar    1  <O>11       0.1323
   3 C2        0.6800     1.0694     0.1874  C.ar    1  <O>11       0.0701
   4 N2        1.7430     1.8830     0.7200  N.pl3   1  <O>11      -0.3117
   5 C3        1.6666     2.3758     2.0829  C.ar    1  <O>11       0.0455
   6 C4        0.8323     1.7422     3.0206  C.ar    1  <O>11      -0.0397
   7 C5        0.7503     2.2249     4.3310  C.ar    1  <O>11      -0.0600
   8 C6        1.4993     3.3395     4.7185  C.ar    1  <O>11      -0.0609
   9 C7        2.3353     3.9658     3.7858  C.ar    1  <O>11      -0.0460
  10 C8        2.4249     3.4906     2.4775  C.ar    1  <O>11       0.0799
  11 C9        3.2945     4.1346     1.5166  C.2     1  <O>11       0.3386
  12 O1        4.5078     4.0401     1.6315  O.2     1  <O>11      -0.2451
  13 O2        2.7641     4.8439     0.4909  O.3     1  <O>11      -0.4771
  14 C10       0.7349    -0.4680     0.3350  C.ar    1  <O>11       0.0405
  15 C11       1.7678    -0.9460     1.3794  C.ar    1  <O>11      -0.0492
  16 C12       1.2888    -0.7731     2.8287  C.ar    1  <O>11      -0.0609
  17 C13      -0.0890    -1.4086     3.0474  C.ar    1  <O>11      -0.0582
  18 C14      -1.1225    -0.8741     2.0475  C.ar    1  <O>11      -0.0186
  19 C15      -0.6733    -1.0760     0.5906  C.ar    1  <O>11       0.1409
  20 O3       -1.7385    -0.5809    -0.2821  O.2     1  <O>11      -0.4208
  21 C16      -1.3512     0.4485    -1.2339  C.ar    1  <O>11       0.3601
  22 O4       -1.6242     0.4671    -2.6151  O.2     1  <O>11      -0.2430
  23 H1       -1.8920     3.1462    -1.1686  H       1  <O>11       0.1426
  24 H2       -0.5228     3.6865    -0.1916  H       1  <O>11       0.1426
  25 H3        2.5502     2.1122     0.1395  H       1  <O>11       0.1522
  26 H4        1.7969     4.8192     0.5479  H       1  <O>11       0.2954
  27 H5        0.2782     0.9177     2.7410  H       1  <O>11       0.0636
  28 H6        0.1345     1.7565     5.0139  H       1  <O>11       0.0618
  29 H7        1.4367     3.6980     5.6842  H       1  <O>11       0.0618
  30 H8        2.8911     4.7877     4.0695  H       1  <O>11       0.0626
  31 H9        2.6873    -1.3418     1.1287  H       1  <O>11       0.0625
  32 H10       1.8277    -0.2892     3.5639  H       1  <O>11       0.0618
  33 H11      -0.2956    -2.1090     3.7767  H       1  <O>11       0.0619
  34 H12      -2.0139    -0.4314     2.3203  H       1  <O>11       0.0654
@<TRIPOS>BOND
     1     1     2    1
     2     2     3   ar
     3     3     4    1
     4     4     5    1
     5     5     6   ar
     6     6     7   ar
     7     7     8   ar
     8     8     9   ar
     9     9    10   ar
    10     5    10   ar
    11    10    11    1
    12    11    12    2
    13    11    13    1
    14     3    14   ar
    15    14    15   ar
    16    15    16   ar
    17    16    17   ar
    18    17    18   ar
    19    18    19   ar
    20    14    19   ar
    21    19    20   ar
    22    20    21   ar
    23     2    21   ar
    24    21    22    2
    25     1    23    1
    26     1    24    1
    27     4    25    1
    28    13    26    1
    29     6    27    1
    30     7    28    1
    31     8    29    1
    32     9    30    1
    33    15    31    1
    34    16    32    1
    35    17    33    1
    36    18    34    1
@<TRIPOS>MOLECULE
mol33_2_22
 34 36 0 0 0
SMALL
USER_CHARGES
****
VDW energy = 83.17
@<TRIPOS>ATOM
   1 N1       -1.0416     2.9353    -0.6465  N.pl3   1  <O>11      -0.3510
   2 C1       -0.5730     1.5759    -0.5515  C.ar    1  <O>11       0.1323
   3 C2        0.6800     1.0694     0.1874  C.ar    1  <O>11       0.0701
   4 N2        1.7430     1.8830     0.7200  N.pl3   1  <O>11      -0.3117
   5 C3        3.0890     1.3484     0.8133  C.ar    1  <O>11       0.0455
   6 C4        3.4749     0.2553     0.0178  C.ar    1  <O>11      -0.0397
   7 C5        4.7689    -0.2668     0.1168  C.ar    1  <O>11      -0.0600
   8 C6        5.6888     0.2962     1.0056  C.ar    1  <O>11      -0.0609
   9 C7        5.3058     1.3895     1.7926  C.ar    1  <O>11      -0.0460
  10 C8        4.0183     1.9179     1.6996  C.ar    1  <O>11       0.0799
  11 C9        3.6262     3.0520     2.5085  C.2     1  <O>11       0.3386
  12 O1        3.1337     2.8732     3.6129  O.2     1  <O>11      -0.2451
  13 O2        3.8031     4.3117     2.0412  O.3     1  <O>11      -0.4771
  14 C10       0.7349    -0.4680     0.3350  C.ar    1  <O>11       0.0405
  15 C11       1.7678    -0.9460     1.3794  C.ar    1  <O>11      -0.0492
  16 C12       1.2888    -0.7731     2.8287  C.ar    1  <O>11      -0.0609
  17 C13      -0.0890    -1.4086     3.0474  C.ar    1  <O>11      -0.0582
  18 C14      -1.1225    -0.8741     2.0475  C.ar    1  <O>11      -0.0186
  19 C15      -0.6733    -1.0760     0.5906  C.ar    1  <O>11       0.1409
  20 O3       -1.7385    -0.5809    -0.2821  O.2     1  <O>11      -0.4208
  21 C16      -1.3512     0.4485    -1.2339  C.ar    1  <O>11       0.3601
  22 O4       -1.6242     0.4671    -2.6151  O.2     1  <O>11      -0.2430
  23 H1       -1.8920     3.1462    -1.1686  H       1  <O>11       0.1426
  24 H2       -0.5228     3.6865    -0.1916  H       1  <O>11       0.1426
  25 H3        1.5500     2.8355     1.0309  H       1  <O>11       0.1522
  26 H4        4.2003     4.2751     1.1579  H       1  <O>11       0.2954
  27 H5        2.8008    -0.1636    -0.6418  H       1  <O>11       0.0636
  28 H6        5.0452    -1.0706    -0.4686  H       1  <O>11       0.0618
  29 H7        6.6426    -0.0906     1.0814  H       1  <O>11       0.0618
  30 H8        5.9835     1.8086     2.4485  H       1  <O>11       0.0626
  31 H9        2.6873    -1.3418     1.1287  H       1  <O>11       0.0625
  32 H10       1.8277    -0.2892     3.5639  H       1  <O>11       0.0618
  33 H11      -0.2956    -2.1090     3.7767  H       1  <O>11       0.0619
  34 H12      -2.0139    -0.4314     2.3203  H       1  <O>11       0.0654
@<TRIPOS>BOND
     1     1     2    1
     2     2     3   ar
     3     3     4    1
     4     4     5    1
     5     5     6   ar
     6     6     7   ar
     7     7     8   ar
     8     8     9   ar
     9     9    10   ar
    10     5    10   ar
    11    10    11    1
    12    11    12    2
    13    11    13    1
    14     3    14   ar
    15    14    15   ar
    16    15    16   ar
    17    16    17   ar
    18    17    18   ar
    19    18    19   ar
    20    14    19   ar
    21    19    20   ar
    22    20    21   ar
    23     2    21   ar
    24    21    22    2
    25     1    23    1
    26     1    24    1
    27     4    25    1
    28    13    26    1
    29     6    27    1
    30     7    28    1
    31     8    29    1
    32     9    30    1
    33    15    31    1
    34    16    32    1
    35    17    33    1
    36    18    34    1
@<TRIPOS>MOLECULE
mol33_2_23
 34 36 0 0 0
SMALL
USER_CHARGES
****
VDW energy = 83.57
@<TRIPOS>ATOM
   1 N1       -1.0416     2.9353    -0.6465  N.pl3   1  <O>11      -0.3510
   2 C1       -0.5730     1.5759    -0.5515  C.ar    1  <O>11       0.1323
   3 C2        0.6800     1.0694     0.1874  C.ar    1  <O>11       0.0701
   4 N2        1.7430     1.8830     0.7200  N.pl3   1  <O>11      -0.3117
   5 C3        3.0890     1.3484     0.8133  C.ar    1  <O>11       0.0455
   6 C4        3.4749     0.2553     0.0178  C.ar    1  <O>11      -0.0397
   7 C5        4.7689    -0.2668     0.1168  C.ar    1  <O>11      -0.0600
   8 C6        5.6888     0.2962     1.0056  C.ar    1  <O>11      -0.0609
   9 C7        5.3058     1.3895     1.7926  C.ar    1  <O>11      -0.0460
  10 C8        4.0183     1.9179     1.6996  C.ar    1  <O>11       0.0799
  11 C9        3.6262     3.0520     2.5085  C.2     1  <O>11       0.3386
  12 O1        4.0940     4.1575     2.2780  O.2     1  <O>11      -0.2451
  13 O2        2.7421     2.8882     3.5224  O.3     1  <O>11      -0.4771
  14 C10       0.7349    -0.4680     0.3350  C.ar    1  <O>11       0.0405
  15 C11       1.7678    -0.9460     1.3794  C.ar    1  <O>11      -0.0492
  16 C12       1.2888    -0.7731     2.8287  C.ar    1  <O>11      -0.0609
  17 C13      -0.0890    -1.4086     3.0474  C.ar    1  <O>11      -0.0582
  18 C14      -1.1225    -0.8741     2.0475  C.ar    1  <O>11      -0.0186
  19 C15      -0.6733    -1.0760     0.5906  C.ar    1  <O>11       0.1409
  20 O3       -1.7385    -0.5809    -0.2821  O.2     1  <O>11      -0.4208
  21 C16      -1.3512     0.4485    -1.2339  C.ar    1  <O>11       0.3601
  22 O4       -1.6242     0.4671    -2.6151  O.2     1  <O>11      -0.2430
  23 H1       -1.8920     3.1462    -1.1686  H       1  <O>11       0.1426
  24 H2       -0.5228     3.6865    -0.1916  H       1  <O>11       0.1426
  25 H3        1.5500     2.8355     1.0309  H       1  <O>11       0.1522
  26 H4        2.4732     1.9582     3.5687  H       1  <O>11       0.2954
  27 H5        2.8008    -0.1636    -0.6418  H       1  <O>11       0.0636
  28 H6        5.0452    -1.0706    -0.4686  H       1  <O>11       0.0618
  29 H7        6.6426    -0.0906     1.0814  H       1  <O>11       0.0618
  30 H8        5.9835     1.8086     2.4485  H       1  <O>11       0.0626
  31 H9        2.6873    -1.3418     1.1287  H       1  <O>11       0.0625
  32 H10       1.8277    -0.2892     3.5639  H       1  <O>11       0.0618
  33 H11      -0.2956    -2.1090     3.7767  H       1  <O>11       0.0619
  34 H12      -2.0139    -0.4314     2.3203  H       1  <O>11       0.0654
@<TRIPOS>BOND
     1     1     2    1
     2     2     3   ar
     3     3     4    1
     4     4     5    1
     5     5     6   ar
     6     6     7   ar
     7     7     8   ar
     8     8     9   ar
     9     9    10   ar
    10     5    10   ar
    11    10    11    1
    12    11    12    2
    13    11    13    1
    14     3    14   ar
    15    14    15   ar
    16    15    16   ar
    17    16    17   ar
    18    17    18   ar
    19    18    19   ar
    20    14    19   ar
    21    19    20   ar
    22    20    21   ar
    23     2    21   ar
    24    21    22    2
    25     1    23    1
    26     1    24    1
    27     4    25    1
    28    13    26    1
    29     6    27    1
    30     7    28    1
    31     8    29    1
    32     9    30    1
    33    15    31    1
    34    16    32    1
    35    17    33    1
    36    18    34    1
@<TRIPOS>MOLECULE
mol33_2_24
 34 36 0 0 0
SMALL
USER_CHARGES
****
VDW energy = 84.64
@<TRIPOS>ATOM
   1 N1       -1.0416     2.9353    -0.6465  N.pl3   1  <O>11      -0.3510
   2 C1       -0.5730     1.5759    -0.5515  C.ar    1  <O>11       0.1323
   3 C2        0.6800     1.0694     0.1874  C.ar    1  <O>11       0.0701
   4 N2        1.7430     1.8830     0.7200  N.pl3   1  <O>11      -0.3117
   5 C3        3.0890     1.3484     0.8133  C.ar    1  <O>11       0.0455
   6 C4        3.4749     0.2553     0.0178  C.ar    1  <O>11      -0.0397
   7 C5        4.7689    -0.2668     0.1168  C.ar    1  <O>11      -0.0600
   8 C6        5.6888     0.2962     1.0056  C.ar    1  <O>11      -0.0609
   9 C7        5.3058     1.3895     1.7926  C.ar    1  <O>11      -0.0460
  10 C8        4.0183     1.9179     1.6996  C.ar    1  <O>11       0.0799
  11 C9        3.6262     3.0520     2.5085  C.2     1  <O>11       0.3386
  12 O1        3.4782     2.9198     3.7147  O.2     1  <O>11      -0.2451
  13 O2        3.4212     4.2597     1.9290  O.3     1  <O>11      -0.4771
  14 C10       0.7349    -0.4680     0.3350  C.ar    1  <O>11       0.0405
  15 C11       1.7678    -0.9460     1.3794  C.ar    1  <O>11      -0.0492
  16 C12       1.2888    -0.7731     2.8287  C.ar    1  <O>11      -0.0609
  17 C13      -0.0890    -1.4086     3.0474  C.ar    1  <O>11      -0.0582
  18 C14      -1.1225    -0.8741     2.0475  C.ar    1  <O>11      -0.0186
  19 C15      -0.6733    -1.0760     0.5906  C.ar    1  <O>11       0.1409
  20 O3       -1.7385    -0.5809    -0.2821  O.2     1  <O>11      -0.4208
  21 C16      -1.3512     0.4485    -1.2339  C.ar    1  <O>11       0.3601
  22 O4       -1.6242     0.4671    -2.6151  O.2     1  <O>11      -0.2430
  23 H1       -1.8920     3.1462    -1.1686  H       1  <O>11       0.1426
  24 H2       -0.5228     3.6865    -0.1916  H       1  <O>11       0.1426
  25 H3        1.5500     2.8355     1.0309  H       1  <O>11       0.1522
  26 H4        3.5787     4.1906     0.9751  H       1  <O>11       0.2954
  27 H5        2.8008    -0.1636    -0.6418  H       1  <O>11       0.0636
  28 H6        5.0452    -1.0706    -0.4686  H       1  <O>11       0.0618
  29 H7        6.6426    -0.0906     1.0814  H       1  <O>11       0.0618
  30 H8        5.9835     1.8086     2.4485  H       1  <O>11       0.0626
  31 H9        2.6873    -1.3418     1.1287  H       1  <O>11       0.0625
  32 H10       1.8277    -0.2892     3.5639  H       1  <O>11       0.0618
  33 H11      -0.2956    -2.1090     3.7767  H       1  <O>11       0.0619
  34 H12      -2.0139    -0.4314     2.3203  H       1  <O>11       0.0654
@<TRIPOS>BOND
     1     1     2    1
     2     2     3   ar
     3     3     4    1
     4     4     5    1
     5     5     6   ar
     6     6     7   ar
     7     7     8   ar
     8     8     9   ar
     9     9    10   ar
    10     5    10   ar
    11    10    11    1
    12    11    12    2
    13    11    13    1
    14     3    14   ar
    15    14    15   ar
    16    15    16   ar
    17    16    17   ar
    18    17    18   ar
    19    18    19   ar
    20    14    19   ar
    21    19    20   ar
    22    20    21   ar
    23     2    21   ar
    24    21    22    2
    25     1    23    1
    26     1    24    1
    27     4    25    1
    28    13    26    1
    29     6    27    1
    30     7    28    1
    31     8    29    1
    32     9    30    1
    33    15    31    1
    34    16    32    1
    35    17    33    1
    36    18    34    1
@<TRIPOS>MOLECULE
mol33_2_25
 34 36 0 0 0
SMALL
USER_CHARGES
****
VDW energy = 90.00
@<TRIPOS>ATOM
   1 N1       -1.0416     2.9353    -0.6465  N.pl3   1  <O>11      -0.3510
   2 C1       -0.5730     1.5759    -0.5515  C.ar    1  <O>11       0.1323
   3 C2        0.6800     1.0694     0.1874  C.ar    1  <O>11       0.0701
   4 N2        1.7430     1.8830     0.7200  N.pl3   1  <O>11      -0.3117
   5 C3        2.8904     2.2099    -0.1063  C.ar    1  <O>11       0.0455
   6 C4        2.8837     3.3680    -0.9034  C.ar    1  <O>11      -0.0397
   7 C5        3.9854     3.6763    -1.7085  C.ar    1  <O>11      -0.0600
   8 C6        5.1023     2.8363    -1.7244  C.ar    1  <O>11      -0.0609
   9 C7        5.1111     1.6866    -0.9247  C.ar    1  <O>11      -0.0460
  10 C8        4.0180     1.3720    -0.1175  C.ar    1  <O>11       0.0799
  11 C9        4.0313     0.1873     0.7134  C.2     1  <O>11       0.3386
  12 O1        3.9628    -0.9198     0.1997  O.2     1  <O>11      -0.2451
  13 O2        4.1177     0.3050     2.0607  O.3     1  <O>11      -0.4771
  14 C10       0.7349    -0.4680     0.3350  C.ar    1  <O>11       0.0405
  15 C11       1.7678    -0.9460     1.3794  C.ar    1  <O>11      -0.0492
  16 C12       1.2888    -0.7731     2.8287  C.ar    1  <O>11      -0.0609
  17 C13      -0.0890    -1.4086     3.0474  C.ar    1  <O>11      -0.0582
  18 C14      -1.1225    -0.8741     2.0475  C.ar    1  <O>11      -0.0186
  19 C15      -0.6733    -1.0760     0.5906  C.ar    1  <O>11       0.1409
  20 O3       -1.7385    -0.5809    -0.2821  O.2     1  <O>11      -0.4208
  21 C16      -1.3512     0.4485    -1.2339  C.ar    1  <O>11       0.3601
  22 O4       -1.6242     0.4671    -2.6151  O.2     1  <O>11      -0.2430
  23 H1       -1.8920     3.1462    -1.1686  H       1  <O>11       0.1426
  24 H2       -0.5228     3.6865    -0.1916  H       1  <O>11       0.1426
  25 H3        1.6890     2.2303     1.6779  H       1  <O>11       0.1522
  26 H4        4.1623     1.2431     2.3002  H       1  <O>11       0.2954
  27 H5        2.0627     3.9931    -0.8946  H       1  <O>11       0.0636
  28 H6        3.9732     4.5268    -2.2928  H       1  <O>11       0.0618
  29 H7        5.9140     3.0615    -2.3206  H       1  <O>11       0.0618
  30 H8        5.9352     1.0655    -0.9328  H       1  <O>11       0.0626
  31 H9        2.6873    -1.3418     1.1287  H       1  <O>11       0.0625
  32 H10       1.8277    -0.2892     3.5639  H       1  <O>11       0.0618
  33 H11      -0.2956    -2.1090     3.7767  H       1  <O>11       0.0619
  34 H12      -2.0139    -0.4314     2.3203  H       1  <O>11       0.0654
@<TRIPOS>BOND
     1     1     2    1
     2     2     3   ar
     3     3     4    1
     4     4     5    1
     5     5     6   ar
     6     6     7   ar
     7     7     8   ar
     8     8     9   ar
     9     9    10   ar
    10     5    10   ar
    11    10    11    1
    12    11    12    2
    13    11    13    1
    14     3    14   ar
    15    14    15   ar
    16    15    16   ar
    17    16    17   ar
    18    17    18   ar
    19    18    19   ar
    20    14    19   ar
    21    19    20   ar
    22    20    21   ar
    23     2    21   ar
    24    21    22    2
    25     1    23    1
    26     1    24    1
    27     4    25    1
    28    13    26    1
    29     6    27    1
    30     7    28    1
    31     8    29    1
    32     9    30    1
    33    15    31    1
    34    16    32    1
    35    17    33    1
    36    18    34    1
@<TRIPOS>MOLECULE
mol33_2_26
 34 36 0 0 0
SMALL
USER_CHARGES
****
VDW energy = 91.99
@<TRIPOS>ATOM
   1 N1       -1.0416     2.9353    -0.6465  N.pl3   1  <O>11      -0.3510
   2 C1       -0.5730     1.5759    -0.5515  C.ar    1  <O>11       0.1323
   3 C2        0.6800     1.0694     0.1874  C.ar    1  <O>11       0.0701
   4 N2        1.7430     1.8830     0.7200  N.pl3   1  <O>11      -0.3117
   5 C3        1.6666     2.3758     2.0829  C.ar    1  <O>11       0.0455
   6 C4        0.8323     1.7422     3.0206  C.ar    1  <O>11      -0.0397
   7 C5        0.7503     2.2249     4.3310  C.ar    1  <O>11      -0.0600
   8 C6        1.4993     3.3395     4.7185  C.ar    1  <O>11      -0.0609
   9 C7        2.3353     3.9658     3.7858  C.ar    1  <O>11      -0.0460
  10 C8        2.4249     3.4906     2.4775  C.ar    1  <O>11       0.0799
  11 C9        3.2945     4.1346     1.5166  C.2     1  <O>11       0.3386
  12 O1        3.5946     3.5576     0.4816  O.2     1  <O>11      -0.2451
  13 O2        3.7775     5.3762     1.7649  O.3     1  <O>11      -0.4771
  14 C10       0.7349    -0.4680     0.3350  C.ar    1  <O>11       0.0405
  15 C11       1.7678    -0.9460     1.3794  C.ar    1  <O>11      -0.0492
  16 C12       1.2888    -0.7731     2.8287  C.ar    1  <O>11      -0.0609
  17 C13      -0.0890    -1.4086     3.0474  C.ar    1  <O>11      -0.0582
  18 C14      -1.1225    -0.8741     2.0475  C.ar    1  <O>11      -0.0186
  19 C15      -0.6733    -1.0760     0.5906  C.ar    1  <O>11       0.1409
  20 O3       -1.7385    -0.5809    -0.2821  O.2     1  <O>11      -0.4208
  21 C16      -1.3512     0.4485    -1.2339  C.ar    1  <O>11       0.3601
  22 O4       -1.6242     0.4671    -2.6151  O.2     1  <O>11      -0.2430
  23 H1       -1.8920     3.1462    -1.1686  H       1  <O>11       0.1426
  24 H2       -0.5228     3.6865    -0.1916  H       1  <O>11       0.1426
  25 H3        2.5502     2.1122     0.1395  H       1  <O>11       0.1522
  26 H4        3.4463     5.6858     2.6216  H       1  <O>11       0.2954
  27 H5        0.2782     0.9177     2.7410  H       1  <O>11       0.0636
  28 H6        0.1345     1.7565     5.0139  H       1  <O>11       0.0618
  29 H7        1.4367     3.6980     5.6842  H       1  <O>11       0.0618
  30 H8        2.8911     4.7877     4.0695  H       1  <O>11       0.0626
  31 H9        2.6873    -1.3418     1.1287  H       1  <O>11       0.0625
  32 H10       1.8277    -0.2892     3.5639  H       1  <O>11       0.0618
  33 H11      -0.2956    -2.1090     3.7767  H       1  <O>11       0.0619
  34 H12      -2.0139    -0.4314     2.3203  H       1  <O>11       0.0654
@<TRIPOS>BOND
     1     1     2    1
     2     2     3   ar
     3     3     4    1
     4     4     5    1
     5     5     6   ar
     6     6     7   ar
     7     7     8   ar
     8     8     9   ar
     9     9    10   ar
    10     5    10   ar
    11    10    11    1
    12    11    12    2
    13    11    13    1
    14     3    14   ar
    15    14    15   ar
    16    15    16   ar
    17    16    17   ar
    18    17    18   ar
    19    18    19   ar
    20    14    19   ar
    21    19    20   ar
    22    20    21   ar
    23     2    21   ar
    24    21    22    2
    25     1    23    1
    26     1    24    1
    27     4    25    1
    28    13    26    1
    29     6    27    1
    30     7    28    1
    31     8    29    1
    32     9    30    1
    33    15    31    1
    34    16    32    1
    35    17    33    1
    36    18    34    1
@<TRIPOS>MOLECULE
mol33_2_27
 34 36 0 0 0
SMALL
USER_CHARGES
****
VDW energy = 93.69
@<TRIPOS>ATOM
   1 N1       -1.0416     2.9353    -0.6465  N.pl3   1  <O>11      -0.3510
   2 C1       -0.5730     1.5759    -0.5515  C.ar    1  <O>11       0.1323
   3 C2        0.6800     1.0694     0.1874  C.ar    1  <O>11       0.0701
   4 N2        1.7430     1.8830     0.7200  N.pl3   1  <O>11      -0.3117
   5 C3        3.0890     1.3484     0.8133  C.ar    1  <O>11       0.0455
   6 C4        3.4749     0.2553     0.0178  C.ar    1  <O>11      -0.0397
   7 C5        4.7689    -0.2668     0.1168  C.ar    1  <O>11      -0.0600
   8 C6        5.6888     0.2962     1.0056  C.ar    1  <O>11      -0.0609
   9 C7        5.3058     1.3895     1.7926  C.ar    1  <O>11      -0.0460
  10 C8        4.0183     1.9179     1.6996  C.ar    1  <O>11       0.0799
  11 C9        3.6262     3.0520     2.5085  C.2     1  <O>11       0.3386
  12 O1        2.6224     3.6883     2.2224  O.2     1  <O>11      -0.2451
  13 O2        4.3724     3.4097     3.5817  O.3     1  <O>11      -0.4771
  14 C10       0.7349    -0.4680     0.3350  C.ar    1  <O>11       0.0405
  15 C11       1.7678    -0.9460     1.3794  C.ar    1  <O>11      -0.0492
  16 C12       1.2888    -0.7731     2.8287  C.ar    1  <O>11      -0.0609
  17 C13      -0.0890    -1.4086     3.0474  C.ar    1  <O>11      -0.0582
  18 C14      -1.1225    -0.8741     2.0475  C.ar    1  <O>11      -0.0186
  19 C15      -0.6733    -1.0760     0.5906  C.ar    1  <O>11       0.1409
  20 O3       -1.7385    -0.5809    -0.2821  O.2     1  <O>11      -0.4208
  21 C16      -1.3512     0.4485    -1.2339  C.ar    1  <O>11       0.3601
  22 O4       -1.6242     0.4671    -2.6151  O.2     1  <O>11      -0.2430
  23 H1       -1.8920     3.1462    -1.1686  H       1  <O>11       0.1426
  24 H2       -0.5228     3.6865    -0.1916  H       1  <O>11       0.1426
  25 H3        1.5500     2.8355     1.0309  H       1  <O>11       0.1522
  26 H4        5.1268     2.8069     3.6653  H       1  <O>11       0.2954
  27 H5        2.8008    -0.1636    -0.6418  H       1  <O>11       0.0636
  28 H6        5.0452    -1.0706    -0.4686  H       1  <O>11       0.0618
  29 H7        6.6426    -0.0906     1.0814  H       1  <O>11       0.0618
  30 H8        5.9835     1.8086     2.4485  H       1  <O>11       0.0626
  31 H9        2.6873    -1.3418     1.1287  H       1  <O>11       0.0625
  32 H10       1.8277    -0.2892     3.5639  H       1  <O>11       0.0618
  33 H11      -0.2956    -2.1090     3.7767  H       1  <O>11       0.0619
  34 H12      -2.0139    -0.4314     2.3203  H       1  <O>11       0.0654
@<TRIPOS>BOND
     1     1     2    1
     2     2     3   ar
     3     3     4    1
     4     4     5    1
     5     5     6   ar
     6     6     7   ar
     7     7     8   ar
     8     8     9   ar
     9     9    10   ar
    10     5    10   ar
    11    10    11    1
    12    11    12    2
    13    11    13    1
    14     3    14   ar
    15    14    15   ar
    16    15    16   ar
    17    16    17   ar
    18    17    18   ar
    19    18    19   ar
    20    14    19   ar
    21    19    20   ar
    22    20    21   ar
    23     2    21   ar
    24    21    22    2
    25     1    23    1
    26     1    24    1
    27     4    25    1
    28    13    26    1
    29     6    27    1
    30     7    28    1
    31     8    29    1
    32     9    30    1
    33    15    31    1
    34    16    32    1
    35    17    33    1
    36    18    34    1
@<TRIPOS>MOLECULE
mol33_2_28
 34 36 0 0 0
SMALL
USER_CHARGES
****
VDW energy = 95.94
@<TRIPOS>ATOM
   1 N1       -1.0416     2.9353    -0.6465  N.pl3   1  <O>11      -0.3510
   2 C1       -0.5730     1.5759    -0.5515  C.ar    1  <O>11       0.1323
   3 C2        0.6800     1.0694     0.1874  C.ar    1  <O>11       0.0701
   4 N2        1.7430     1.8830     0.7200  N.pl3   1  <O>11      -0.3117
   5 C3        3.0890     1.3484     0.8133  C.ar    1  <O>11       0.0455
   6 C4        3.5053     0.6734     1.9743  C.ar    1  <O>11      -0.0397
   7 C5        4.8065     0.1686     2.0681  C.ar    1  <O>11      -0.0600
   8 C6        5.7019     0.3294     1.0071  C.ar    1  <O>11      -0.0609
   9 C7        5.2842     0.9957    -0.1518  C.ar    1  <O>11      -0.0460
  10 C8        3.9883     1.5009    -0.2551  C.ar    1  <O>11       0.0799
  11 C9        3.5561     2.1832    -1.4558  C.2     1  <O>11       0.3386
  12 O1        3.0487     1.5492    -2.3696  O.2     1  <O>11      -0.2451
  13 O2        3.7153     3.5243    -1.5682  O.3     1  <O>11      -0.4771
  14 C10       0.7349    -0.4680     0.3350  C.ar    1  <O>11       0.0405
  15 C11       1.7678    -0.9460     1.3794  C.ar    1  <O>11      -0.0492
  16 C12       1.2888    -0.7731     2.8287  C.ar    1  <O>11      -0.0609
  17 C13      -0.0890    -1.4086     3.0474  C.ar    1  <O>11      -0.0582
  18 C14      -1.1225    -0.8741     2.0475  C.ar    1  <O>11      -0.0186
  19 C15      -0.6733    -1.0760     0.5906  C.ar    1  <O>11       0.1409
  20 O3       -1.7385    -0.5809    -0.2821  O.2     1  <O>11      -0.4208
  21 C16      -1.3512     0.4485    -1.2339  C.ar    1  <O>11       0.3601
  22 O4       -1.6242     0.4671    -2.6151  O.2     1  <O>11      -0.2430
  23 H1       -1.8920     3.1462    -1.1686  H       1  <O>11       0.1426
  24 H2       -0.5228     3.6865    -0.1916  H       1  <O>11       0.1426
  25 H3        1.5500     2.8355     1.0309  H       1  <O>11       0.1522
  26 H4        4.1304     3.8684    -0.7628  H       1  <O>11       0.2954
  27 H5        2.8482     0.5499     2.7604  H       1  <O>11       0.0636
  28 H6        5.1064    -0.3241     2.9239  H       1  <O>11       0.0618
  29 H7        6.6630    -0.0400     1.0770  H       1  <O>11       0.0618
  30 H8        5.9425     1.1142    -0.9377  H       1  <O>11       0.0626
  31 H9        2.6873    -1.3418     1.1287  H       1  <O>11       0.0625
  32 H10       1.8277    -0.2892     3.5639  H       1  <O>11       0.0618
  33 H11      -0.2956    -2.1090     3.7767  H       1  <O>11       0.0619
  34 H12      -2.0139    -0.4314     2.3203  H       1  <O>11       0.0654
@<TRIPOS>BOND
     1     1     2    1
     2     2     3   ar
     3     3     4    1
     4     4     5    1
     5     5     6   ar
     6     6     7   ar
     7     7     8   ar
     8     8     9   ar
     9     9    10   ar
    10     5    10   ar
    11    10    11    1
    12    11    12    2
    13    11    13    1
    14     3    14   ar
    15    14    15   ar
    16    15    16   ar
    17    16    17   ar
    18    17    18   ar
    19    18    19   ar
    20    14    19   ar
    21    19    20   ar
    22    20    21   ar
    23     2    21   ar
    24    21    22    2
    25     1    23    1
    26     1    24    1
    27     4    25    1
    28    13    26    1
    29     6    27    1
    30     7    28    1
    31     8    29    1
    32     9    30    1
    33    15    31    1
    34    16    32    1
    35    17    33    1
    36    18    34    1
@<TRIPOS>MOLECULE
mol33_2_29
 34 36 0 0 0
SMALL
USER_CHARGES
****
VDW energy = 96.21
@<TRIPOS>ATOM
   1 N1       -1.0416     2.9353    -0.6465  N.pl3   1  <O>11      -0.3510
   2 C1       -0.5730     1.5759    -0.5515  C.ar    1  <O>11       0.1323
   3 C2        0.6800     1.0694     0.1874  C.ar    1  <O>11       0.0701
   4 N2        1.7430     1.8830     0.7200  N.pl3   1  <O>11      -0.3117
   5 C3        2.5958     2.6410    -0.1768  C.ar    1  <O>11       0.0455
   6 C4        2.5744     4.0466    -0.1572  C.ar    1  <O>11      -0.0397
   7 C5        3.3882     4.7765    -1.0300  C.ar    1  <O>11      -0.0600
   8 C6        4.2307     4.1136    -1.9266  C.ar    1  <O>11      -0.0609
   9 C7        4.2566     2.7134    -1.9408  C.ar    1  <O>11      -0.0460
  10 C8        3.4501     1.9772    -1.0730  C.ar    1  <O>11       0.0799
  11 C9        3.4830     0.5305    -1.0841  C.2     1  <O>11       0.3386
  12 O1        3.0127    -0.0983    -0.1473  O.2     1  <O>11      -0.2451
  13 O2        4.0366    -0.1271    -2.1317  O.3     1  <O>11      -0.4771
  14 C10       0.7349    -0.4680     0.3350  C.ar    1  <O>11       0.0405
  15 C11       1.7678    -0.9460     1.3794  C.ar    1  <O>11      -0.0492
  16 C12       1.2888    -0.7731     2.8287  C.ar    1  <O>11      -0.0609
  17 C13      -0.0890    -1.4086     3.0474  C.ar    1  <O>11      -0.0582
  18 C14      -1.1225    -0.8741     2.0475  C.ar    1  <O>11      -0.0186
  19 C15      -0.6733    -1.0760     0.5906  C.ar    1  <O>11       0.1409
  20 O3       -1.7385    -0.5809    -0.2821  O.2     1  <O>11      -0.4208
  21 C16      -1.3512     0.4485    -1.2339  C.ar    1  <O>11       0.3601
  22 O4       -1.6242     0.4671    -2.6151  O.2     1  <O>11      -0.2430
  23 H1       -1.8920     3.1462    -1.1686  H       1  <O>11       0.1426
  24 H2       -0.5228     3.6865    -0.1916  H       1  <O>11       0.1426
  25 H3        1.8960     1.9272     1.7279  H       1  <O>11       0.1522
  26 H4        4.3601     0.5155    -2.7813  H       1  <O>11       0.2954
  27 H5        1.9558     4.5419     0.5039  H       1  <O>11       0.0636
  28 H6        3.3663     5.8081    -1.0118  H       1  <O>11       0.0618
  29 H7        4.8289     4.6514    -2.5731  H       1  <O>11       0.0618
  30 H8        4.8792     2.2210    -2.6003  H       1  <O>11       0.0626
  31 H9        2.6873    -1.3418     1.1287  H       1  <O>11       0.0625
  32 H10       1.8277    -0.2892     3.5639  H       1  <O>11       0.0618
  33 H11      -0.2956    -2.1090     3.7767  H       1  <O>11       0.0619
  34 H12      -2.0139    -0.4314     2.3203  H       1  <O>11       0.0654
@<TRIPOS>BOND
     1     1     2    1
     2     2     3   ar
     3     3     4    1
     4     4     5    1
     5     5     6   ar
     6     6     7   ar
     7     7     8   ar
     8     8     9   ar
     9     9    10   ar
    10     5    10   ar
    11    10    11    1
    12    11    12    2
    13    11    13    1
    14     3    14   ar
    15    14    15   ar
    16    15    16   ar
    17    16    17   ar
    18    17    18   ar
    19    18    19   ar
    20    14    19   ar
    21    19    20   ar
    22    20    21   ar
    23     2    21   ar
    24    21    22    2
    25     1    23    1
    26     1    24    1
    27     4    25    1
    28    13    26    1
    29     6    27    1
    30     7    28    1
    31     8    29    1
    32     9    30    1
    33    15    31    1
    34    16    32    1
    35    17    33    1
    36    18    34    1
@<TRIPOS>MOLECULE
mol33_2_30
 34 36 0 0 0
SMALL
USER_CHARGES
****
VDW energy = 97.39
@<TRIPOS>ATOM
   1 N1       -1.0416     2.9353    -0.6465  N.pl3   1  <O>11      -0.3510
   2 C1       -0.5730     1.5759    -0.5515  C.ar    1  <O>11       0.1323
   3 C2        0.6800     1.0694     0.1874  C.ar    1  <O>11       0.0701
   4 N2        1.7430     1.8830     0.7200  N.pl3   1  <O>11      -0.3117
   5 C3        3.0890     1.3484     0.8133  C.ar    1  <O>11       0.0455
   6 C4        3.5053     0.6734     1.9743  C.ar    1  <O>11      -0.0397
   7 C5        4.8065     0.1686     2.0681  C.ar    1  <O>11      -0.0600
   8 C6        5.7019     0.3294     1.0071  C.ar    1  <O>11      -0.0609
   9 C7        5.2842     0.9957    -0.1518  C.ar    1  <O>11      -0.0460
  10 C8        3.9883     1.5009    -0.2551  C.ar    1  <O>11       0.0799
  11 C9        3.5561     2.1832    -1.4558  C.2     1  <O>11       0.3386
  12 O1        3.3903     1.5533    -2.4902  O.2     1  <O>11      -0.2451
  13 O2        3.3369     3.5204    -1.4342  O.3     1  <O>11      -0.4771
  14 C10       0.7349    -0.4680     0.3350  C.ar    1  <O>11       0.0405
  15 C11       1.7678    -0.9460     1.3794  C.ar    1  <O>11      -0.0492
  16 C12       1.2888    -0.7731     2.8287  C.ar    1  <O>11      -0.0609
  17 C13      -0.0890    -1.4086     3.0474  C.ar    1  <O>11      -0.0582
  18 C14      -1.1225    -0.8741     2.0475  C.ar    1  <O>11      -0.0186
  19 C15      -0.6733    -1.0760     0.5906  C.ar    1  <O>11       0.1409
  20 O3       -1.7385    -0.5809    -0.2821  O.2     1  <O>11      -0.4208
  21 C16      -1.3512     0.4485    -1.2339  C.ar    1  <O>11       0.3601
  22 O4       -1.6242     0.4671    -2.6151  O.2     1  <O>11      -0.2430
  23 H1       -1.8920     3.1462    -1.1686  H       1  <O>11       0.1426
  24 H2       -0.5228     3.6865    -0.1916  H       1  <O>11       0.1426
  25 H3        1.5500     2.8355     1.0309  H       1  <O>11       0.1522
  26 H4        3.5145     3.8620    -0.5448  H       1  <O>11       0.2954
  27 H5        2.8482     0.5499     2.7604  H       1  <O>11       0.0636
  28 H6        5.1064    -0.3241     2.9239  H       1  <O>11       0.0618
  29 H7        6.6630    -0.0400     1.0770  H       1  <O>11       0.0618
  30 H8        5.9425     1.1142    -0.9377  H       1  <O>11       0.0626
  31 H9        2.6873    -1.3418     1.1287  H       1  <O>11       0.0625
  32 H10       1.8277    -0.2892     3.5639  H       1  <O>11       0.0618
  33 H11      -0.2956    -2.1090     3.7767  H       1  <O>11       0.0619
  34 H12      -2.0139    -0.4314     2.3203  H       1  <O>11       0.0654
@<TRIPOS>BOND
     1     1     2    1
     2     2     3   ar
     3     3     4    1
     4     4     5    1
     5     5     6   ar
     6     6     7   ar
     7     7     8   ar
     8     8     9   ar
     9     9    10   ar
    10     5    10   ar
    11    10    11    1
    12    11    12    2
    13    11    13    1
    14     3    14   ar
    15    14    15   ar
    16    15    16   ar
    17    16    17   ar
    18    17    18   ar
    19    18    19   ar
    20    14    19   ar
    21    19    20   ar
    22    20    21   ar
    23     2    21   ar
    24    21    22    2
    25     1    23    1
    26     1    24    1
    27     4    25    1
    28    13    26    1
    29     6    27    1
    30     7    28    1
    31     8    29    1
    32     9    30    1
    33    15    31    1
    34    16    32    1
    35    17    33    1
    36    18    34    1
