@<TRIPOS>MOLECULE
mol37_1_1
 28 30 0 0 0
SMALL
USER_CHARGES
****
VDW energy = -58.05
@<TRIPOS>ATOM
   1 O1       -0.8664    -0.0734     0.0738  O.2     1  <O>11      -0.1499
   2 S1       -1.4140     0.8545     1.3380  S.O2    1  <O>11       0.0746
   3 O2       -0.1305     1.6300     2.0523  O.2     1  <O>11      -0.1499
   4 N1       -2.4890     1.9740     0.7740  N.pl3   1  <O>11      -0.2134
   5 C1       -3.7029     1.5430     0.1045  C.ar    1  <O>11       0.0832
   6 C2       -3.7169     1.3532    -1.2867  C.ar    1  <O>11      -0.0365
   7 C3       -4.8908     0.9493    -1.9314  C.ar    1  <O>11      -0.0598
   8 C4       -6.0574     0.7287    -1.1962  C.ar    1  <O>11      -0.0589
   9 C5       -6.0407     0.9117     0.1909  C.ar    1  <O>11      -0.0246
  10 C6       -4.8750     1.3124     0.8442  C.ar    1  <O>11       0.1456
  11 F1       -4.8584     1.4822     2.2041  F       1  <O>11      -0.2035
  12 C7       -2.2090    -0.1770     2.5220  C.ar    1  <O>11       0.1392
  13 C8       -2.2555     0.0844     3.9075  C.ar    1  <O>11      -0.0327
  14 C9       -2.8806    -0.7753     4.8516  C.ar    1  <O>11      -0.0577
  15 C10      -3.5281    -1.9723     4.4923  C.ar    1  <O>11      -0.0307
  16 C11      -3.5144    -2.2504     3.1136  C.ar    1  <O>11       0.1361
  17 N2       -4.0403    -3.2898     2.4559  N.ar    1  <O>11      -0.0489
  18 O3       -3.7481    -3.0770     1.1184  O.2     1  <O>11      -0.2415
  19 N3       -3.0307    -1.9080     0.9245  N.ar    1  <O>11      -0.0469
  20 C12      -2.8733    -1.3718     2.1442  C.ar    1  <O>11       0.1606
  21 H1       -2.3010     2.9697     0.8954  H       1  <O>11       0.1738
  22 H2       -2.8576     1.5122    -1.8358  H       1  <O>11       0.0637
  23 H3       -4.8948     0.8139    -2.9545  H       1  <O>11       0.0618
  24 H4       -6.9243     0.4332    -1.6718  H       1  <O>11       0.0618
  25 H5       -6.9009     0.7483     0.7372  H       1  <O>11       0.0647
  26 H6       -1.8106     0.9482     4.2553  H       1  <O>11       0.0638
  27 H7       -2.8585    -0.5088     5.8485  H       1  <O>11       0.0619
  28 H8       -3.9760    -2.5945     5.1832  H       1  <O>11       0.0640
@<TRIPOS>BOND
     1     1     2    2
     2     2     3    2
     3     2     4    1
     4     4     5    1
     5     5     6   ar
     6     6     7   ar
     7     7     8   ar
     8     8     9   ar
     9     9    10   ar
    10     5    10   ar
    11    10    11    1
    12     2    12    1
    13    12    13   ar
    14    13    14   ar
    15    14    15   ar
    16    15    16   ar
    17    16    17   ar
    18    17    18   ar
    19    18    19   ar
    20    19    20   ar
    21    12    20   ar
    22    16    20   ar
    23     4    21    1
    24     6    22    1
    25     7    23    1
    26     8    24    1
    27     9    25    1
    28    13    26    1
    29    14    27    1
    30    15    28    1
@<TRIPOS>MOLECULE
mol37_1_2
 28 30 0 0 0
SMALL
USER_CHARGES
****
VDW energy = -56.78
@<TRIPOS>ATOM
   1 O1       -0.8664    -0.0734     0.0738  O.2     1  <O>11      -0.1499
   2 S1       -1.4140     0.8545     1.3380  S.O2    1  <O>11       0.0746
   3 O2       -0.1305     1.6300     2.0523  O.2     1  <O>11      -0.1499
   4 N1       -2.4890     1.9740     0.7740  N.pl3   1  <O>11      -0.2134
   5 C1       -3.7029     1.5430     0.1045  C.ar    1  <O>11       0.0832
   6 C2       -3.7169     1.3532    -1.2867  C.ar    1  <O>11      -0.0365
   7 C3       -4.8908     0.9493    -1.9314  C.ar    1  <O>11      -0.0598
   8 C4       -6.0574     0.7287    -1.1962  C.ar    1  <O>11      -0.0589
   9 C5       -6.0407     0.9117     0.1909  C.ar    1  <O>11      -0.0246
  10 C6       -4.8750     1.3124     0.8442  C.ar    1  <O>11       0.1456
  11 F1       -4.8584     1.4822     2.2041  F       1  <O>11      -0.2035
  12 C7       -2.2090    -0.1770     2.5220  C.ar    1  <O>11       0.1392
  13 C8       -2.8851    -1.3759     2.2126  C.ar    1  <O>11      -0.0327
  14 C9       -3.5439    -2.1821     3.1806  C.ar    1  <O>11      -0.0577
  15 C10      -3.5759    -1.8668     4.5521  C.ar    1  <O>11      -0.0307
  16 C11      -2.8935    -0.6854     4.8939  C.ar    1  <O>11       0.1361
  17 N2       -2.7328    -0.1198     6.0955  N.ar    1  <O>11      -0.0489
  18 O3       -1.9803     1.0228     5.8772  O.2     1  <O>11      -0.2415
  19 N3       -1.6682     1.1895     4.5379  N.ar    1  <O>11      -0.0469
  20 C12      -2.2187     0.1432     3.9036  C.ar    1  <O>11       0.1606
  21 H1       -2.3010     2.9697     0.8954  H       1  <O>11       0.1738
  22 H2       -2.8576     1.5122    -1.8358  H       1  <O>11       0.0637
  23 H3       -4.8948     0.8139    -2.9545  H       1  <O>11       0.0618
  24 H4       -6.9243     0.4332    -1.6718  H       1  <O>11       0.0618
  25 H5       -6.9009     0.7483     0.7372  H       1  <O>11       0.0647
  26 H6       -2.9024    -1.6850     1.2282  H       1  <O>11       0.0638
  27 H7       -4.0216    -3.0398     2.8625  H       1  <O>11       0.0619
  28 H8       -4.0601    -2.4539     5.2492  H       1  <O>11       0.0640
@<TRIPOS>BOND
     1     1     2    2
     2     2     3    2
     3     2     4    1
     4     4     5    1
     5     5     6   ar
     6     6     7   ar
     7     7     8   ar
     8     8     9   ar
     9     9    10   ar
    10     5    10   ar
    11    10    11    1
    12     2    12    1
    13    12    13   ar
    14    13    14   ar
    15    14    15   ar
    16    15    16   ar
    17    16    17   ar
    18    17    18   ar
    19    18    19   ar
    20    19    20   ar
    21    12    20   ar
    22    16    20   ar
    23     4    21    1
    24     6    22    1
    25     7    23    1
    26     8    24    1
    27     9    25    1
    28    13    26    1
    29    14    27    1
    30    15    28    1
@<TRIPOS>MOLECULE
mol37_1_3
 28 30 0 0 0
SMALL
USER_CHARGES
****
VDW energy = -56.61
@<TRIPOS>ATOM
   1 O1       -0.8664    -0.0734     0.0738  O.2     1  <O>11      -0.1499
   2 S1       -1.4140     0.8545     1.3380  S.O2    1  <O>11       0.0746
   3 O2       -0.1305     1.6300     2.0523  O.2     1  <O>11      -0.1499
   4 N1       -2.4890     1.9740     0.7740  N.pl3   1  <O>11      -0.2134
   5 C1       -3.1122     2.9100     1.6921  C.ar    1  <O>11       0.0832
   6 C2       -2.5083     4.1489     1.9611  C.ar    1  <O>11      -0.0365
   7 C3       -3.1043     5.0444     2.8553  C.ar    1  <O>11      -0.0598
   8 C4       -4.3063     4.7150     3.4853  C.ar    1  <O>11      -0.0589
   9 C5       -4.9107     3.4830     3.2115  C.ar    1  <O>11      -0.0246
  10 C6       -4.3259     2.5833     2.3201  C.ar    1  <O>11       0.1456
  11 F1       -4.9243     1.3810     2.0464  F       1  <O>11      -0.2035
  12 C7       -2.2090    -0.1770     2.5220  C.ar    1  <O>11       0.1392
  13 C8       -1.8037    -0.3107     3.8666  C.ar    1  <O>11      -0.0327
  14 C9       -2.4436    -1.1697     4.8014  C.ar    1  <O>11      -0.0577
  15 C10      -3.5578    -1.9665     4.4774  C.ar    1  <O>11      -0.0307
  16 C11      -3.9968    -1.8401     3.1471  C.ar    1  <O>11       0.1361
  17 N2       -5.0190    -2.4466     2.5333  N.ar    1  <O>11      -0.0489
  18 O3       -5.0164    -1.9677     1.2332  O.2     1  <O>11      -0.2415
  19 N3       -3.9898    -1.0633     1.0164  N.ar    1  <O>11      -0.0469
  20 C12      -3.3420    -0.9615     2.1869  C.ar    1  <O>11       0.1606
  21 H1       -2.7164     2.0088    -0.2203  H       1  <O>11       0.1738
  22 H2       -1.6211     4.3997     1.4972  H       1  <O>11       0.0637
  23 H3       -2.6539     5.9522     3.0503  H       1  <O>11       0.0618
  24 H4       -4.7450     5.3743     4.1469  H       1  <O>11       0.0618
  25 H5       -5.7996     3.2371     3.6746  H       1  <O>11       0.0647
  26 H6       -0.9974     0.2463     4.1899  H       1  <O>11       0.0638
  27 H7       -2.0733    -1.2112     5.7638  H       1  <O>11       0.0619
  28 H8       -4.0149    -2.5918     5.1594  H       1  <O>11       0.0640
@<TRIPOS>BOND
     1     1     2    2
     2     2     3    2
     3     2     4    1
     4     4     5    1
     5     5     6   ar
     6     6     7   ar
     7     7     8   ar
     8     8     9   ar
     9     9    10   ar
    10     5    10   ar
    11    10    11    1
    12     2    12    1
    13    12    13   ar
    14    13    14   ar
    15    14    15   ar
    16    15    16   ar
    17    16    17   ar
    18    17    18   ar
    19    18    19   ar
    20    19    20   ar
    21    12    20   ar
    22    16    20   ar
    23     4    21    1
    24     6    22    1
    25     7    23    1
    26     8    24    1
    27     9    25    1
    28    13    26    1
    29    14    27    1
    30    15    28    1
@<TRIPOS>MOLECULE
mol37_1_4
 28 30 0 0 0
SMALL
USER_CHARGES
****
VDW energy = -56.25
@<TRIPOS>ATOM
   1 O1       -0.8664    -0.0734     0.0738  O.2     1  <O>11      -0.1499
   2 S1       -1.4140     0.8545     1.3380  S.O2    1  <O>11       0.0746
   3 O2       -0.1305     1.6300     2.0523  O.2     1  <O>11      -0.1499
   4 N1       -2.4890     1.9740     0.7740  N.pl3   1  <O>11      -0.2134
   5 C1       -3.1122     2.9100     1.6921  C.ar    1  <O>11       0.0832
   6 C2       -4.3253     2.5864     2.3208  C.ar    1  <O>11      -0.0365
   7 C3       -4.9302     3.4947     3.1960  C.ar    1  <O>11      -0.0598
   8 C4       -4.3309     4.7294     3.4539  C.ar    1  <O>11      -0.0589
   9 C5       -3.1186     5.0483     2.8321  C.ar    1  <O>11      -0.0246
  10 C6       -2.5058     4.1491     1.9591  C.ar    1  <O>11       0.1456
  11 F1       -1.3138     4.4597     1.3581  F       1  <O>11      -0.2035
  12 C7       -2.2090    -0.1770     2.5220  C.ar    1  <O>11       0.1392
  13 C8       -1.8037    -0.3107     3.8666  C.ar    1  <O>11      -0.0327
  14 C9       -2.4436    -1.1697     4.8014  C.ar    1  <O>11      -0.0577
  15 C10      -3.5578    -1.9665     4.4774  C.ar    1  <O>11      -0.0307
  16 C11      -3.9968    -1.8401     3.1471  C.ar    1  <O>11       0.1361
  17 N2       -5.0190    -2.4466     2.5333  N.ar    1  <O>11      -0.0489
  18 O3       -5.0164    -1.9677     1.2332  O.2     1  <O>11      -0.2415
  19 N3       -3.9898    -1.0633     1.0164  N.ar    1  <O>11      -0.0469
  20 C12      -3.3420    -0.9615     2.1869  C.ar    1  <O>11       0.1606
  21 H1       -2.7164     2.0088    -0.2203  H       1  <O>11       0.1738
  22 H2       -4.7725     1.6747     2.1365  H       1  <O>11       0.0637
  23 H3       -5.8230     3.2514     3.6529  H       1  <O>11       0.0618
  24 H4       -4.7781     5.4007     4.0975  H       1  <O>11       0.0618
  25 H5       -2.6726     5.9595     3.0215  H       1  <O>11       0.0647
  26 H6       -0.9974     0.2463     4.1899  H       1  <O>11       0.0638
  27 H7       -2.0733    -1.2112     5.7638  H       1  <O>11       0.0619
  28 H8       -4.0149    -2.5918     5.1594  H       1  <O>11       0.0640
@<TRIPOS>BOND
     1     1     2    2
     2     2     3    2
     3     2     4    1
     4     4     5    1
     5     5     6   ar
     6     6     7   ar
     7     7     8   ar
     8     8     9   ar
     9     9    10   ar
    10     5    10   ar
    11    10    11    1
    12     2    12    1
    13    12    13   ar
    14    13    14   ar
    15    14    15   ar
    16    15    16   ar
    17    16    17   ar
    18    17    18   ar
    19    18    19   ar
    20    19    20   ar
    21    12    20   ar
    22    16    20   ar
    23     4    21    1
    24     6    22    1
    25     7    23    1
    26     8    24    1
    27     9    25    1
    28    13    26    1
    29    14    27    1
    30    15    28    1
@<TRIPOS>MOLECULE
mol37_1_5
 28 30 0 0 0
SMALL
USER_CHARGES
****
VDW energy = -55.72
@<TRIPOS>ATOM
   1 O1       -0.8664    -0.0734     0.0738  O.2     1  <O>11      -0.1499
   2 S1       -1.4140     0.8545     1.3380  S.O2    1  <O>11       0.0746
   3 O2       -0.1305     1.6300     2.0523  O.2     1  <O>11      -0.1499
   4 N1       -2.4890     1.9740     0.7740  N.pl3   1  <O>11      -0.2134
   5 C1       -2.0710     2.9470    -0.2190  C.ar    1  <O>11       0.0832
   6 C2       -2.1949     2.6616    -1.5883  C.ar    1  <O>11      -0.0365
   7 C3       -1.7804     3.5958    -2.5435  C.ar    1  <O>11      -0.0598
   8 C4       -1.2430     4.8209    -2.1430  C.ar    1  <O>11      -0.0589
   9 C5       -1.1261     5.1071    -0.7783  C.ar    1  <O>11      -0.0246
  10 C6       -1.5380     4.1835     0.1826  C.ar    1  <O>11       0.1456
  11 F1       -1.4311     4.4695     1.5188  F       1  <O>11      -0.2035
  12 C7       -2.2090    -0.1770     2.5220  C.ar    1  <O>11       0.1392
  13 C8       -1.8037    -0.3107     3.8666  C.ar    1  <O>11      -0.0327
  14 C9       -2.4436    -1.1697     4.8014  C.ar    1  <O>11      -0.0577
  15 C10      -3.5578    -1.9665     4.4774  C.ar    1  <O>11      -0.0307
  16 C11      -3.9968    -1.8401     3.1471  C.ar    1  <O>11       0.1361
  17 N2       -5.0190    -2.4466     2.5333  N.ar    1  <O>11      -0.0489
  18 O3       -5.0164    -1.9677     1.2332  O.2     1  <O>11      -0.2415
  19 N3       -3.9898    -1.0633     1.0164  N.ar    1  <O>11      -0.0469
  20 C12      -3.3420    -0.9615     2.1869  C.ar    1  <O>11       0.1606
  21 H1       -3.4480     1.9830     1.1230  H       1  <O>11       0.1738
  22 H2       -2.5934     1.7591    -1.8912  H       1  <O>11       0.0637
  23 H3       -1.8722     3.3787    -3.5482  H       1  <O>11       0.0618
  24 H4       -0.9349     5.5093    -2.8474  H       1  <O>11       0.0618
  25 H5       -0.7304     6.0121    -0.4792  H       1  <O>11       0.0647
  26 H6       -0.9974     0.2463     4.1899  H       1  <O>11       0.0638
  27 H7       -2.0733    -1.2112     5.7638  H       1  <O>11       0.0619
  28 H8       -4.0149    -2.5918     5.1594  H       1  <O>11       0.0640
@<TRIPOS>BOND
     1     1     2    2
     2     2     3    2
     3     2     4    1
     4     4     5    1
     5     5     6   ar
     6     6     7   ar
     7     7     8   ar
     8     8     9   ar
     9     9    10   ar
    10     5    10   ar
    11    10    11    1
    12     2    12    1
    13    12    13   ar
    14    13    14   ar
    15    14    15   ar
    16    15    16   ar
    17    16    17   ar
    18    17    18   ar
    19    18    19   ar
    20    19    20   ar
    21    12    20   ar
    22    16    20   ar
    23     4    21    1
    24     6    22    1
    25     7    23    1
    26     8    24    1
    27     9    25    1
    28    13    26    1
    29    14    27    1
    30    15    28    1
@<TRIPOS>MOLECULE
mol37_1_6
 28 30 0 0 0
SMALL
USER_CHARGES
****
VDW energy = -55.61
@<TRIPOS>ATOM
   1 O1       -0.8664    -0.0734     0.0738  O.2     1  <O>11      -0.1499
   2 S1       -1.4140     0.8545     1.3380  S.O2    1  <O>11       0.0746
   3 O2       -0.1305     1.6300     2.0523  O.2     1  <O>11      -0.1499
   4 N1       -2.4890     1.9740     0.7740  N.pl3   1  <O>11      -0.2134
   5 C1       -2.0710     2.9470    -0.2190  C.ar    1  <O>11       0.0832
   6 C2       -1.5384     4.1836     0.1795  C.ar    1  <O>11      -0.0365
   7 C3       -1.1474     5.1246    -0.7790  C.ar    1  <O>11      -0.0598
   8 C4       -1.2805     4.8404    -2.1397  C.ar    1  <O>11      -0.0589
   9 C5       -1.8052     3.6052    -2.5358  C.ar    1  <O>11      -0.0246
  10 C6       -2.1966     2.6589    -1.5885  C.ar    1  <O>11       0.1456
  11 F1       -2.7017     1.4460    -1.9787  F       1  <O>11      -0.2035
  12 C7       -2.2090    -0.1770     2.5220  C.ar    1  <O>11       0.1392
  13 C8       -2.3490    -1.5753     2.3988  C.ar    1  <O>11      -0.0327
  14 C9       -3.0180    -2.3881     3.3542  C.ar    1  <O>11      -0.0577
  15 C10      -3.5992    -1.8751     4.5292  C.ar    1  <O>11      -0.0307
  16 C11      -3.4591    -0.4848     4.6889  C.ar    1  <O>11       0.1361
  17 N2       -3.8867     0.2987     5.6853  N.ar    1  <O>11      -0.0489
  18 O3       -3.4854     1.5829     5.3544  O.2     1  <O>11      -0.2415
  19 N3       -2.8098     1.6192     4.1457  N.ar    1  <O>11      -0.0469
  20 C12      -2.7751     0.3505     3.7106  C.ar    1  <O>11       0.1606
  21 H1       -3.4480     1.9830     1.1230  H       1  <O>11       0.1738
  22 H2       -1.4351     4.3992     1.1834  H       1  <O>11       0.0637
  23 H3       -0.7589     6.0325    -0.4792  H       1  <O>11       0.0618
  24 H4       -0.9945     5.5353    -2.8470  H       1  <O>11       0.0618
  25 H5       -1.9038     3.3917    -3.5407  H       1  <O>11       0.0647
  26 H6       -1.9430    -2.0341     1.5683  H       1  <O>11       0.0638
  27 H7       -3.0806    -3.4031     3.1779  H       1  <O>11       0.0619
  28 H8       -4.0878    -2.4700     5.2166  H       1  <O>11       0.0640
@<TRIPOS>BOND
     1     1     2    2
     2     2     3    2
     3     2     4    1
     4     4     5    1
     5     5     6   ar
     6     6     7   ar
     7     7     8   ar
     8     8     9   ar
     9     9    10   ar
    10     5    10   ar
    11    10    11    1
    12     2    12    1
    13    12    13   ar
    14    13    14   ar
    15    14    15   ar
    16    15    16   ar
    17    16    17   ar
    18    17    18   ar
    19    18    19   ar
    20    19    20   ar
    21    12    20   ar
    22    16    20   ar
    23     4    21    1
    24     6    22    1
    25     7    23    1
    26     8    24    1
    27     9    25    1
    28    13    26    1
    29    14    27    1
    30    15    28    1
@<TRIPOS>MOLECULE
mol37_1_7
 28 30 0 0 0
SMALL
USER_CHARGES
****
VDW energy = -55.06
@<TRIPOS>ATOM
   1 O1       -0.8664    -0.0734     0.0738  O.2     1  <O>11      -0.1499
   2 S1       -1.4140     0.8545     1.3380  S.O2    1  <O>11       0.0746
   3 O2       -0.1305     1.6300     2.0523  O.2     1  <O>11      -0.1499
   4 N1       -2.4890     1.9740     0.7740  N.pl3   1  <O>11      -0.2134
   5 C1       -2.0710     2.9470    -0.2190  C.ar    1  <O>11       0.0832
   6 C2       -1.5384     4.1836     0.1795  C.ar    1  <O>11      -0.0365
   7 C3       -1.1474     5.1246    -0.7790  C.ar    1  <O>11      -0.0598
   8 C4       -1.2805     4.8404    -2.1397  C.ar    1  <O>11      -0.0589
   9 C5       -1.8052     3.6052    -2.5358  C.ar    1  <O>11      -0.0246
  10 C6       -2.1966     2.6589    -1.5885  C.ar    1  <O>11       0.1456
  11 F1       -2.7017     1.4460    -1.9787  F       1  <O>11      -0.2035
  12 C7       -2.2090    -0.1770     2.5220  C.ar    1  <O>11       0.1392
  13 C8       -1.8037    -0.3107     3.8666  C.ar    1  <O>11      -0.0327
  14 C9       -2.4436    -1.1697     4.8014  C.ar    1  <O>11      -0.0577
  15 C10      -3.5578    -1.9665     4.4774  C.ar    1  <O>11      -0.0307
  16 C11      -3.9968    -1.8401     3.1471  C.ar    1  <O>11       0.1361
  17 N2       -5.0190    -2.4466     2.5333  N.ar    1  <O>11      -0.0489
  18 O3       -5.0164    -1.9677     1.2332  O.2     1  <O>11      -0.2415
  19 N3       -3.9898    -1.0633     1.0164  N.ar    1  <O>11      -0.0469
  20 C12      -3.3420    -0.9615     2.1869  C.ar    1  <O>11       0.1606
  21 H1       -3.4480     1.9830     1.1230  H       1  <O>11       0.1738
  22 H2       -1.4351     4.3992     1.1834  H       1  <O>11       0.0637
  23 H3       -0.7589     6.0325    -0.4792  H       1  <O>11       0.0618
  24 H4       -0.9945     5.5353    -2.8470  H       1  <O>11       0.0618
  25 H5       -1.9038     3.3917    -3.5407  H       1  <O>11       0.0647
  26 H6       -0.9974     0.2463     4.1899  H       1  <O>11       0.0638
  27 H7       -2.0733    -1.2112     5.7638  H       1  <O>11       0.0619
  28 H8       -4.0149    -2.5918     5.1594  H       1  <O>11       0.0640
@<TRIPOS>BOND
     1     1     2    2
     2     2     3    2
     3     2     4    1
     4     4     5    1
     5     5     6   ar
     6     6     7   ar
     7     7     8   ar
     8     8     9   ar
     9     9    10   ar
    10     5    10   ar
    11    10    11    1
    12     2    12    1
    13    12    13   ar
    14    13    14   ar
    15    14    15   ar
    16    15    16   ar
    17    16    17   ar
    18    17    18   ar
    19    18    19   ar
    20    19    20   ar
    21    12    20   ar
    22    16    20   ar
    23     4    21    1
    24     6    22    1
    25     7    23    1
    26     8    24    1
    27     9    25    1
    28    13    26    1
    29    14    27    1
    30    15    28    1
@<TRIPOS>MOLECULE
mol37_1_8
 28 30 0 0 0
SMALL
USER_CHARGES
****
VDW energy = -54.34
@<TRIPOS>ATOM
   1 O1       -0.8664    -0.0734     0.0738  O.2     1  <O>11      -0.1499
   2 S1       -1.4140     0.8545     1.3380  S.O2    1  <O>11       0.0746
   3 O2       -0.1305     1.6300     2.0523  O.2     1  <O>11      -0.1499
   4 N1       -2.4890     1.9740     0.7740  N.pl3   1  <O>11      -0.2134
   5 C1       -3.1122     2.9100     1.6921  C.ar    1  <O>11       0.0832
   6 C2       -4.3253     2.5864     2.3208  C.ar    1  <O>11      -0.0365
   7 C3       -4.9302     3.4947     3.1960  C.ar    1  <O>11      -0.0598
   8 C4       -4.3309     4.7294     3.4539  C.ar    1  <O>11      -0.0589
   9 C5       -3.1186     5.0483     2.8321  C.ar    1  <O>11      -0.0246
  10 C6       -2.5058     4.1491     1.9591  C.ar    1  <O>11       0.1456
  11 F1       -1.3138     4.4597     1.3581  F       1  <O>11      -0.2035
  12 C7       -2.2090    -0.1770     2.5220  C.ar    1  <O>11       0.1392
  13 C8       -2.2555     0.0844     3.9075  C.ar    1  <O>11      -0.0327
  14 C9       -2.8806    -0.7753     4.8516  C.ar    1  <O>11      -0.0577
  15 C10      -3.5281    -1.9723     4.4923  C.ar    1  <O>11      -0.0307
  16 C11      -3.5144    -2.2504     3.1136  C.ar    1  <O>11       0.1361
  17 N2       -4.0403    -3.2898     2.4559  N.ar    1  <O>11      -0.0489
  18 O3       -3.7481    -3.0770     1.1184  O.2     1  <O>11      -0.2415
  19 N3       -3.0307    -1.9080     0.9245  N.ar    1  <O>11      -0.0469
  20 C12      -2.8733    -1.3718     2.1442  C.ar    1  <O>11       0.1606
  21 H1       -2.7164     2.0088    -0.2203  H       1  <O>11       0.1738
  22 H2       -4.7725     1.6747     2.1365  H       1  <O>11       0.0637
  23 H3       -5.8230     3.2514     3.6529  H       1  <O>11       0.0618
  24 H4       -4.7781     5.4007     4.0975  H       1  <O>11       0.0618
  25 H5       -2.6726     5.9595     3.0215  H       1  <O>11       0.0647
  26 H6       -1.8106     0.9482     4.2553  H       1  <O>11       0.0638
  27 H7       -2.8585    -0.5088     5.8485  H       1  <O>11       0.0619
  28 H8       -3.9760    -2.5945     5.1832  H       1  <O>11       0.0640
@<TRIPOS>BOND
     1     1     2    2
     2     2     3    2
     3     2     4    1
     4     4     5    1
     5     5     6   ar
     6     6     7   ar
     7     7     8   ar
     8     8     9   ar
     9     9    10   ar
    10     5    10   ar
    11    10    11    1
    12     2    12    1
    13    12    13   ar
    14    13    14   ar
    15    14    15   ar
    16    15    16   ar
    17    16    17   ar
    18    17    18   ar
    19    18    19   ar
    20    19    20   ar
    21    12    20   ar
    22    16    20   ar
    23     4    21    1
    24     6    22    1
    25     7    23    1
    26     8    24    1
    27     9    25    1
    28    13    26    1
    29    14    27    1
    30    15    28    1
@<TRIPOS>MOLECULE
mol37_1_9
 28 30 0 0 0
SMALL
USER_CHARGES
****
VDW energy = -54.32
@<TRIPOS>ATOM
   1 O1       -0.8664    -0.0734     0.0738  O.2     1  <O>11      -0.1499
   2 S1       -1.4140     0.8545     1.3380  S.O2    1  <O>11       0.0746
   3 O2       -0.1305     1.6300     2.0523  O.2     1  <O>11      -0.1499
   4 N1       -2.4890     1.9740     0.7740  N.pl3   1  <O>11      -0.2134
   5 C1       -3.7029     1.5430     0.1045  C.ar    1  <O>11       0.0832
   6 C2       -4.8756     1.3114     0.8412  C.ar    1  <O>11      -0.0365
   7 C3       -6.0410     0.8846     0.1957  C.ar    1  <O>11      -0.0598
   8 C4       -6.0483     0.6884    -1.1869  C.ar    1  <O>11      -0.0589
   9 C5       -4.8809     0.9258    -1.9210  C.ar    1  <O>11      -0.0246
  10 C6       -3.7138     1.3534    -1.2877  C.ar    1  <O>11       0.1456
  11 F1       -2.5741     1.5943    -2.0098  F       1  <O>11      -0.2035
  12 C7       -2.2090    -0.1770     2.5220  C.ar    1  <O>11       0.1392
  13 C8       -2.8851    -1.3759     2.2126  C.ar    1  <O>11      -0.0327
  14 C9       -3.5439    -2.1821     3.1806  C.ar    1  <O>11      -0.0577
  15 C10      -3.5759    -1.8668     4.5521  C.ar    1  <O>11      -0.0307
  16 C11      -2.8935    -0.6854     4.8939  C.ar    1  <O>11       0.1361
  17 N2       -2.7328    -0.1198     6.0955  N.ar    1  <O>11      -0.0489
  18 O3       -1.9803     1.0228     5.8772  O.2     1  <O>11      -0.2415
  19 N3       -1.6682     1.1895     4.5379  N.ar    1  <O>11      -0.0469
  20 C12      -2.2187     0.1432     3.9036  C.ar    1  <O>11       0.1606
  21 H1       -2.3010     2.9697     0.8954  H       1  <O>11       0.1738
  22 H2       -4.8779     1.4567     1.8629  H       1  <O>11       0.0637
  23 H3       -6.8988     0.7140     0.7434  H       1  <O>11       0.0618
  24 H4       -6.9071     0.3711    -1.6631  H       1  <O>11       0.0618
  25 H5       -4.8834     0.7828    -2.9431  H       1  <O>11       0.0647
  26 H6       -2.9024    -1.6850     1.2282  H       1  <O>11       0.0638
  27 H7       -4.0216    -3.0398     2.8625  H       1  <O>11       0.0619
  28 H8       -4.0601    -2.4539     5.2492  H       1  <O>11       0.0640
@<TRIPOS>BOND
     1     1     2    2
     2     2     3    2
     3     2     4    1
     4     4     5    1
     5     5     6   ar
     6     6     7   ar
     7     7     8   ar
     8     8     9   ar
     9     9    10   ar
    10     5    10   ar
    11    10    11    1
    12     2    12    1
    13    12    13   ar
    14    13    14   ar
    15    14    15   ar
    16    15    16   ar
    17    16    17   ar
    18    17    18   ar
    19    18    19   ar
    20    19    20   ar
    21    12    20   ar
    22    16    20   ar
    23     4    21    1
    24     6    22    1
    25     7    23    1
    26     8    24    1
    27     9    25    1
    28    13    26    1
    29    14    27    1
    30    15    28    1
@<TRIPOS>MOLECULE
mol37_1_10
 28 30 0 0 0
SMALL
USER_CHARGES
****
VDW energy = -52.95
@<TRIPOS>ATOM
   1 O1       -0.8664    -0.0734     0.0738  O.2     1  <O>11      -0.1499
   2 S1       -1.4140     0.8545     1.3380  S.O2    1  <O>11       0.0746
   3 O2       -0.1305     1.6300     2.0523  O.2     1  <O>11      -0.1499
   4 N1       -2.4890     1.9740     0.7740  N.pl3   1  <O>11      -0.2134
   5 C1       -2.0711     2.9468    -0.2192  C.ar    1  <O>11       0.0832
   6 C2       -1.5384     4.1835     0.1790  C.ar    1  <O>11      -0.0365
   7 C3       -1.1474     5.1243    -0.7796  C.ar    1  <O>11      -0.0598
   8 C4       -1.2807     4.8399    -2.1403  C.ar    1  <O>11      -0.0589
   9 C5       -1.8055     3.6047    -2.5361  C.ar    1  <O>11      -0.0246
  10 C6       -2.1968     2.6585    -1.5886  C.ar    1  <O>11       0.1456
  11 F1       -2.7021     1.4456    -1.9786  F       1  <O>11      -0.2035
  12 C7       -2.2090    -0.1770     2.5220  C.ar    1  <O>11       0.1392
  13 C8       -2.8851    -1.3759     2.2126  C.ar    1  <O>11      -0.0327
  14 C9       -3.5439    -2.1821     3.1806  C.ar    1  <O>11      -0.0577
  15 C10      -3.5759    -1.8668     4.5521  C.ar    1  <O>11      -0.0307
  16 C11      -2.8935    -0.6854     4.8939  C.ar    1  <O>11       0.1361
  17 N2       -2.7328    -0.1198     6.0955  N.ar    1  <O>11      -0.0489
  18 O3       -1.9803     1.0228     5.8772  O.2     1  <O>11      -0.2415
  19 N3       -1.6682     1.1895     4.5379  N.ar    1  <O>11      -0.0469
  20 C12      -2.2187     0.1432     3.9036  C.ar    1  <O>11       0.1606
  21 H1       -3.4480     1.9831     1.1231  H       1  <O>11       0.1738
  22 H2       -1.4349     4.3992     1.1829  H       1  <O>11       0.0637
  23 H3       -0.7588     6.0322    -0.4800  H       1  <O>11       0.0618
  24 H4       -0.9947     5.5347    -2.8477  H       1  <O>11       0.0618
  25 H5       -1.9043     3.3910    -3.5410  H       1  <O>11       0.0647
  26 H6       -2.9024    -1.6850     1.2282  H       1  <O>11       0.0638
  27 H7       -4.0216    -3.0398     2.8625  H       1  <O>11       0.0619
  28 H8       -4.0601    -2.4539     5.2492  H       1  <O>11       0.0640
@<TRIPOS>BOND
     1     1     2    2
     2     2     3    2
     3     2     4    1
     4     4     5    1
     5     5     6   ar
     6     6     7   ar
     7     7     8   ar
     8     8     9   ar
     9     9    10   ar
    10     5    10   ar
    11    10    11    1
    12     2    12    1
    13    12    13   ar
    14    13    14   ar
    15    14    15   ar
    16    15    16   ar
    17    16    17   ar
    18    17    18   ar
    19    18    19   ar
    20    19    20   ar
    21    12    20   ar
    22    16    20   ar
    23     4    21    1
    24     6    22    1
    25     7    23    1
    26     8    24    1
    27     9    25    1
    28    13    26    1
    29    14    27    1
    30    15    28    1
@<TRIPOS>MOLECULE
mol37_1_11
 28 30 0 0 0
SMALL
USER_CHARGES
****
VDW energy = -52.54
@<TRIPOS>ATOM
   1 O1       -0.8664    -0.0734     0.0738  O.2     1  <O>11      -0.1499
   2 S1       -1.4140     0.8545     1.3380  S.O2    1  <O>11       0.0746
   3 O2       -0.1305     1.6300     2.0523  O.2     1  <O>11      -0.1499
   4 N1       -2.4890     1.9740     0.7740  N.pl3   1  <O>11      -0.2134
   5 C1       -2.0710     2.9470    -0.2190  C.ar    1  <O>11       0.0832
   6 C2       -1.5384     4.1836     0.1795  C.ar    1  <O>11      -0.0365
   7 C3       -1.1474     5.1246    -0.7790  C.ar    1  <O>11      -0.0598
   8 C4       -1.2805     4.8404    -2.1397  C.ar    1  <O>11      -0.0589
   9 C5       -1.8052     3.6052    -2.5358  C.ar    1  <O>11      -0.0246
  10 C6       -2.1966     2.6589    -1.5885  C.ar    1  <O>11       0.1456
  11 F1       -2.7017     1.4460    -1.9787  F       1  <O>11      -0.2035
  12 C7       -2.2090    -0.1770     2.5220  C.ar    1  <O>11       0.1392
  13 C8       -2.2555     0.0844     3.9075  C.ar    1  <O>11      -0.0327
  14 C9       -2.8806    -0.7753     4.8516  C.ar    1  <O>11      -0.0577
  15 C10      -3.5281    -1.9723     4.4923  C.ar    1  <O>11      -0.0307
  16 C11      -3.5144    -2.2504     3.1136  C.ar    1  <O>11       0.1361
  17 N2       -4.0403    -3.2898     2.4559  N.ar    1  <O>11      -0.0489
  18 O3       -3.7481    -3.0770     1.1184  O.2     1  <O>11      -0.2415
  19 N3       -3.0307    -1.9080     0.9245  N.ar    1  <O>11      -0.0469
  20 C12      -2.8733    -1.3718     2.1442  C.ar    1  <O>11       0.1606
  21 H1       -3.4480     1.9830     1.1230  H       1  <O>11       0.1738
  22 H2       -1.4351     4.3992     1.1834  H       1  <O>11       0.0637
  23 H3       -0.7589     6.0325    -0.4792  H       1  <O>11       0.0618
  24 H4       -0.9945     5.5353    -2.8470  H       1  <O>11       0.0618
  25 H5       -1.9038     3.3917    -3.5407  H       1  <O>11       0.0647
  26 H6       -1.8106     0.9482     4.2553  H       1  <O>11       0.0638
  27 H7       -2.8585    -0.5088     5.8485  H       1  <O>11       0.0619
  28 H8       -3.9760    -2.5945     5.1832  H       1  <O>11       0.0640
@<TRIPOS>BOND
     1     1     2    2
     2     2     3    2
     3     2     4    1
     4     4     5    1
     5     5     6   ar
     6     6     7   ar
     7     7     8   ar
     8     8     9   ar
     9     9    10   ar
    10     5    10   ar
    11    10    11    1
    12     2    12    1
    13    12    13   ar
    14    13    14   ar
    15    14    15   ar
    16    15    16   ar
    17    16    17   ar
    18    17    18   ar
    19    18    19   ar
    20    19    20   ar
    21    12    20   ar
    22    16    20   ar
    23     4    21    1
    24     6    22    1
    25     7    23    1
    26     8    24    1
    27     9    25    1
    28    13    26    1
    29    14    27    1
    30    15    28    1
@<TRIPOS>MOLECULE
mol37_1_12
 28 30 0 0 0
SMALL
USER_CHARGES
****
VDW energy = -52.18
@<TRIPOS>ATOM
   1 O1       -0.8664    -0.0734     0.0738  O.2     1  <O>11      -0.1499
   2 S1       -1.4140     0.8545     1.3380  S.O2    1  <O>11       0.0746
   3 O2       -0.1305     1.6300     2.0523  O.2     1  <O>11      -0.1499
   4 N1       -2.4890     1.9740     0.7740  N.pl3   1  <O>11      -0.2134
   5 C1       -2.0710     2.9470    -0.2190  C.ar    1  <O>11       0.0832
   6 C2       -2.0235     4.3131     0.1021  C.ar    1  <O>11      -0.0365
   7 C3       -1.6319     5.2503    -0.8598  C.ar    1  <O>11      -0.0598
   8 C4       -1.2821     4.8345    -2.1462  C.ar    1  <O>11      -0.0589
   9 C5       -1.3234     3.4722    -2.4633  C.ar    1  <O>11      -0.0246
  10 C6       -1.7106     2.5290    -1.5111  C.ar    1  <O>11       0.1456
  11 F1       -1.7415     1.1943    -1.8211  F       1  <O>11      -0.2035
  12 C7       -2.2090    -0.1770     2.5220  C.ar    1  <O>11       0.1392
  13 C8       -2.3490    -1.5753     2.3988  C.ar    1  <O>11      -0.0327
  14 C9       -3.0180    -2.3881     3.3542  C.ar    1  <O>11      -0.0577
  15 C10      -3.5992    -1.8751     4.5292  C.ar    1  <O>11      -0.0307
  16 C11      -3.4591    -0.4848     4.6889  C.ar    1  <O>11       0.1361
  17 N2       -3.8867     0.2987     5.6853  N.ar    1  <O>11      -0.0489
  18 O3       -3.4854     1.5829     5.3544  O.2     1  <O>11      -0.2415
  19 N3       -2.8098     1.6192     4.1457  N.ar    1  <O>11      -0.0469
  20 C12      -2.7751     0.3505     3.7106  C.ar    1  <O>11       0.1606
  21 H1       -3.4480     1.9830     1.1230  H       1  <O>11       0.1738
  22 H2       -2.2785     4.6271     1.0516  H       1  <O>11       0.0637
  23 H3       -1.6014     6.2530    -0.6178  H       1  <O>11       0.0618
  24 H4       -0.9955     5.5258    -2.8568  H       1  <O>11       0.0618
  25 H5       -1.0643     3.1616    -3.4127  H       1  <O>11       0.0647
  26 H6       -1.9430    -2.0341     1.5683  H       1  <O>11       0.0638
  27 H7       -3.0806    -3.4031     3.1779  H       1  <O>11       0.0619
  28 H8       -4.0878    -2.4700     5.2166  H       1  <O>11       0.0640
@<TRIPOS>BOND
     1     1     2    2
     2     2     3    2
     3     2     4    1
     4     4     5    1
     5     5     6   ar
     6     6     7   ar
     7     7     8   ar
     8     8     9   ar
     9     9    10   ar
    10     5    10   ar
    11    10    11    1
    12     2    12    1
    13    12    13   ar
    14    13    14   ar
    15    14    15   ar
    16    15    16   ar
    17    16    17   ar
    18    17    18   ar
    19    18    19   ar
    20    19    20   ar
    21    12    20   ar
    22    16    20   ar
    23     4    21    1
    24     6    22    1
    25     7    23    1
    26     8    24    1
    27     9    25    1
    28    13    26    1
    29    14    27    1
    30    15    28    1
@<TRIPOS>MOLECULE
mol37_1_13
 28 30 0 0 0
SMALL
USER_CHARGES
****
VDW energy = -52.00
@<TRIPOS>ATOM
   1 O1       -0.8664    -0.0734     0.0738  O.2     1  <O>11      -0.1499
   2 S1       -1.4140     0.8545     1.3380  S.O2    1  <O>11       0.0746
   3 O2       -0.1305     1.6300     2.0523  O.2     1  <O>11      -0.1499
   4 N1       -2.4890     1.9740     0.7740  N.pl3   1  <O>11      -0.2134
   5 C1       -3.1122     2.9100     1.6921  C.ar    1  <O>11       0.0832
   6 C2       -2.8382     4.2841     1.5993  C.ar    1  <O>11      -0.0365
   7 C3       -3.4304     5.1830     2.4926  C.ar    1  <O>11      -0.0598
   8 C4       -4.3013     4.7215     3.4819  C.ar    1  <O>11      -0.0589
   9 C5       -4.5789     3.3529     3.5694  C.ar    1  <O>11      -0.0246
  10 C6       -3.9952     2.4479     2.6825  C.ar    1  <O>11       0.1456
  11 F1       -4.2756     1.1088     2.7642  F       1  <O>11      -0.2035
  12 C7       -2.2090    -0.1770     2.5220  C.ar    1  <O>11       0.1392
  13 C8       -2.8851    -1.3759     2.2126  C.ar    1  <O>11      -0.0327
  14 C9       -3.5439    -2.1821     3.1806  C.ar    1  <O>11      -0.0577
  15 C10      -3.5759    -1.8668     4.5521  C.ar    1  <O>11      -0.0307
  16 C11      -2.8935    -0.6854     4.8939  C.ar    1  <O>11       0.1361
  17 N2       -2.7328    -0.1198     6.0955  N.ar    1  <O>11      -0.0489
  18 O3       -1.9803     1.0228     5.8772  O.2     1  <O>11      -0.2415
  19 N3       -1.6682     1.1895     4.5379  N.ar    1  <O>11      -0.0469
  20 C12      -2.2187     0.1432     3.9036  C.ar    1  <O>11       0.1606
  21 H1       -2.7164     2.0088    -0.2203  H       1  <O>11       0.1738
  22 H2       -2.1973     4.6322     0.8691  H       1  <O>11       0.0637
  23 H3       -3.2229     6.1913     2.4203  H       1  <O>11       0.0618
  24 H4       -4.7365     5.3841     4.1427  H       1  <O>11       0.0618
  25 H5       -5.2230     3.0088     4.2987  H       1  <O>11       0.0647
  26 H6       -2.9024    -1.6850     1.2282  H       1  <O>11       0.0638
  27 H7       -4.0216    -3.0398     2.8625  H       1  <O>11       0.0619
  28 H8       -4.0601    -2.4539     5.2492  H       1  <O>11       0.0640
@<TRIPOS>BOND
     1     1     2    2
     2     2     3    2
     3     2     4    1
     4     4     5    1
     5     5     6   ar
     6     6     7   ar
     7     7     8   ar
     8     8     9   ar
     9     9    10   ar
    10     5    10   ar
    11    10    11    1
    12     2    12    1
    13    12    13   ar
    14    13    14   ar
    15    14    15   ar
    16    15    16   ar
    17    16    17   ar
    18    17    18   ar
    19    18    19   ar
    20    19    20   ar
    21    12    20   ar
    22    16    20   ar
    23     4    21    1
    24     6    22    1
    25     7    23    1
    26     8    24    1
    27     9    25    1
    28    13    26    1
    29    14    27    1
    30    15    28    1
@<TRIPOS>MOLECULE
mol37_1_14
 28 30 0 0 0
SMALL
USER_CHARGES
****
VDW energy = -51.75
@<TRIPOS>ATOM
   1 O1       -0.8664    -0.0734     0.0738  O.2     1  <O>11      -0.1499
   2 S1       -1.4140     0.8545     1.3380  S.O2    1  <O>11       0.0746
   3 O2       -0.1305     1.6300     2.0523  O.2     1  <O>11      -0.1499
   4 N1       -2.4890     1.9740     0.7740  N.pl3   1  <O>11      -0.2134
   5 C1       -2.0710     2.9470    -0.2190  C.ar    1  <O>11       0.0832
   6 C2       -2.0235     4.3131     0.1021  C.ar    1  <O>11      -0.0365
   7 C3       -1.6319     5.2503    -0.8598  C.ar    1  <O>11      -0.0598
   8 C4       -1.2821     4.8345    -2.1462  C.ar    1  <O>11      -0.0589
   9 C5       -1.3234     3.4722    -2.4633  C.ar    1  <O>11      -0.0246
  10 C6       -1.7106     2.5290    -1.5111  C.ar    1  <O>11       0.1456
  11 F1       -1.7415     1.1943    -1.8211  F       1  <O>11      -0.2035
  12 C7       -2.2090    -0.1770     2.5220  C.ar    1  <O>11       0.1392
  13 C8       -1.8037    -0.3107     3.8666  C.ar    1  <O>11      -0.0327
  14 C9       -2.4436    -1.1697     4.8014  C.ar    1  <O>11      -0.0577
  15 C10      -3.5578    -1.9665     4.4774  C.ar    1  <O>11      -0.0307
  16 C11      -3.9968    -1.8401     3.1471  C.ar    1  <O>11       0.1361
  17 N2       -5.0190    -2.4466     2.5333  N.ar    1  <O>11      -0.0489
  18 O3       -5.0164    -1.9677     1.2332  O.2     1  <O>11      -0.2415
  19 N3       -3.9898    -1.0633     1.0164  N.ar    1  <O>11      -0.0469
  20 C12      -3.3420    -0.9615     2.1869  C.ar    1  <O>11       0.1606
  21 H1       -3.4480     1.9830     1.1230  H       1  <O>11       0.1738
  22 H2       -2.2785     4.6271     1.0516  H       1  <O>11       0.0637
  23 H3       -1.6014     6.2530    -0.6178  H       1  <O>11       0.0618
  24 H4       -0.9955     5.5258    -2.8568  H       1  <O>11       0.0618
  25 H5       -1.0643     3.1616    -3.4127  H       1  <O>11       0.0647
  26 H6       -0.9974     0.2463     4.1899  H       1  <O>11       0.0638
  27 H7       -2.0733    -1.2112     5.7638  H       1  <O>11       0.0619
  28 H8       -4.0149    -2.5918     5.1594  H       1  <O>11       0.0640
@<TRIPOS>BOND
     1     1     2    2
     2     2     3    2
     3     2     4    1
     4     4     5    1
     5     5     6   ar
     6     6     7   ar
     7     7     8   ar
     8     8     9   ar
     9     9    10   ar
    10     5    10   ar
    11    10    11    1
    12     2    12    1
    13    12    13   ar
    14    13    14   ar
    15    14    15   ar
    16    15    16   ar
    17    16    17   ar
    18    17    18   ar
    19    18    19   ar
    20    19    20   ar
    21    12    20   ar
    22    16    20   ar
    23     4    21    1
    24     6    22    1
    25     7    23    1
    26     8    24    1
    27     9    25    1
    28    13    26    1
    29    14    27    1
    30    15    28    1
@<TRIPOS>MOLECULE
mol37_1_15
 28 30 0 0 0
SMALL
USER_CHARGES
****
VDW energy = -51.06
@<TRIPOS>ATOM
   1 O1       -0.8664    -0.0734     0.0738  O.2     1  <O>11      -0.1499
   2 S1       -1.4140     0.8545     1.3380  S.O2    1  <O>11       0.0746
   3 O2       -0.1305     1.6300     2.0523  O.2     1  <O>11      -0.1499
   4 N1       -2.4890     1.9740     0.7740  N.pl3   1  <O>11      -0.2134
   5 C1       -3.1122     2.9100     1.6921  C.ar    1  <O>11       0.0832
   6 C2       -4.4955     2.8589     1.9274  C.ar    1  <O>11      -0.0365
   7 C3       -5.0958     3.7695     2.8034  C.ar    1  <O>11      -0.0598
   8 C4       -4.3238     4.7347     3.4533  C.ar    1  <O>11      -0.0589
   9 C5       -2.9443     4.7806     3.2233  C.ar    1  <O>11      -0.0246
  10 C6       -2.3351     3.8762     2.3532  C.ar    1  <O>11       0.1456
  11 F1       -0.9824     3.9170     2.1364  F       1  <O>11      -0.2035
  12 C7       -2.2090    -0.1770     2.5220  C.ar    1  <O>11       0.1392
  13 C8       -2.8851    -1.3759     2.2126  C.ar    1  <O>11      -0.0327
  14 C9       -3.5439    -2.1821     3.1806  C.ar    1  <O>11      -0.0577
  15 C10      -3.5759    -1.8668     4.5521  C.ar    1  <O>11      -0.0307
  16 C11      -2.8935    -0.6854     4.8939  C.ar    1  <O>11       0.1361
  17 N2       -2.7328    -0.1198     6.0955  N.ar    1  <O>11      -0.0489
  18 O3       -1.9803     1.0228     5.8772  O.2     1  <O>11      -0.2415
  19 N3       -1.6682     1.1895     4.5379  N.ar    1  <O>11      -0.0469
  20 C12      -2.2187     0.1432     3.9036  C.ar    1  <O>11       0.1606
  21 H1       -2.7164     2.0088    -0.2203  H       1  <O>11       0.1738
  22 H2       -5.0717     2.1467     1.4522  H       1  <O>11       0.0637
  23 H3       -6.1135     3.7279     2.9700  H       1  <O>11       0.0618
  24 H4       -4.7667     5.4082     4.0977  H       1  <O>11       0.0618
  25 H5       -2.3708     5.4920     3.7030  H       1  <O>11       0.0647
  26 H6       -2.9024    -1.6850     1.2282  H       1  <O>11       0.0638
  27 H7       -4.0216    -3.0398     2.8625  H       1  <O>11       0.0619
  28 H8       -4.0601    -2.4539     5.2492  H       1  <O>11       0.0640
@<TRIPOS>BOND
     1     1     2    2
     2     2     3    2
     3     2     4    1
     4     4     5    1
     5     5     6   ar
     6     6     7   ar
     7     7     8   ar
     8     8     9   ar
     9     9    10   ar
    10     5    10   ar
    11    10    11    1
    12     2    12    1
    13    12    13   ar
    14    13    14   ar
    15    14    15   ar
    16    15    16   ar
    17    16    17   ar
    18    17    18   ar
    19    18    19   ar
    20    19    20   ar
    21    12    20   ar
    22    16    20   ar
    23     4    21    1
    24     6    22    1
    25     7    23    1
    26     8    24    1
    27     9    25    1
    28    13    26    1
    29    14    27    1
    30    15    28    1
@<TRIPOS>MOLECULE
mol37_1_16
 28 30 0 0 0
SMALL
USER_CHARGES
****
VDW energy = -50.77
@<TRIPOS>ATOM
   1 O1       -0.8664    -0.0734     0.0738  O.2     1  <O>11      -0.1499
   2 S1       -1.4140     0.8545     1.3380  S.O2    1  <O>11       0.0746
   3 O2       -0.1305     1.6300     2.0523  O.2     1  <O>11      -0.1499
   4 N1       -2.4890     1.9740     0.7740  N.pl3   1  <O>11      -0.2134
   5 C1       -2.0710     2.9470    -0.2190  C.ar    1  <O>11       0.0832
   6 C2       -0.7540     2.9430    -0.7060  C.ar    1  <O>11      -0.0365
   7 C3       -0.3500     3.8890    -1.6540  C.ar    1  <O>11      -0.0598
   8 C4       -1.2540     4.8430    -2.1260  C.ar    1  <O>11      -0.0589
   9 C5       -2.5680     4.8420    -1.6450  C.ar    1  <O>11      -0.0246
  10 C6       -2.9820     3.9020    -0.7010  C.ar    1  <O>11       0.1456
  11 F1       -4.2720     3.8970    -0.2380  F       1  <O>11      -0.2035
  12 C7       -2.2090    -0.1770     2.5220  C.ar    1  <O>11       0.1392
  13 C8       -1.8037    -0.3107     3.8666  C.ar    1  <O>11      -0.0327
  14 C9       -2.4436    -1.1697     4.8014  C.ar    1  <O>11      -0.0577
  15 C10      -3.5578    -1.9665     4.4774  C.ar    1  <O>11      -0.0307
  16 C11      -3.9968    -1.8401     3.1471  C.ar    1  <O>11       0.1361
  17 N2       -5.0190    -2.4466     2.5333  N.ar    1  <O>11      -0.0489
  18 O3       -5.0164    -1.9677     1.2332  O.2     1  <O>11      -0.2415
  19 N3       -3.9898    -1.0633     1.0164  N.ar    1  <O>11      -0.0469
  20 C12      -3.3420    -0.9615     2.1869  C.ar    1  <O>11       0.1606
  21 H1       -3.4480     1.9830     1.1230  H       1  <O>11       0.1738
  22 H2       -0.0814     2.2393    -0.3632  H       1  <O>11       0.0637
  23 H3        0.6201     3.8819    -2.0060  H       1  <O>11       0.0618
  24 H4       -0.9556     5.5426    -2.8235  H       1  <O>11       0.0618
  25 H5       -3.2388     5.5450    -1.9927  H       1  <O>11       0.0647
  26 H6       -0.9974     0.2463     4.1899  H       1  <O>11       0.0638
  27 H7       -2.0733    -1.2112     5.7638  H       1  <O>11       0.0619
  28 H8       -4.0149    -2.5918     5.1594  H       1  <O>11       0.0640
@<TRIPOS>BOND
     1     1     2    2
     2     2     3    2
     3     2     4    1
     4     4     5    1
     5     5     6   ar
     6     6     7   ar
     7     7     8   ar
     8     8     9   ar
     9     9    10   ar
    10     5    10   ar
    11    10    11    1
    12     2    12    1
    13    12    13   ar
    14    13    14   ar
    15    14    15   ar
    16    15    16   ar
    17    16    17   ar
    18    17    18   ar
    19    18    19   ar
    20    19    20   ar
    21    12    20   ar
    22    16    20   ar
    23     4    21    1
    24     6    22    1
    25     7    23    1
    26     8    24    1
    27     9    25    1
    28    13    26    1
    29    14    27    1
    30    15    28    1
@<TRIPOS>MOLECULE
mol37_1_17
 28 30 0 0 0
SMALL
USER_CHARGES
****
VDW energy = -50.72
@<TRIPOS>ATOM
   1 O1       -0.8664    -0.0734     0.0738  O.2     1  <O>11      -0.1499
   2 S1       -1.4140     0.8545     1.3380  S.O2    1  <O>11       0.0746
   3 O2       -0.1305     1.6300     2.0523  O.2     1  <O>11      -0.1499
   4 N1       -2.4890     1.9740     0.7740  N.pl3   1  <O>11      -0.2134
   5 C1       -2.0710     2.9470    -0.2190  C.ar    1  <O>11       0.0832
   6 C2       -0.7540     2.9430    -0.7060  C.ar    1  <O>11      -0.0365
   7 C3       -0.3500     3.8890    -1.6540  C.ar    1  <O>11      -0.0598
   8 C4       -1.2540     4.8430    -2.1260  C.ar    1  <O>11      -0.0589
   9 C5       -2.5680     4.8420    -1.6450  C.ar    1  <O>11      -0.0246
  10 C6       -2.9820     3.9020    -0.7010  C.ar    1  <O>11       0.1456
  11 F1       -4.2720     3.8970    -0.2380  F       1  <O>11      -0.2035
  12 C7       -2.2090    -0.1770     2.5220  C.ar    1  <O>11       0.1392
  13 C8       -2.3490    -1.5753     2.3988  C.ar    1  <O>11      -0.0327
  14 C9       -3.0180    -2.3881     3.3542  C.ar    1  <O>11      -0.0577
  15 C10      -3.5992    -1.8751     4.5292  C.ar    1  <O>11      -0.0307
  16 C11      -3.4591    -0.4848     4.6889  C.ar    1  <O>11       0.1361
  17 N2       -3.8867     0.2987     5.6853  N.ar    1  <O>11      -0.0489
  18 O3       -3.4854     1.5829     5.3544  O.2     1  <O>11      -0.2415
  19 N3       -2.8098     1.6192     4.1457  N.ar    1  <O>11      -0.0469
  20 C12      -2.7751     0.3505     3.7106  C.ar    1  <O>11       0.1606
  21 H1       -3.4480     1.9830     1.1230  H       1  <O>11       0.1738
  22 H2       -0.0814     2.2393    -0.3632  H       1  <O>11       0.0637
  23 H3        0.6201     3.8819    -2.0060  H       1  <O>11       0.0618
  24 H4       -0.9556     5.5426    -2.8235  H       1  <O>11       0.0618
  25 H5       -3.2388     5.5450    -1.9927  H       1  <O>11       0.0647
  26 H6       -1.9430    -2.0341     1.5683  H       1  <O>11       0.0638
  27 H7       -3.0806    -3.4031     3.1779  H       1  <O>11       0.0619
  28 H8       -4.0878    -2.4700     5.2166  H       1  <O>11       0.0640
@<TRIPOS>BOND
     1     1     2    2
     2     2     3    2
     3     2     4    1
     4     4     5    1
     5     5     6   ar
     6     6     7   ar
     7     7     8   ar
     8     8     9   ar
     9     9    10   ar
    10     5    10   ar
    11    10    11    1
    12     2    12    1
    13    12    13   ar
    14    13    14   ar
    15    14    15   ar
    16    15    16   ar
    17    16    17   ar
    18    17    18   ar
    19    18    19   ar
    20    19    20   ar
    21    12    20   ar
    22    16    20   ar
    23     4    21    1
    24     6    22    1
    25     7    23    1
    26     8    24    1
    27     9    25    1
    28    13    26    1
    29    14    27    1
    30    15    28    1
@<TRIPOS>MOLECULE
mol37_1_18
 28 30 0 0 0
SMALL
USER_CHARGES
****
VDW energy = -50.30
@<TRIPOS>ATOM
   1 O1       -0.8664    -0.0734     0.0738  O.2     1  <O>11      -0.1499
   2 S1       -1.4140     0.8545     1.3380  S.O2    1  <O>11       0.0746
   3 O2       -0.1305     1.6300     2.0523  O.2     1  <O>11      -0.1499
   4 N1       -2.4890     1.9740     0.7740  N.pl3   1  <O>11      -0.2134
   5 C1       -3.7029     1.5430     0.1045  C.ar    1  <O>11       0.0832
   6 C2       -3.9712     0.1754    -0.0673  C.ar    1  <O>11      -0.0365
   7 C3       -5.1357    -0.2376    -0.7233  C.ar    1  <O>11      -0.0598
   8 C4       -6.0422     0.7067    -1.2098  C.ar    1  <O>11      -0.0589
   9 C5       -5.7771     2.0692    -1.0322  C.ar    1  <O>11      -0.0246
  10 C6       -4.6199     2.4920    -0.3779  C.ar    1  <O>11       0.1456
  11 F1       -4.3667     3.8268    -0.1969  F       1  <O>11      -0.2035
  12 C7       -2.2090    -0.1770     2.5220  C.ar    1  <O>11       0.1392
  13 C8       -2.3490    -1.5753     2.3988  C.ar    1  <O>11      -0.0327
  14 C9       -3.0180    -2.3881     3.3542  C.ar    1  <O>11      -0.0577
  15 C10      -3.5992    -1.8751     4.5292  C.ar    1  <O>11      -0.0307
  16 C11      -3.4591    -0.4848     4.6889  C.ar    1  <O>11       0.1361
  17 N2       -3.8867     0.2987     5.6853  N.ar    1  <O>11      -0.0489
  18 O3       -3.4854     1.5829     5.3544  O.2     1  <O>11      -0.2415
  19 N3       -2.8098     1.6192     4.1457  N.ar    1  <O>11      -0.0469
  20 C12      -2.7751     0.3505     3.7106  C.ar    1  <O>11       0.1606
  21 H1       -2.3010     2.9697     0.8954  H       1  <O>11       0.1738
  22 H2       -3.3067    -0.5278     0.2918  H       1  <O>11       0.0637
  23 H3       -5.3256    -1.2442    -0.8483  H       1  <O>11       0.0618
  24 H4       -6.9001     0.4024    -1.6960  H       1  <O>11       0.0618
  25 H5       -6.4457     2.7695    -1.3896  H       1  <O>11       0.0647
  26 H6       -1.9430    -2.0341     1.5683  H       1  <O>11       0.0638
  27 H7       -3.0806    -3.4031     3.1779  H       1  <O>11       0.0619
  28 H8       -4.0878    -2.4700     5.2166  H       1  <O>11       0.0640
@<TRIPOS>BOND
     1     1     2    2
     2     2     3    2
     3     2     4    1
     4     4     5    1
     5     5     6   ar
     6     6     7   ar
     7     7     8   ar
     8     8     9   ar
     9     9    10   ar
    10     5    10   ar
    11    10    11    1
    12     2    12    1
    13    12    13   ar
    14    13    14   ar
    15    14    15   ar
    16    15    16   ar
    17    16    17   ar
    18    17    18   ar
    19    18    19   ar
    20    19    20   ar
    21    12    20   ar
    22    16    20   ar
    23     4    21    1
    24     6    22    1
    25     7    23    1
    26     8    24    1
    27     9    25    1
    28    13    26    1
    29    14    27    1
    30    15    28    1
@<TRIPOS>MOLECULE
mol37_1_19
 28 30 0 0 0
SMALL
USER_CHARGES
****
VDW energy = -49.84
@<TRIPOS>ATOM
   1 O1       -0.8664    -0.0734     0.0738  O.2     1  <O>11      -0.1499
   2 S1       -1.4140     0.8545     1.3380  S.O2    1  <O>11       0.0746
   3 O2       -0.1305     1.6300     2.0523  O.2     1  <O>11      -0.1499
   4 N1       -2.4890     1.9740     0.7740  N.pl3   1  <O>11      -0.2134
   5 C1       -2.0710     2.9470    -0.2190  C.ar    1  <O>11       0.0832
   6 C2       -2.6223     2.9248    -1.5102  C.ar    1  <O>11      -0.0365
   7 C3       -2.2093     3.8558    -2.4692  C.ar    1  <O>11      -0.0598
   8 C4       -1.2479     4.8167    -2.1492  C.ar    1  <O>11      -0.0589
   9 C5       -0.7040     4.8421    -0.8602  C.ar    1  <O>11      -0.0246
  10 C6       -1.1099     3.9196     0.1043  C.ar    1  <O>11       0.1456
  11 F1       -0.5826     3.9521     1.3690  F       1  <O>11      -0.2035
  12 C7       -2.2090    -0.1770     2.5220  C.ar    1  <O>11       0.1392
  13 C8       -2.2555     0.0844     3.9075  C.ar    1  <O>11      -0.0327
  14 C9       -2.8806    -0.7753     4.8516  C.ar    1  <O>11      -0.0577
  15 C10      -3.5281    -1.9723     4.4923  C.ar    1  <O>11      -0.0307
  16 C11      -3.5144    -2.2504     3.1136  C.ar    1  <O>11       0.1361
  17 N2       -4.0403    -3.2898     2.4559  N.ar    1  <O>11      -0.0489
  18 O3       -3.7481    -3.0770     1.1184  O.2     1  <O>11      -0.2415
  19 N3       -3.0307    -1.9080     0.9245  N.ar    1  <O>11      -0.0469
  20 C12      -2.8733    -1.3718     2.1442  C.ar    1  <O>11       0.1606
  21 H1       -3.4480     1.9830     1.1230  H       1  <O>11       0.1738
  22 H2       -3.3350     2.2189    -1.7528  H       1  <O>11       0.0637
  23 H3       -2.6169     3.8325    -3.4170  H       1  <O>11       0.0618
  24 H4       -0.9412     5.5021    -2.8571  H       1  <O>11       0.0618
  25 H5        0.0060     5.5517    -0.6202  H       1  <O>11       0.0647
  26 H6       -1.8106     0.9482     4.2553  H       1  <O>11       0.0638
  27 H7       -2.8585    -0.5088     5.8485  H       1  <O>11       0.0619
  28 H8       -3.9760    -2.5945     5.1832  H       1  <O>11       0.0640
@<TRIPOS>BOND
     1     1     2    2
     2     2     3    2
     3     2     4    1
     4     4     5    1
     5     5     6   ar
     6     6     7   ar
     7     7     8   ar
     8     8     9   ar
     9     9    10   ar
    10     5    10   ar
    11    10    11    1
    12     2    12    1
    13    12    13   ar
    14    13    14   ar
    15    14    15   ar
    16    15    16   ar
    17    16    17   ar
    18    17    18   ar
    19    18    19   ar
    20    19    20   ar
    21    12    20   ar
    22    16    20   ar
    23     4    21    1
    24     6    22    1
    25     7    23    1
    26     8    24    1
    27     9    25    1
    28    13    26    1
    29    14    27    1
    30    15    28    1
@<TRIPOS>MOLECULE
mol37_1_20
 28 30 0 0 0
SMALL
USER_CHARGES
****
VDW energy = -49.53
@<TRIPOS>ATOM
   1 O1       -0.8664    -0.0734     0.0738  O.2     1  <O>11      -0.1499
   2 S1       -1.4140     0.8545     1.3380  S.O2    1  <O>11       0.0746
   3 O2       -0.1305     1.6300     2.0523  O.2     1  <O>11      -0.1499
   4 N1       -2.4890     1.9740     0.7740  N.pl3   1  <O>11      -0.2134
   5 C1       -2.0710     2.9470    -0.2190  C.ar    1  <O>11       0.0832
   6 C2       -2.0235     4.3131     0.1021  C.ar    1  <O>11      -0.0365
   7 C3       -1.6319     5.2503    -0.8598  C.ar    1  <O>11      -0.0598
   8 C4       -1.2821     4.8345    -2.1462  C.ar    1  <O>11      -0.0589
   9 C5       -1.3234     3.4722    -2.4633  C.ar    1  <O>11      -0.0246
  10 C6       -1.7106     2.5290    -1.5111  C.ar    1  <O>11       0.1456
  11 F1       -1.7415     1.1943    -1.8211  F       1  <O>11      -0.2035
  12 C7       -2.2090    -0.1770     2.5220  C.ar    1  <O>11       0.1392
  13 C8       -2.8851    -1.3759     2.2126  C.ar    1  <O>11      -0.0327
  14 C9       -3.5439    -2.1821     3.1806  C.ar    1  <O>11      -0.0577
  15 C10      -3.5759    -1.8668     4.5521  C.ar    1  <O>11      -0.0307
  16 C11      -2.8935    -0.6854     4.8939  C.ar    1  <O>11       0.1361
  17 N2       -2.7328    -0.1198     6.0955  N.ar    1  <O>11      -0.0489
  18 O3       -1.9803     1.0228     5.8772  O.2     1  <O>11      -0.2415
  19 N3       -1.6682     1.1895     4.5379  N.ar    1  <O>11      -0.0469
  20 C12      -2.2187     0.1432     3.9036  C.ar    1  <O>11       0.1606
  21 H1       -3.4480     1.9830     1.1230  H       1  <O>11       0.1738
  22 H2       -2.2785     4.6271     1.0516  H       1  <O>11       0.0637
  23 H3       -1.6014     6.2530    -0.6178  H       1  <O>11       0.0618
  24 H4       -0.9955     5.5258    -2.8568  H       1  <O>11       0.0618
  25 H5       -1.0643     3.1616    -3.4127  H       1  <O>11       0.0647
  26 H6       -2.9024    -1.6850     1.2282  H       1  <O>11       0.0638
  27 H7       -4.0216    -3.0398     2.8625  H       1  <O>11       0.0619
  28 H8       -4.0601    -2.4539     5.2492  H       1  <O>11       0.0640
@<TRIPOS>BOND
     1     1     2    2
     2     2     3    2
     3     2     4    1
     4     4     5    1
     5     5     6   ar
     6     6     7   ar
     7     7     8   ar
     8     8     9   ar
     9     9    10   ar
    10     5    10   ar
    11    10    11    1
    12     2    12    1
    13    12    13   ar
    14    13    14   ar
    15    14    15   ar
    16    15    16   ar
    17    16    17   ar
    18    17    18   ar
    19    18    19   ar
    20    19    20   ar
    21    12    20   ar
    22    16    20   ar
    23     4    21    1
    24     6    22    1
    25     7    23    1
    26     8    24    1
    27     9    25    1
    28    13    26    1
    29    14    27    1
    30    15    28    1
@<TRIPOS>MOLECULE
mol37_1_21
 28 30 0 0 0
SMALL
USER_CHARGES
****
VDW energy = -49.18
@<TRIPOS>ATOM
   1 O1       -0.8664    -0.0734     0.0738  O.2     1  <O>11      -0.1499
   2 S1       -1.4140     0.8545     1.3380  S.O2    1  <O>11       0.0746
   3 O2       -0.1305     1.6300     2.0523  O.2     1  <O>11      -0.1499
   4 N1       -2.4890     1.9740     0.7740  N.pl3   1  <O>11      -0.2134
   5 C1       -2.0710     2.9470    -0.2190  C.ar    1  <O>11       0.0832
   6 C2       -2.6223     2.9248    -1.5102  C.ar    1  <O>11      -0.0365
   7 C3       -2.2093     3.8558    -2.4692  C.ar    1  <O>11      -0.0598
   8 C4       -1.2479     4.8167    -2.1492  C.ar    1  <O>11      -0.0589
   9 C5       -0.7040     4.8421    -0.8602  C.ar    1  <O>11      -0.0246
  10 C6       -1.1099     3.9196     0.1043  C.ar    1  <O>11       0.1456
  11 F1       -0.5826     3.9521     1.3690  F       1  <O>11      -0.2035
  12 C7       -2.2090    -0.1770     2.5220  C.ar    1  <O>11       0.1392
  13 C8       -2.8851    -1.3759     2.2126  C.ar    1  <O>11      -0.0327
  14 C9       -3.5439    -2.1821     3.1806  C.ar    1  <O>11      -0.0577
  15 C10      -3.5759    -1.8668     4.5521  C.ar    1  <O>11      -0.0307
  16 C11      -2.8935    -0.6854     4.8939  C.ar    1  <O>11       0.1361
  17 N2       -2.7328    -0.1198     6.0955  N.ar    1  <O>11      -0.0489
  18 O3       -1.9803     1.0228     5.8772  O.2     1  <O>11      -0.2415
  19 N3       -1.6682     1.1895     4.5379  N.ar    1  <O>11      -0.0469
  20 C12      -2.2187     0.1432     3.9036  C.ar    1  <O>11       0.1606
  21 H1       -3.4480     1.9830     1.1230  H       1  <O>11       0.1738
  22 H2       -3.3350     2.2189    -1.7528  H       1  <O>11       0.0637
  23 H3       -2.6169     3.8325    -3.4170  H       1  <O>11       0.0618
  24 H4       -0.9412     5.5021    -2.8571  H       1  <O>11       0.0618
  25 H5        0.0060     5.5517    -0.6202  H       1  <O>11       0.0647
  26 H6       -2.9024    -1.6850     1.2282  H       1  <O>11       0.0638
  27 H7       -4.0216    -3.0398     2.8625  H       1  <O>11       0.0619
  28 H8       -4.0601    -2.4539     5.2492  H       1  <O>11       0.0640
@<TRIPOS>BOND
     1     1     2    2
     2     2     3    2
     3     2     4    1
     4     4     5    1
     5     5     6   ar
     6     6     7   ar
     7     7     8   ar
     8     8     9   ar
     9     9    10   ar
    10     5    10   ar
    11    10    11    1
    12     2    12    1
    13    12    13   ar
    14    13    14   ar
    15    14    15   ar
    16    15    16   ar
    17    16    17   ar
    18    17    18   ar
    19    18    19   ar
    20    19    20   ar
    21    12    20   ar
    22    16    20   ar
    23     4    21    1
    24     6    22    1
    25     7    23    1
    26     8    24    1
    27     9    25    1
    28    13    26    1
    29    14    27    1
    30    15    28    1
@<TRIPOS>MOLECULE
mol37_1_22
 28 30 0 0 0
SMALL
USER_CHARGES
****
VDW energy = -49.06
@<TRIPOS>ATOM
   1 O1       -0.8664    -0.0734     0.0738  O.2     1  <O>11      -0.1499
   2 S1       -1.4140     0.8545     1.3380  S.O2    1  <O>11       0.0746
   3 O2       -0.1305     1.6300     2.0523  O.2     1  <O>11      -0.1499
   4 N1       -2.4890     1.9740     0.7740  N.pl3   1  <O>11      -0.2134
   5 C1       -2.0710     2.9470    -0.2190  C.ar    1  <O>11       0.0832
   6 C2       -2.0235     4.3131     0.1021  C.ar    1  <O>11      -0.0365
   7 C3       -1.6319     5.2503    -0.8598  C.ar    1  <O>11      -0.0598
   8 C4       -1.2821     4.8345    -2.1462  C.ar    1  <O>11      -0.0589
   9 C5       -1.3234     3.4722    -2.4633  C.ar    1  <O>11      -0.0246
  10 C6       -1.7106     2.5290    -1.5111  C.ar    1  <O>11       0.1456
  11 F1       -1.7415     1.1943    -1.8211  F       1  <O>11      -0.2035
  12 C7       -2.2090    -0.1770     2.5220  C.ar    1  <O>11       0.1392
  13 C8       -2.2555     0.0844     3.9075  C.ar    1  <O>11      -0.0327
  14 C9       -2.8806    -0.7753     4.8516  C.ar    1  <O>11      -0.0577
  15 C10      -3.5281    -1.9723     4.4923  C.ar    1  <O>11      -0.0307
  16 C11      -3.5144    -2.2504     3.1136  C.ar    1  <O>11       0.1361
  17 N2       -4.0403    -3.2898     2.4559  N.ar    1  <O>11      -0.0489
  18 O3       -3.7481    -3.0770     1.1184  O.2     1  <O>11      -0.2415
  19 N3       -3.0307    -1.9080     0.9245  N.ar    1  <O>11      -0.0469
  20 C12      -2.8733    -1.3718     2.1442  C.ar    1  <O>11       0.1606
  21 H1       -3.4480     1.9830     1.1230  H       1  <O>11       0.1738
  22 H2       -2.2785     4.6271     1.0516  H       1  <O>11       0.0637
  23 H3       -1.6014     6.2530    -0.6178  H       1  <O>11       0.0618
  24 H4       -0.9955     5.5258    -2.8568  H       1  <O>11       0.0618
  25 H5       -1.0643     3.1616    -3.4127  H       1  <O>11       0.0647
  26 H6       -1.8106     0.9482     4.2553  H       1  <O>11       0.0638
  27 H7       -2.8585    -0.5088     5.8485  H       1  <O>11       0.0619
  28 H8       -3.9760    -2.5945     5.1832  H       1  <O>11       0.0640
@<TRIPOS>BOND
     1     1     2    2
     2     2     3    2
     3     2     4    1
     4     4     5    1
     5     5     6   ar
     6     6     7   ar
     7     7     8   ar
     8     8     9   ar
     9     9    10   ar
    10     5    10   ar
    11    10    11    1
    12     2    12    1
    13    12    13   ar
    14    13    14   ar
    15    14    15   ar
    16    15    16   ar
    17    16    17   ar
    18    17    18   ar
    19    18    19   ar
    20    19    20   ar
    21    12    20   ar
    22    16    20   ar
    23     4    21    1
    24     6    22    1
    25     7    23    1
    26     8    24    1
    27     9    25    1
    28    13    26    1
    29    14    27    1
    30    15    28    1
@<TRIPOS>MOLECULE
mol37_1_23
 28 30 0 0 0
SMALL
USER_CHARGES
****
VDW energy = -48.28
@<TRIPOS>ATOM
   1 O1       -0.8664    -0.0734     0.0738  O.2     1  <O>11      -0.1499
   2 S1       -1.4140     0.8545     1.3380  S.O2    1  <O>11       0.0746
   3 O2       -0.1305     1.6300     2.0523  O.2     1  <O>11      -0.1499
   4 N1       -2.4890     1.9740     0.7740  N.pl3   1  <O>11      -0.2134
   5 C1       -2.0710     2.9470    -0.2190  C.ar    1  <O>11       0.0832
   6 C2       -0.7540     2.9430    -0.7060  C.ar    1  <O>11      -0.0365
   7 C3       -0.3500     3.8890    -1.6540  C.ar    1  <O>11      -0.0598
   8 C4       -1.2540     4.8430    -2.1260  C.ar    1  <O>11      -0.0589
   9 C5       -2.5680     4.8420    -1.6450  C.ar    1  <O>11      -0.0246
  10 C6       -2.9820     3.9020    -0.7010  C.ar    1  <O>11       0.1456
  11 F1       -4.2720     3.8970    -0.2380  F       1  <O>11      -0.2035
  12 C7       -2.2090    -0.1770     2.5220  C.ar    1  <O>11       0.1392
  13 C8       -2.2555     0.0844     3.9075  C.ar    1  <O>11      -0.0327
  14 C9       -2.8806    -0.7753     4.8516  C.ar    1  <O>11      -0.0577
  15 C10      -3.5281    -1.9723     4.4923  C.ar    1  <O>11      -0.0307
  16 C11      -3.5144    -2.2504     3.1136  C.ar    1  <O>11       0.1361
  17 N2       -4.0403    -3.2898     2.4559  N.ar    1  <O>11      -0.0489
  18 O3       -3.7481    -3.0770     1.1184  O.2     1  <O>11      -0.2415
  19 N3       -3.0307    -1.9080     0.9245  N.ar    1  <O>11      -0.0469
  20 C12      -2.8733    -1.3718     2.1442  C.ar    1  <O>11       0.1606
  21 H1       -3.4480     1.9830     1.1230  H       1  <O>11       0.1738
  22 H2       -0.0814     2.2393    -0.3632  H       1  <O>11       0.0637
  23 H3        0.6201     3.8819    -2.0060  H       1  <O>11       0.0618
  24 H4       -0.9556     5.5426    -2.8235  H       1  <O>11       0.0618
  25 H5       -3.2388     5.5450    -1.9927  H       1  <O>11       0.0647
  26 H6       -1.8106     0.9482     4.2553  H       1  <O>11       0.0638
  27 H7       -2.8585    -0.5088     5.8485  H       1  <O>11       0.0619
  28 H8       -3.9760    -2.5945     5.1832  H       1  <O>11       0.0640
@<TRIPOS>BOND
     1     1     2    2
     2     2     3    2
     3     2     4    1
     4     4     5    1
     5     5     6   ar
     6     6     7   ar
     7     7     8   ar
     8     8     9   ar
     9     9    10   ar
    10     5    10   ar
    11    10    11    1
    12     2    12    1
    13    12    13   ar
    14    13    14   ar
    15    14    15   ar
    16    15    16   ar
    17    16    17   ar
    18    17    18   ar
    19    18    19   ar
    20    19    20   ar
    21    12    20   ar
    22    16    20   ar
    23     4    21    1
    24     6    22    1
    25     7    23    1
    26     8    24    1
    27     9    25    1
    28    13    26    1
    29    14    27    1
    30    15    28    1
@<TRIPOS>MOLECULE
mol37_1_24
 28 30 0 0 0
SMALL
USER_CHARGES
****
VDW energy = -48.23
@<TRIPOS>ATOM
   1 O1       -0.8664    -0.0734     0.0738  O.2     1  <O>11      -0.1499
   2 S1       -1.4140     0.8545     1.3380  S.O2    1  <O>11       0.0746
   3 O2       -0.1305     1.6300     2.0523  O.2     1  <O>11      -0.1499
   4 N1       -2.4890     1.9740     0.7740  N.pl3   1  <O>11      -0.2134
   5 C1       -2.0710     2.9470    -0.2190  C.ar    1  <O>11       0.0832
   6 C2       -2.0235     4.3131     0.1021  C.ar    1  <O>11      -0.0365
   7 C3       -1.6319     5.2503    -0.8598  C.ar    1  <O>11      -0.0598
   8 C4       -1.2821     4.8345    -2.1462  C.ar    1  <O>11      -0.0589
   9 C5       -1.3234     3.4722    -2.4633  C.ar    1  <O>11      -0.0246
  10 C6       -1.7106     2.5290    -1.5111  C.ar    1  <O>11       0.1456
  11 F1       -1.7415     1.1943    -1.8211  F       1  <O>11      -0.2035
  12 C7       -2.2090    -0.1770     2.5220  C.ar    1  <O>11       0.1392
  13 C8       -3.5581    -0.0512     2.9148  C.ar    1  <O>11      -0.0327
  14 C9       -4.1751    -0.8782     3.8928  C.ar    1  <O>11      -0.0577
  15 C10      -3.4990    -1.9170     4.5600  C.ar    1  <O>11      -0.0307
  16 C11      -2.1559    -2.0788     4.1752  C.ar    1  <O>11       0.1361
  17 N2       -1.2538    -2.9666     4.6085  N.ar    1  <O>11      -0.0489
  18 O3       -0.0908    -2.6964     3.9057  O.2     1  <O>11      -0.2415
  19 N3       -0.2488    -1.6336     3.0315  N.ar    1  <O>11      -0.0469
  20 C12      -1.5209    -1.2318     3.1742  C.ar    1  <O>11       0.1606
  21 H1       -3.4480     1.9830     1.1230  H       1  <O>11       0.1738
  22 H2       -2.2785     4.6271     1.0516  H       1  <O>11       0.0637
  23 H3       -1.6014     6.2530    -0.6178  H       1  <O>11       0.0618
  24 H4       -0.9955     5.5258    -2.8568  H       1  <O>11       0.0618
  25 H5       -1.0643     3.1616    -3.4127  H       1  <O>11       0.0647
  26 H6       -4.1292     0.6824     2.4670  H       1  <O>11       0.0638
  27 H7       -5.1664    -0.7087     4.1247  H       1  <O>11       0.0619
  28 H8       -3.9514    -2.5108     5.2726  H       1  <O>11       0.0640
@<TRIPOS>BOND
     1     1     2    2
     2     2     3    2
     3     2     4    1
     4     4     5    1
     5     5     6   ar
     6     6     7   ar
     7     7     8   ar
     8     8     9   ar
     9     9    10   ar
    10     5    10   ar
    11    10    11    1
    12     2    12    1
    13    12    13   ar
    14    13    14   ar
    15    14    15   ar
    16    15    16   ar
    17    16    17   ar
    18    17    18   ar
    19    18    19   ar
    20    19    20   ar
    21    12    20   ar
    22    16    20   ar
    23     4    21    1
    24     6    22    1
    25     7    23    1
    26     8    24    1
    27     9    25    1
    28    13    26    1
    29    14    27    1
    30    15    28    1
@<TRIPOS>MOLECULE
mol37_1_25
 28 30 0 0 0
SMALL
USER_CHARGES
****
VDW energy = -48.20
@<TRIPOS>ATOM
   1 O1       -0.8664    -0.0734     0.0738  O.2     1  <O>11      -0.1499
   2 S1       -1.4140     0.8545     1.3380  S.O2    1  <O>11       0.0746
   3 O2       -0.1305     1.6300     2.0523  O.2     1  <O>11      -0.1499
   4 N1       -2.4890     1.9740     0.7740  N.pl3   1  <O>11      -0.2134
   5 C1       -2.0710     2.9470    -0.2190  C.ar    1  <O>11       0.0832
   6 C2       -0.7540     2.9430    -0.7060  C.ar    1  <O>11      -0.0365
   7 C3       -0.3500     3.8890    -1.6540  C.ar    1  <O>11      -0.0598
   8 C4       -1.2540     4.8430    -2.1260  C.ar    1  <O>11      -0.0589
   9 C5       -2.5680     4.8420    -1.6450  C.ar    1  <O>11      -0.0246
  10 C6       -2.9820     3.9020    -0.7010  C.ar    1  <O>11       0.1456
  11 F1       -4.2720     3.8970    -0.2380  F       1  <O>11      -0.2035
  12 C7       -2.2090    -0.1770     2.5220  C.ar    1  <O>11       0.1392
  13 C8       -2.8851    -1.3759     2.2126  C.ar    1  <O>11      -0.0327
  14 C9       -3.5439    -2.1821     3.1806  C.ar    1  <O>11      -0.0577
  15 C10      -3.5759    -1.8668     4.5521  C.ar    1  <O>11      -0.0307
  16 C11      -2.8935    -0.6854     4.8939  C.ar    1  <O>11       0.1361
  17 N2       -2.7328    -0.1198     6.0955  N.ar    1  <O>11      -0.0489
  18 O3       -1.9803     1.0228     5.8772  O.2     1  <O>11      -0.2415
  19 N3       -1.6682     1.1895     4.5379  N.ar    1  <O>11      -0.0469
  20 C12      -2.2187     0.1432     3.9036  C.ar    1  <O>11       0.1606
  21 H1       -3.4480     1.9830     1.1230  H       1  <O>11       0.1738
  22 H2       -0.0814     2.2393    -0.3632  H       1  <O>11       0.0637
  23 H3        0.6201     3.8819    -2.0060  H       1  <O>11       0.0618
  24 H4       -0.9556     5.5426    -2.8235  H       1  <O>11       0.0618
  25 H5       -3.2388     5.5450    -1.9927  H       1  <O>11       0.0647
  26 H6       -2.9024    -1.6850     1.2282  H       1  <O>11       0.0638
  27 H7       -4.0216    -3.0398     2.8625  H       1  <O>11       0.0619
  28 H8       -4.0601    -2.4539     5.2492  H       1  <O>11       0.0640
@<TRIPOS>BOND
     1     1     2    2
     2     2     3    2
     3     2     4    1
     4     4     5    1
     5     5     6   ar
     6     6     7   ar
     7     7     8   ar
     8     8     9   ar
     9     9    10   ar
    10     5    10   ar
    11    10    11    1
    12     2    12    1
    13    12    13   ar
    14    13    14   ar
    15    14    15   ar
    16    15    16   ar
    17    16    17   ar
    18    17    18   ar
    19    18    19   ar
    20    19    20   ar
    21    12    20   ar
    22    16    20   ar
    23     4    21    1
    24     6    22    1
    25     7    23    1
    26     8    24    1
    27     9    25    1
    28    13    26    1
    29    14    27    1
    30    15    28    1
@<TRIPOS>MOLECULE
mol37_1_26
 28 30 0 0 0
SMALL
USER_CHARGES
****
VDW energy = -47.05
@<TRIPOS>ATOM
   1 O1       -0.8664    -0.0734     0.0738  O.2     1  <O>11      -0.1499
   2 S1       -1.4140     0.8545     1.3380  S.O2    1  <O>11       0.0746
   3 O2       -0.1305     1.6300     2.0523  O.2     1  <O>11      -0.1499
   4 N1       -2.4890     1.9740     0.7740  N.pl3   1  <O>11      -0.2134
   5 C1       -3.1122     2.9100     1.6921  C.ar    1  <O>11       0.0832
   6 C2       -4.4955     2.8589     1.9274  C.ar    1  <O>11      -0.0365
   7 C3       -5.0958     3.7695     2.8034  C.ar    1  <O>11      -0.0598
   8 C4       -4.3238     4.7347     3.4533  C.ar    1  <O>11      -0.0589
   9 C5       -2.9443     4.7806     3.2233  C.ar    1  <O>11      -0.0246
  10 C6       -2.3351     3.8762     2.3532  C.ar    1  <O>11       0.1456
  11 F1       -0.9824     3.9170     2.1364  F       1  <O>11      -0.2035
  12 C7       -2.2090    -0.1770     2.5220  C.ar    1  <O>11       0.1392
  13 C8       -2.3490    -1.5753     2.3988  C.ar    1  <O>11      -0.0327
  14 C9       -3.0180    -2.3881     3.3542  C.ar    1  <O>11      -0.0577
  15 C10      -3.5992    -1.8751     4.5292  C.ar    1  <O>11      -0.0307
  16 C11      -3.4591    -0.4848     4.6889  C.ar    1  <O>11       0.1361
  17 N2       -3.8867     0.2987     5.6853  N.ar    1  <O>11      -0.0489
  18 O3       -3.4854     1.5829     5.3544  O.2     1  <O>11      -0.2415
  19 N3       -2.8098     1.6192     4.1457  N.ar    1  <O>11      -0.0469
  20 C12      -2.7751     0.3505     3.7106  C.ar    1  <O>11       0.1606
  21 H1       -2.7164     2.0088    -0.2203  H       1  <O>11       0.1738
  22 H2       -5.0717     2.1467     1.4522  H       1  <O>11       0.0637
  23 H3       -6.1135     3.7279     2.9700  H       1  <O>11       0.0618
  24 H4       -4.7667     5.4082     4.0977  H       1  <O>11       0.0618
  25 H5       -2.3708     5.4920     3.7030  H       1  <O>11       0.0647
  26 H6       -1.9430    -2.0341     1.5683  H       1  <O>11       0.0638
  27 H7       -3.0806    -3.4031     3.1779  H       1  <O>11       0.0619
  28 H8       -4.0878    -2.4700     5.2166  H       1  <O>11       0.0640
@<TRIPOS>BOND
     1     1     2    2
     2     2     3    2
     3     2     4    1
     4     4     5    1
     5     5     6   ar
     6     6     7   ar
     7     7     8   ar
     8     8     9   ar
     9     9    10   ar
    10     5    10   ar
    11    10    11    1
    12     2    12    1
    13    12    13   ar
    14    13    14   ar
    15    14    15   ar
    16    15    16   ar
    17    16    17   ar
    18    17    18   ar
    19    18    19   ar
    20    19    20   ar
    21    12    20   ar
    22    16    20   ar
    23     4    21    1
    24     6    22    1
    25     7    23    1
    26     8    24    1
    27     9    25    1
    28    13    26    1
    29    14    27    1
    30    15    28    1
@<TRIPOS>MOLECULE
mol37_1_27
 28 30 0 0 0
SMALL
USER_CHARGES
****
VDW energy = -47.03
@<TRIPOS>ATOM
   1 O1       -0.8664    -0.0734     0.0738  O.2     1  <O>11      -0.1499
   2 S1       -1.4140     0.8545     1.3380  S.O2    1  <O>11       0.0746
   3 O2       -0.1305     1.6300     2.0523  O.2     1  <O>11      -0.1499
   4 N1       -2.4890     1.9740     0.7740  N.pl3   1  <O>11      -0.2134
   5 C1       -2.0710     2.9470    -0.2190  C.ar    1  <O>11       0.0832
   6 C2       -0.7540     2.9430    -0.7060  C.ar    1  <O>11      -0.0365
   7 C3       -0.3500     3.8890    -1.6540  C.ar    1  <O>11      -0.0598
   8 C4       -1.2540     4.8430    -2.1260  C.ar    1  <O>11      -0.0589
   9 C5       -2.5680     4.8420    -1.6450  C.ar    1  <O>11      -0.0246
  10 C6       -2.9820     3.9020    -0.7010  C.ar    1  <O>11       0.1456
  11 F1       -4.2720     3.8970    -0.2380  F       1  <O>11      -0.2035
  12 C7       -2.2090    -0.1770     2.5220  C.ar    1  <O>11       0.1392
  13 C8       -3.5580    -0.0510     2.9150  C.ar    1  <O>11      -0.0327
  14 C9       -4.1750    -0.8780     3.8930  C.ar    1  <O>11      -0.0577
  15 C10      -3.4990    -1.9170     4.5600  C.ar    1  <O>11      -0.0307
  16 C11      -2.1560    -2.0790     4.1750  C.ar    1  <O>11       0.1361
  17 N2       -1.2540    -2.9670     4.6080  N.ar    1  <O>11      -0.0489
  18 O3       -0.0910    -2.6970     3.9050  O.2     1  <O>11      -0.2415
  19 N3       -0.2490    -1.6340     3.0310  N.ar    1  <O>11      -0.0469
  20 C12      -1.5210    -1.2320     3.1740  C.ar    1  <O>11       0.1606
  21 H1       -3.4480     1.9830     1.1230  H       1  <O>11       0.1738
  22 H2       -0.0814     2.2393    -0.3632  H       1  <O>11       0.0637
  23 H3        0.6201     3.8819    -2.0060  H       1  <O>11       0.0618
  24 H4       -0.9556     5.5426    -2.8235  H       1  <O>11       0.0618
  25 H5       -3.2388     5.5450    -1.9927  H       1  <O>11       0.0647
  26 H6       -4.1291     0.6828     2.4674  H       1  <O>11       0.0638
  27 H7       -5.1662    -0.7084     4.1251  H       1  <O>11       0.0619
  28 H8       -3.9514    -2.5108     5.2726  H       1  <O>11       0.0640
@<TRIPOS>BOND
     1     1     2    2
     2     2     3    2
     3     2     4    1
     4     4     5    1
     5     5     6   ar
     6     6     7   ar
     7     7     8   ar
     8     8     9   ar
     9     9    10   ar
    10     5    10   ar
    11    10    11    1
    12     2    12    1
    13    12    13   ar
    14    13    14   ar
    15    14    15   ar
    16    15    16   ar
    17    16    17   ar
    18    17    18   ar
    19    18    19   ar
    20    19    20   ar
    21    12    20   ar
    22    16    20   ar
    23     4    21    1
    24     6    22    1
    25     7    23    1
    26     8    24    1
    27     9    25    1
    28    13    26    1
    29    14    27    1
    30    15    28    1
@<TRIPOS>MOLECULE
mol37_1_28
 28 30 0 0 0
SMALL
USER_CHARGES
****
VDW energy = -44.62
@<TRIPOS>ATOM
   1 O1       -0.8664    -0.0734     0.0738  O.2     1  <O>11      -0.1499
   2 S1       -1.4140     0.8545     1.3380  S.O2    1  <O>11       0.0746
   3 O2       -0.1305     1.6300     2.0523  O.2     1  <O>11      -0.1499
   4 N1       -2.4890     1.9740     0.7740  N.pl3   1  <O>11      -0.2134
   5 C1       -3.1122     2.9100     1.6921  C.ar    1  <O>11       0.0832
   6 C2       -2.8067     2.8702     3.0621  C.ar    1  <O>11      -0.0365
   7 C3       -3.4174     3.7653     3.9469  C.ar    1  <O>11      -0.0598
   8 C4       -4.3332     4.7077     3.4744  C.ar    1  <O>11      -0.0589
   9 C5       -4.6320     4.7509     2.1081  C.ar    1  <O>11      -0.0246
  10 C6       -4.0274     3.8643     1.2167  C.ar    1  <O>11       0.1456
  11 F1       -4.3145     3.9144    -0.1225  F       1  <O>11      -0.2035
  12 C7       -2.2090    -0.1770     2.5220  C.ar    1  <O>11       0.1392
  13 C8       -3.5581    -0.0512     2.9148  C.ar    1  <O>11      -0.0327
  14 C9       -4.1751    -0.8782     3.8928  C.ar    1  <O>11      -0.0577
  15 C10      -3.4990    -1.9170     4.5600  C.ar    1  <O>11      -0.0307
  16 C11      -2.1559    -2.0788     4.1752  C.ar    1  <O>11       0.1361
  17 N2       -1.2538    -2.9666     4.6085  N.ar    1  <O>11      -0.0489
  18 O3       -0.0908    -2.6964     3.9057  O.2     1  <O>11      -0.2415
  19 N3       -0.2488    -1.6336     3.0315  N.ar    1  <O>11      -0.0469
  20 C12      -1.5209    -1.2318     3.1742  C.ar    1  <O>11       0.1606
  21 H1       -2.7164     2.0088    -0.2203  H       1  <O>11       0.1738
  22 H2       -2.1290     2.1779     3.4177  H       1  <O>11       0.0637
  23 H3       -3.1901     3.7290     4.9529  H       1  <O>11       0.0618
  24 H4       -4.7858     5.3665     4.1272  H       1  <O>11       0.0618
  25 H5       -5.3075     5.4469     1.7556  H       1  <O>11       0.0647
  26 H6       -4.1292     0.6824     2.4670  H       1  <O>11       0.0638
  27 H7       -5.1664    -0.7087     4.1247  H       1  <O>11       0.0619
  28 H8       -3.9514    -2.5108     5.2726  H       1  <O>11       0.0640
@<TRIPOS>BOND
     1     1     2    2
     2     2     3    2
     3     2     4    1
     4     4     5    1
     5     5     6   ar
     6     6     7   ar
     7     7     8   ar
     8     8     9   ar
     9     9    10   ar
    10     5    10   ar
    11    10    11    1
    12     2    12    1
    13    12    13   ar
    14    13    14   ar
    15    14    15   ar
    16    15    16   ar
    17    16    17   ar
    18    17    18   ar
    19    18    19   ar
    20    19    20   ar
    21    12    20   ar
    22    16    20   ar
    23     4    21    1
    24     6    22    1
    25     7    23    1
    26     8    24    1
    27     9    25    1
    28    13    26    1
    29    14    27    1
    30    15    28    1
@<TRIPOS>MOLECULE
mol37_1_29
 28 30 0 0 0
SMALL
USER_CHARGES
****
VDW energy = -42.97
@<TRIPOS>ATOM
   1 O1       -0.8664    -0.0734     0.0738  O.2     1  <O>11      -0.1499
   2 S1       -1.4140     0.8545     1.3380  S.O2    1  <O>11       0.0746
   3 O2       -0.1305     1.6300     2.0523  O.2     1  <O>11      -0.1499
   4 N1       -2.4890     1.9740     0.7740  N.pl3   1  <O>11      -0.2134
   5 C1       -3.1122     2.9100     1.6921  C.ar    1  <O>11       0.0832
   6 C2       -4.4955     2.8589     1.9274  C.ar    1  <O>11      -0.0365
   7 C3       -5.0958     3.7695     2.8034  C.ar    1  <O>11      -0.0598
   8 C4       -4.3238     4.7347     3.4533  C.ar    1  <O>11      -0.0589
   9 C5       -2.9443     4.7806     3.2233  C.ar    1  <O>11      -0.0246
  10 C6       -2.3351     3.8762     2.3532  C.ar    1  <O>11       0.1456
  11 F1       -0.9824     3.9170     2.1364  F       1  <O>11      -0.2035
  12 C7       -2.2090    -0.1770     2.5220  C.ar    1  <O>11       0.1392
  13 C8       -3.5581    -0.0512     2.9148  C.ar    1  <O>11      -0.0327
  14 C9       -4.1751    -0.8782     3.8928  C.ar    1  <O>11      -0.0577
  15 C10      -3.4990    -1.9170     4.5600  C.ar    1  <O>11      -0.0307
  16 C11      -2.1559    -2.0788     4.1752  C.ar    1  <O>11       0.1361
  17 N2       -1.2538    -2.9666     4.6085  N.ar    1  <O>11      -0.0489
  18 O3       -0.0908    -2.6964     3.9057  O.2     1  <O>11      -0.2415
  19 N3       -0.2488    -1.6336     3.0315  N.ar    1  <O>11      -0.0469
  20 C12      -1.5209    -1.2318     3.1742  C.ar    1  <O>11       0.1606
  21 H1       -2.7164     2.0088    -0.2203  H       1  <O>11       0.1738
  22 H2       -5.0717     2.1467     1.4522  H       1  <O>11       0.0637
  23 H3       -6.1135     3.7279     2.9700  H       1  <O>11       0.0618
  24 H4       -4.7667     5.4082     4.0977  H       1  <O>11       0.0618
  25 H5       -2.3708     5.4920     3.7030  H       1  <O>11       0.0647
  26 H6       -4.1292     0.6824     2.4670  H       1  <O>11       0.0638
  27 H7       -5.1664    -0.7087     4.1247  H       1  <O>11       0.0619
  28 H8       -3.9514    -2.5108     5.2726  H       1  <O>11       0.0640
@<TRIPOS>BOND
     1     1     2    2
     2     2     3    2
     3     2     4    1
     4     4     5    1
     5     5     6   ar
     6     6     7   ar
     7     7     8   ar
     8     8     9   ar
     9     9    10   ar
    10     5    10   ar
    11    10    11    1
    12     2    12    1
    13    12    13   ar
    14    13    14   ar
    15    14    15   ar
    16    15    16   ar
    17    16    17   ar
    18    17    18   ar
    19    18    19   ar
    20    19    20   ar
    21    12    20   ar
    22    16    20   ar
    23     4    21    1
    24     6    22    1
    25     7    23    1
    26     8    24    1
    27     9    25    1
    28    13    26    1
    29    14    27    1
    30    15    28    1
@<TRIPOS>MOLECULE
mol37_1_30
 28 30 0 0 0
SMALL
USER_CHARGES
****
VDW energy = -30.78
@<TRIPOS>ATOM
   1 O1       -0.8664    -0.0734     0.0738  O.2     1  <O>11      -0.1499
   2 S1       -1.4140     0.8545     1.3380  S.O2    1  <O>11       0.0746
   3 O2       -0.1305     1.6300     2.0523  O.2     1  <O>11      -0.1499
   4 N1       -2.4890     1.9740     0.7740  N.pl3   1  <O>11      -0.2134
   5 C1       -3.7029     1.5430     0.1045  C.ar    1  <O>11       0.0832
   6 C2       -3.9712     0.1754    -0.0673  C.ar    1  <O>11      -0.0365
   7 C3       -5.1357    -0.2376    -0.7233  C.ar    1  <O>11      -0.0598
   8 C4       -6.0422     0.7067    -1.2098  C.ar    1  <O>11      -0.0589
   9 C5       -5.7771     2.0692    -1.0322  C.ar    1  <O>11      -0.0246
  10 C6       -4.6199     2.4920    -0.3779  C.ar    1  <O>11       0.1456
  11 F1       -4.3667     3.8268    -0.1969  F       1  <O>11      -0.2035
  12 C7       -2.2090    -0.1770     2.5220  C.ar    1  <O>11       0.1392
  13 C8       -2.8851    -1.3759     2.2126  C.ar    1  <O>11      -0.0327
  14 C9       -3.5439    -2.1821     3.1806  C.ar    1  <O>11      -0.0577
  15 C10      -3.5759    -1.8668     4.5521  C.ar    1  <O>11      -0.0307
  16 C11      -2.8935    -0.6854     4.8939  C.ar    1  <O>11       0.1361
  17 N2       -2.7328    -0.1198     6.0955  N.ar    1  <O>11      -0.0489
  18 O3       -1.9803     1.0228     5.8772  O.2     1  <O>11      -0.2415
  19 N3       -1.6682     1.1895     4.5379  N.ar    1  <O>11      -0.0469
  20 C12      -2.2187     0.1432     3.9036  C.ar    1  <O>11       0.1606
  21 H1       -2.3010     2.9697     0.8954  H       1  <O>11       0.1738
  22 H2       -3.3067    -0.5278     0.2918  H       1  <O>11       0.0637
  23 H3       -5.3256    -1.2442    -0.8483  H       1  <O>11       0.0618
  24 H4       -6.9001     0.4024    -1.6960  H       1  <O>11       0.0618
  25 H5       -6.4457     2.7695    -1.3896  H       1  <O>11       0.0647
  26 H6       -2.9024    -1.6850     1.2282  H       1  <O>11       0.0638
  27 H7       -4.0216    -3.0398     2.8625  H       1  <O>11       0.0619
  28 H8       -4.0601    -2.4539     5.2492  H       1  <O>11       0.0640
@<TRIPOS>BOND
     1     1     2    2
     2     2     3    2
     3     2     4    1
     4     4     5    1
     5     5     6   ar
     6     6     7   ar
     7     7     8   ar
     8     8     9   ar
     9     9    10   ar
    10     5    10   ar
    11    10    11    1
    12     2    12    1
    13    12    13   ar
    14    13    14   ar
    15    14    15   ar
    16    15    16   ar
    17    16    17   ar
    18    17    18   ar
    19    18    19   ar
    20    19    20   ar
    21    12    20   ar
    22    16    20   ar
    23     4    21    1
    24     6    22    1
    25     7    23    1
    26     8    24    1
    27     9    25    1
    28    13    26    1
    29    14    27    1
    30    15    28    1
@<TRIPOS>MOLECULE
mol37_2_1
 28 30 0 0 0
SMALL
USER_CHARGES
****
VDW energy = -57.97
@<TRIPOS>ATOM
   1 O1       -0.8664    -0.0734     0.0738  O.2     1  <O>11      -0.1499
   2 S1       -1.4140     0.8545     1.3380  S.O2    1  <O>11       0.0746
   3 O2       -0.1305     1.6300     2.0523  O.2     1  <O>11      -0.1499
   4 N1       -2.4890     1.9740     0.7740  N.pl3   1  <O>11      -0.2134
   5 C1       -3.1122     2.9100     1.6921  C.ar    1  <O>11       0.0832
   6 C2       -2.5083     4.1489     1.9611  C.ar    1  <O>11      -0.0365
   7 C3       -3.1039     5.0450     2.8565  C.ar    1  <O>11      -0.0598
   8 C4       -4.3069     4.7157     3.4852  C.ar    1  <O>11      -0.0589
   9 C5       -4.9107     3.4830     3.2115  C.ar    1  <O>11      -0.0246
  10 C6       -4.3259     2.5833     2.3201  C.ar    1  <O>11       0.1456
  11 F1       -4.9233     1.3803     2.0455  F       1  <O>11      -0.2035
  12 C7       -2.2090    -0.1770     2.5220  C.ar    1  <O>11       0.1392
  13 C8       -2.8851    -1.3759     2.2126  C.ar    1  <O>11      -0.0327
  14 C9       -3.5439    -2.1821     3.1806  C.ar    1  <O>11      -0.0577
  15 C10      -3.5759    -1.8668     4.5521  C.ar    1  <O>11      -0.0307
  16 C11      -2.8935    -0.6854     4.8939  C.ar    1  <O>11       0.1361
  17 N2       -2.7328    -0.1198     6.0955  N.ar    1  <O>11      -0.0489
  18 O3       -1.9803     1.0228     5.8772  O.2     1  <O>11      -0.2415
  19 N3       -1.6682     1.1895     4.5379  N.ar    1  <O>11      -0.0469
  20 C12      -2.2187     0.1432     3.9036  C.ar    1  <O>11       0.1606
  21 H1       -2.7164     2.0088    -0.2203  H       1  <O>11       0.1738
  22 H2       -1.6215     4.3998     1.4967  H       1  <O>11       0.0637
  23 H3       -2.6525     5.9520     3.0528  H       1  <O>11       0.0618
  24 H4       -4.7467     5.3755     4.1456  H       1  <O>11       0.0618
  25 H5       -5.7993     3.2367     3.6749  H       1  <O>11       0.0647
  26 H6       -2.9024    -1.6850     1.2282  H       1  <O>11       0.0638
  27 H7       -4.0216    -3.0398     2.8625  H       1  <O>11       0.0619
  28 H8       -4.0601    -2.4539     5.2492  H       1  <O>11       0.0640
@<TRIPOS>BOND
     1     1     2    2
     2     2     3    2
     3     2     4    1
     4     4     5    1
     5     5     6   ar
     6     6     7   ar
     7     7     8   ar
     8     8     9   ar
     9     9    10   ar
    10     5    10   ar
    11    10    11    1
    12     2    12    1
    13    12    13   ar
    14    13    14   ar
    15    14    15   ar
    16    15    16   ar
    17    16    17   ar
    18    17    18   ar
    19    18    19   ar
    20    19    20   ar
    21    12    20   ar
    22    16    20   ar
    23     4    21    1
    24     6    22    1
    25     7    23    1
    26     8    24    1
    27     9    25    1
    28    13    26    1
    29    14    27    1
    30    15    28    1
@<TRIPOS>MOLECULE
mol37_2_2
 28 30 0 0 0
SMALL
USER_CHARGES
****
VDW energy = -56.80
@<TRIPOS>ATOM
   1 O1       -0.8664    -0.0734     0.0738  O.2     1  <O>11      -0.1499
   2 S1       -1.4140     0.8545     1.3380  S.O2    1  <O>11       0.0746
   3 O2       -0.1305     1.6300     2.0523  O.2     1  <O>11      -0.1499
   4 N1       -2.4890     1.9740     0.7740  N.pl3   1  <O>11      -0.2134
   5 C1       -3.1122     2.9100     1.6921  C.ar    1  <O>11       0.0832
   6 C2       -2.5083     4.1489     1.9611  C.ar    1  <O>11      -0.0365
   7 C3       -3.1039     5.0450     2.8565  C.ar    1  <O>11      -0.0598
   8 C4       -4.3069     4.7157     3.4852  C.ar    1  <O>11      -0.0589
   9 C5       -4.9107     3.4830     3.2115  C.ar    1  <O>11      -0.0246
  10 C6       -4.3259     2.5833     2.3201  C.ar    1  <O>11       0.1456
  11 F1       -4.9233     1.3803     2.0455  F       1  <O>11      -0.2035
  12 C7       -2.2090    -0.1770     2.5220  C.ar    1  <O>11       0.1392
  13 C8       -2.2555     0.0844     3.9075  C.ar    1  <O>11      -0.0327
  14 C9       -2.8806    -0.7753     4.8516  C.ar    1  <O>11      -0.0577
  15 C10      -3.5281    -1.9723     4.4923  C.ar    1  <O>11      -0.0307
  16 C11      -3.5144    -2.2504     3.1136  C.ar    1  <O>11       0.1361
  17 N2       -4.0403    -3.2898     2.4559  N.ar    1  <O>11      -0.0489
  18 O3       -3.7481    -3.0770     1.1184  O.2     1  <O>11      -0.2415
  19 N3       -3.0307    -1.9080     0.9245  N.ar    1  <O>11      -0.0469
  20 C12      -2.8733    -1.3718     2.1442  C.ar    1  <O>11       0.1606
  21 H1       -2.7164     2.0088    -0.2203  H       1  <O>11       0.1738
  22 H2       -1.6215     4.3998     1.4967  H       1  <O>11       0.0637
  23 H3       -2.6525     5.9520     3.0528  H       1  <O>11       0.0618
  24 H4       -4.7467     5.3755     4.1456  H       1  <O>11       0.0618
  25 H5       -5.7993     3.2367     3.6749  H       1  <O>11       0.0647
  26 H6       -1.8106     0.9482     4.2553  H       1  <O>11       0.0638
  27 H7       -2.8585    -0.5088     5.8485  H       1  <O>11       0.0619
  28 H8       -3.9760    -2.5945     5.1832  H       1  <O>11       0.0640
@<TRIPOS>BOND
     1     1     2    2
     2     2     3    2
     3     2     4    1
     4     4     5    1
     5     5     6   ar
     6     6     7   ar
     7     7     8   ar
     8     8     9   ar
     9     9    10   ar
    10     5    10   ar
    11    10    11    1
    12     2    12    1
    13    12    13   ar
    14    13    14   ar
    15    14    15   ar
    16    15    16   ar
    17    16    17   ar
    18    17    18   ar
    19    18    19   ar
    20    19    20   ar
    21    12    20   ar
    22    16    20   ar
    23     4    21    1
    24     6    22    1
    25     7    23    1
    26     8    24    1
    27     9    25    1
    28    13    26    1
    29    14    27    1
    30    15    28    1
@<TRIPOS>MOLECULE
mol37_2_3
 28 30 0 0 0
SMALL
USER_CHARGES
****
VDW energy = -56.78
@<TRIPOS>ATOM
   1 O1       -0.8664    -0.0734     0.0738  O.2     1  <O>11      -0.1499
   2 S1       -1.4140     0.8545     1.3380  S.O2    1  <O>11       0.0746
   3 O2       -0.1305     1.6300     2.0523  O.2     1  <O>11      -0.1499
   4 N1       -2.4890     1.9740     0.7740  N.pl3   1  <O>11      -0.2134
   5 C1       -3.7029     1.5430     0.1045  C.ar    1  <O>11       0.0832
   6 C2       -3.7169     1.3532    -1.2867  C.ar    1  <O>11      -0.0365
   7 C3       -4.8916     0.9499    -1.9324  C.ar    1  <O>11      -0.0598
   8 C4       -6.0578     0.7278    -1.1965  C.ar    1  <O>11      -0.0589
   9 C5       -6.0407     0.9117     0.1909  C.ar    1  <O>11      -0.0246
  10 C6       -4.8750     1.3124     0.8442  C.ar    1  <O>11       0.1456
  11 F1       -4.8571     1.4827     2.2044  F       1  <O>11      -0.2035
  12 C7       -2.2090    -0.1770     2.5220  C.ar    1  <O>11       0.1392
  13 C8       -2.8851    -1.3759     2.2126  C.ar    1  <O>11      -0.0327
  14 C9       -3.5439    -2.1821     3.1806  C.ar    1  <O>11      -0.0577
  15 C10      -3.5759    -1.8668     4.5521  C.ar    1  <O>11      -0.0307
  16 C11      -2.8935    -0.6854     4.8939  C.ar    1  <O>11       0.1361
  17 N2       -2.7328    -0.1198     6.0955  N.ar    1  <O>11      -0.0489
  18 O3       -1.9803     1.0228     5.8772  O.2     1  <O>11      -0.2415
  19 N3       -1.6682     1.1895     4.5379  N.ar    1  <O>11      -0.0469
  20 C12      -2.2187     0.1432     3.9036  C.ar    1  <O>11       0.1606
  21 H1       -2.3010     2.9697     0.8954  H       1  <O>11       0.1738
  22 H2       -2.8575     1.5116    -1.8356  H       1  <O>11       0.0637
  23 H3       -4.8960     0.8163    -2.9557  H       1  <O>11       0.0618
  24 H4       -6.9244     0.4307    -1.6715  H       1  <O>11       0.0618
  25 H5       -6.9009     0.7489     0.7373  H       1  <O>11       0.0647
  26 H6       -2.9024    -1.6850     1.2282  H       1  <O>11       0.0638
  27 H7       -4.0216    -3.0398     2.8625  H       1  <O>11       0.0619
  28 H8       -4.0601    -2.4539     5.2492  H       1  <O>11       0.0640
@<TRIPOS>BOND
     1     1     2    2
     2     2     3    2
     3     2     4    1
     4     4     5    1
     5     5     6   ar
     6     6     7   ar
     7     7     8   ar
     8     8     9   ar
     9     9    10   ar
    10     5    10   ar
    11    10    11    1
    12     2    12    1
    13    12    13   ar
    14    13    14   ar
    15    14    15   ar
    16    15    16   ar
    17    16    17   ar
    18    17    18   ar
    19    18    19   ar
    20    19    20   ar
    21    12    20   ar
    22    16    20   ar
    23     4    21    1
    24     6    22    1
    25     7    23    1
    26     8    24    1
    27     9    25    1
    28    13    26    1
    29    14    27    1
    30    15    28    1
@<TRIPOS>MOLECULE
mol37_2_4
 28 30 0 0 0
SMALL
USER_CHARGES
****
VDW energy = -56.63
@<TRIPOS>ATOM
   1 O1       -0.8664    -0.0734     0.0738  O.2     1  <O>11      -0.1499
   2 S1       -1.4140     0.8545     1.3380  S.O2    1  <O>11       0.0746
   3 O2       -0.1305     1.6300     2.0523  O.2     1  <O>11      -0.1499
   4 N1       -2.4890     1.9740     0.7740  N.pl3   1  <O>11      -0.2134
   5 C1       -3.7029     1.5430     0.1045  C.ar    1  <O>11       0.0832
   6 C2       -3.7169     1.3532    -1.2867  C.ar    1  <O>11      -0.0365
   7 C3       -4.8916     0.9499    -1.9324  C.ar    1  <O>11      -0.0598
   8 C4       -6.0578     0.7278    -1.1965  C.ar    1  <O>11      -0.0589
   9 C5       -6.0407     0.9117     0.1909  C.ar    1  <O>11      -0.0246
  10 C6       -4.8750     1.3124     0.8442  C.ar    1  <O>11       0.1456
  11 F1       -4.8571     1.4827     2.2044  F       1  <O>11      -0.2035
  12 C7       -2.2090    -0.1770     2.5220  C.ar    1  <O>11       0.1392
  13 C8       -2.3490    -1.5753     2.3988  C.ar    1  <O>11      -0.0327
  14 C9       -3.0180    -2.3881     3.3542  C.ar    1  <O>11      -0.0577
  15 C10      -3.5992    -1.8751     4.5292  C.ar    1  <O>11      -0.0307
  16 C11      -3.4591    -0.4848     4.6889  C.ar    1  <O>11       0.1361
  17 N2       -3.8867     0.2987     5.6853  N.ar    1  <O>11      -0.0489
  18 O3       -3.4854     1.5829     5.3544  O.2     1  <O>11      -0.2415
  19 N3       -2.8098     1.6192     4.1457  N.ar    1  <O>11      -0.0469
  20 C12      -2.7751     0.3505     3.7106  C.ar    1  <O>11       0.1606
  21 H1       -2.3010     2.9697     0.8954  H       1  <O>11       0.1738
  22 H2       -2.8575     1.5116    -1.8356  H       1  <O>11       0.0637
  23 H3       -4.8960     0.8163    -2.9557  H       1  <O>11       0.0618
  24 H4       -6.9244     0.4307    -1.6715  H       1  <O>11       0.0618
  25 H5       -6.9009     0.7489     0.7373  H       1  <O>11       0.0647
  26 H6       -1.9430    -2.0341     1.5683  H       1  <O>11       0.0638
  27 H7       -3.0806    -3.4031     3.1779  H       1  <O>11       0.0619
  28 H8       -4.0878    -2.4700     5.2166  H       1  <O>11       0.0640
@<TRIPOS>BOND
     1     1     2    2
     2     2     3    2
     3     2     4    1
     4     4     5    1
     5     5     6   ar
     6     6     7   ar
     7     7     8   ar
     8     8     9   ar
     9     9    10   ar
    10     5    10   ar
    11    10    11    1
    12     2    12    1
    13    12    13   ar
    14    13    14   ar
    15    14    15   ar
    16    15    16   ar
    17    16    17   ar
    18    17    18   ar
    19    18    19   ar
    20    19    20   ar
    21    12    20   ar
    22    16    20   ar
    23     4    21    1
    24     6    22    1
    25     7    23    1
    26     8    24    1
    27     9    25    1
    28    13    26    1
    29    14    27    1
    30    15    28    1
@<TRIPOS>MOLECULE
mol37_2_5
 28 30 0 0 0
SMALL
USER_CHARGES
****
VDW energy = -56.60
@<TRIPOS>ATOM
   1 O1       -0.8664    -0.0734     0.0738  O.2     1  <O>11      -0.1499
   2 S1       -1.4140     0.8545     1.3380  S.O2    1  <O>11       0.0746
   3 O2       -0.1305     1.6300     2.0523  O.2     1  <O>11      -0.1499
   4 N1       -2.4890     1.9740     0.7740  N.pl3   1  <O>11      -0.2134
   5 C1       -3.1122     2.9100     1.6921  C.ar    1  <O>11       0.0832
   6 C2       -2.5083     4.1489     1.9611  C.ar    1  <O>11      -0.0365
   7 C3       -3.1039     5.0450     2.8565  C.ar    1  <O>11      -0.0598
   8 C4       -4.3069     4.7157     3.4852  C.ar    1  <O>11      -0.0589
   9 C5       -4.9107     3.4830     3.2115  C.ar    1  <O>11      -0.0246
  10 C6       -4.3259     2.5833     2.3201  C.ar    1  <O>11       0.1456
  11 F1       -4.9233     1.3803     2.0455  F       1  <O>11      -0.2035
  12 C7       -2.2090    -0.1770     2.5220  C.ar    1  <O>11       0.1392
  13 C8       -1.8037    -0.3107     3.8666  C.ar    1  <O>11      -0.0327
  14 C9       -2.4436    -1.1697     4.8014  C.ar    1  <O>11      -0.0577
  15 C10      -3.5578    -1.9665     4.4774  C.ar    1  <O>11      -0.0307
  16 C11      -3.9968    -1.8401     3.1471  C.ar    1  <O>11       0.1361
  17 N2       -5.0190    -2.4466     2.5333  N.ar    1  <O>11      -0.0489
  18 O3       -5.0164    -1.9677     1.2332  O.2     1  <O>11      -0.2415
  19 N3       -3.9898    -1.0633     1.0164  N.ar    1  <O>11      -0.0469
  20 C12      -3.3420    -0.9615     2.1869  C.ar    1  <O>11       0.1606
  21 H1       -2.7164     2.0088    -0.2203  H       1  <O>11       0.1738
  22 H2       -1.6215     4.3998     1.4967  H       1  <O>11       0.0637
  23 H3       -2.6525     5.9520     3.0528  H       1  <O>11       0.0618
  24 H4       -4.7467     5.3755     4.1456  H       1  <O>11       0.0618
  25 H5       -5.7993     3.2367     3.6749  H       1  <O>11       0.0647
  26 H6       -0.9974     0.2463     4.1899  H       1  <O>11       0.0638
  27 H7       -2.0733    -1.2112     5.7638  H       1  <O>11       0.0619
  28 H8       -4.0149    -2.5918     5.1594  H       1  <O>11       0.0640
@<TRIPOS>BOND
     1     1     2    2
     2     2     3    2
     3     2     4    1
     4     4     5    1
     5     5     6   ar
     6     6     7   ar
     7     7     8   ar
     8     8     9   ar
     9     9    10   ar
    10     5    10   ar
    11    10    11    1
    12     2    12    1
    13    12    13   ar
    14    13    14   ar
    15    14    15   ar
    16    15    16   ar
    17    16    17   ar
    18    17    18   ar
    19    18    19   ar
    20    19    20   ar
    21    12    20   ar
    22    16    20   ar
    23     4    21    1
    24     6    22    1
    25     7    23    1
    26     8    24    1
    27     9    25    1
    28    13    26    1
    29    14    27    1
    30    15    28    1
@<TRIPOS>MOLECULE
mol37_2_6
 28 30 0 0 0
SMALL
USER_CHARGES
****
VDW energy = -56.30
@<TRIPOS>ATOM
   1 O1       -0.8664    -0.0734     0.0738  O.2     1  <O>11      -0.1499
   2 S1       -1.4140     0.8545     1.3380  S.O2    1  <O>11       0.0746
   3 O2       -0.1305     1.6300     2.0523  O.2     1  <O>11      -0.1499
   4 N1       -2.4890     1.9740     0.7740  N.pl3   1  <O>11      -0.2134
   5 C1       -3.7029     1.5430     0.1045  C.ar    1  <O>11       0.0832
   6 C2       -4.8756     1.3114     0.8412  C.ar    1  <O>11      -0.0365
   7 C3       -6.0418     0.8834     0.1958  C.ar    1  <O>11      -0.0598
   8 C4       -6.0490     0.6889    -1.1873  C.ar    1  <O>11      -0.0589
   9 C5       -4.8809     0.9258    -1.9210  C.ar    1  <O>11      -0.0246
  10 C6       -3.7138     1.3534    -1.2877  C.ar    1  <O>11       0.1456
  11 F1       -2.5731     1.5946    -2.0088  F       1  <O>11      -0.2035
  12 C7       -2.2090    -0.1770     2.5220  C.ar    1  <O>11       0.1392
  13 C8       -2.3490    -1.5753     2.3988  C.ar    1  <O>11      -0.0327
  14 C9       -3.0180    -2.3881     3.3542  C.ar    1  <O>11      -0.0577
  15 C10      -3.5992    -1.8751     4.5292  C.ar    1  <O>11      -0.0307
  16 C11      -3.4591    -0.4848     4.6889  C.ar    1  <O>11       0.1361
  17 N2       -3.8867     0.2987     5.6853  N.ar    1  <O>11      -0.0489
  18 O3       -3.4854     1.5829     5.3544  O.2     1  <O>11      -0.2415
  19 N3       -2.8098     1.6192     4.1457  N.ar    1  <O>11      -0.0469
  20 C12      -2.7751     0.3505     3.7106  C.ar    1  <O>11       0.1606
  21 H1       -2.3010     2.9697     0.8954  H       1  <O>11       0.1738
  22 H2       -4.8779     1.4573     1.8628  H       1  <O>11       0.0637
  23 H3       -6.8991     0.7111     0.7439  H       1  <O>11       0.0618
  24 H4       -6.9081     0.3732    -1.6640  H       1  <O>11       0.0618
  25 H5       -4.8831     0.7824    -2.9430  H       1  <O>11       0.0647
  26 H6       -1.9430    -2.0341     1.5683  H       1  <O>11       0.0638
  27 H7       -3.0806    -3.4031     3.1779  H       1  <O>11       0.0619
  28 H8       -4.0878    -2.4700     5.2166  H       1  <O>11       0.0640
@<TRIPOS>BOND
     1     1     2    2
     2     2     3    2
     3     2     4    1
     4     4     5    1
     5     5     6   ar
     6     6     7   ar
     7     7     8   ar
     8     8     9   ar
     9     9    10   ar
    10     5    10   ar
    11    10    11    1
    12     2    12    1
    13    12    13   ar
    14    13    14   ar
    15    14    15   ar
    16    15    16   ar
    17    16    17   ar
    18    17    18   ar
    19    18    19   ar
    20    19    20   ar
    21    12    20   ar
    22    16    20   ar
    23     4    21    1
    24     6    22    1
    25     7    23    1
    26     8    24    1
    27     9    25    1
    28    13    26    1
    29    14    27    1
    30    15    28    1
@<TRIPOS>MOLECULE
mol37_2_7
 28 30 0 0 0
SMALL
USER_CHARGES
****
VDW energy = -55.72
@<TRIPOS>ATOM
   1 O1       -0.8664    -0.0734     0.0738  O.2     1  <O>11      -0.1499
   2 S1       -1.4140     0.8545     1.3380  S.O2    1  <O>11       0.0746
   3 O2       -0.1305     1.6300     2.0523  O.2     1  <O>11      -0.1499
   4 N1       -2.4890     1.9740     0.7740  N.pl3   1  <O>11      -0.2134
   5 C1       -2.0710     2.9470    -0.2190  C.ar    1  <O>11       0.0832
   6 C2       -2.1949     2.6616    -1.5883  C.ar    1  <O>11      -0.0365
   7 C3       -1.7795     3.5957    -2.5445  C.ar    1  <O>11      -0.0598
   8 C4       -1.2435     4.8217    -2.1435  C.ar    1  <O>11      -0.0589
   9 C5       -1.1261     5.1071    -0.7783  C.ar    1  <O>11      -0.0246
  10 C6       -1.5380     4.1835     0.1826  C.ar    1  <O>11       0.1456
  11 F1       -1.4315     4.4683     1.5194  F       1  <O>11      -0.2035
  12 C7       -2.2090    -0.1770     2.5220  C.ar    1  <O>11       0.1392
  13 C8       -1.8037    -0.3107     3.8666  C.ar    1  <O>11      -0.0327
  14 C9       -2.4436    -1.1697     4.8014  C.ar    1  <O>11      -0.0577
  15 C10      -3.5578    -1.9665     4.4774  C.ar    1  <O>11      -0.0307
  16 C11      -3.9968    -1.8401     3.1471  C.ar    1  <O>11       0.1361
  17 N2       -5.0190    -2.4466     2.5333  N.ar    1  <O>11      -0.0489
  18 O3       -5.0164    -1.9677     1.2332  O.2     1  <O>11      -0.2415
  19 N3       -3.9898    -1.0633     1.0164  N.ar    1  <O>11      -0.0469
  20 C12      -3.3420    -0.9615     2.1869  C.ar    1  <O>11       0.1606
  21 H1       -3.4480     1.9830     1.1230  H       1  <O>11       0.1738
  22 H2       -2.5939     1.7593    -1.8910  H       1  <O>11       0.0637
  23 H3       -1.8695     3.3778    -3.5492  H       1  <O>11       0.0618
  24 H4       -0.9368     5.5109    -2.8476  H       1  <O>11       0.0618
  25 H5       -0.7300     6.0118    -0.4790  H       1  <O>11       0.0647
  26 H6       -0.9974     0.2463     4.1899  H       1  <O>11       0.0638
  27 H7       -2.0733    -1.2112     5.7638  H       1  <O>11       0.0619
  28 H8       -4.0149    -2.5918     5.1594  H       1  <O>11       0.0640
@<TRIPOS>BOND
     1     1     2    2
     2     2     3    2
     3     2     4    1
     4     4     5    1
     5     5     6   ar
     6     6     7   ar
     7     7     8   ar
     8     8     9   ar
     9     9    10   ar
    10     5    10   ar
    11    10    11    1
    12     2    12    1
    13    12    13   ar
    14    13    14   ar
    15    14    15   ar
    16    15    16   ar
    17    16    17   ar
    18    17    18   ar
    19    18    19   ar
    20    19    20   ar
    21    12    20   ar
    22    16    20   ar
    23     4    21    1
    24     6    22    1
    25     7    23    1
    26     8    24    1
    27     9    25    1
    28    13    26    1
    29    14    27    1
    30    15    28    1
@<TRIPOS>MOLECULE
mol37_2_8
 28 30 0 0 0
SMALL
USER_CHARGES
****
VDW energy = -55.15
@<TRIPOS>ATOM
   1 O1       -0.8664    -0.0734     0.0738  O.2     1  <O>11      -0.1499
   2 S1       -1.4140     0.8545     1.3380  S.O2    1  <O>11       0.0746
   3 O2       -0.1305     1.6300     2.0523  O.2     1  <O>11      -0.1499
   4 N1       -2.4890     1.9740     0.7740  N.pl3   1  <O>11      -0.2134
   5 C1       -3.7029     1.5430     0.1045  C.ar    1  <O>11       0.0832
   6 C2       -4.8756     1.3114     0.8412  C.ar    1  <O>11      -0.0365
   7 C3       -6.0418     0.8834     0.1958  C.ar    1  <O>11      -0.0598
   8 C4       -6.0490     0.6889    -1.1873  C.ar    1  <O>11      -0.0589
   9 C5       -4.8809     0.9258    -1.9210  C.ar    1  <O>11      -0.0246
  10 C6       -3.7138     1.3534    -1.2877  C.ar    1  <O>11       0.1456
  11 F1       -2.5731     1.5946    -2.0088  F       1  <O>11      -0.2035
  12 C7       -2.2090    -0.1770     2.5220  C.ar    1  <O>11       0.1392
  13 C8       -2.2555     0.0844     3.9075  C.ar    1  <O>11      -0.0327
  14 C9       -2.8806    -0.7753     4.8516  C.ar    1  <O>11      -0.0577
  15 C10      -3.5281    -1.9723     4.4923  C.ar    1  <O>11      -0.0307
  16 C11      -3.5144    -2.2504     3.1136  C.ar    1  <O>11       0.1361
  17 N2       -4.0403    -3.2898     2.4559  N.ar    1  <O>11      -0.0489
  18 O3       -3.7481    -3.0770     1.1184  O.2     1  <O>11      -0.2415
  19 N3       -3.0307    -1.9080     0.9245  N.ar    1  <O>11      -0.0469
  20 C12      -2.8733    -1.3718     2.1442  C.ar    1  <O>11       0.1606
  21 H1       -2.3010     2.9697     0.8954  H       1  <O>11       0.1738
  22 H2       -4.8779     1.4573     1.8628  H       1  <O>11       0.0637
  23 H3       -6.8991     0.7111     0.7439  H       1  <O>11       0.0618
  24 H4       -6.9081     0.3732    -1.6640  H       1  <O>11       0.0618
  25 H5       -4.8831     0.7824    -2.9430  H       1  <O>11       0.0647
  26 H6       -1.8106     0.9482     4.2553  H       1  <O>11       0.0638
  27 H7       -2.8585    -0.5088     5.8485  H       1  <O>11       0.0619
  28 H8       -3.9760    -2.5945     5.1832  H       1  <O>11       0.0640
@<TRIPOS>BOND
     1     1     2    2
     2     2     3    2
     3     2     4    1
     4     4     5    1
     5     5     6   ar
     6     6     7   ar
     7     7     8   ar
     8     8     9   ar
     9     9    10   ar
    10     5    10   ar
    11    10    11    1
    12     2    12    1
    13    12    13   ar
    14    13    14   ar
    15    14    15   ar
    16    15    16   ar
    17    16    17   ar
    18    17    18   ar
    19    18    19   ar
    20    19    20   ar
    21    12    20   ar
    22    16    20   ar
    23     4    21    1
    24     6    22    1
    25     7    23    1
    26     8    24    1
    27     9    25    1
    28    13    26    1
    29    14    27    1
    30    15    28    1
@<TRIPOS>MOLECULE
mol37_2_9
 28 30 0 0 0
SMALL
USER_CHARGES
****
VDW energy = -55.06
@<TRIPOS>ATOM
   1 O1       -0.8664    -0.0734     0.0738  O.2     1  <O>11      -0.1499
   2 S1       -1.4140     0.8545     1.3380  S.O2    1  <O>11       0.0746
   3 O2       -0.1305     1.6300     2.0523  O.2     1  <O>11      -0.1499
   4 N1       -2.4890     1.9740     0.7740  N.pl3   1  <O>11      -0.2134
   5 C1       -2.0711     2.9468    -0.2192  C.ar    1  <O>11       0.0832
   6 C2       -2.1952     2.6613    -1.5884  C.ar    1  <O>11      -0.0365
   7 C3       -1.7798     3.5952    -2.5448  C.ar    1  <O>11      -0.0598
   8 C4       -1.2437     4.8212    -2.1440  C.ar    1  <O>11      -0.0589
   9 C5       -1.1261     5.1068    -0.7789  C.ar    1  <O>11      -0.0246
  10 C6       -1.5380     4.1833     0.1822  C.ar    1  <O>11       0.1456
  11 F1       -1.4313     4.4683     1.5189  F       1  <O>11      -0.2035
  12 C7       -2.2090    -0.1770     2.5220  C.ar    1  <O>11       0.1392
  13 C8       -2.3490    -1.5753     2.3988  C.ar    1  <O>11      -0.0327
  14 C9       -3.0180    -2.3881     3.3542  C.ar    1  <O>11      -0.0577
  15 C10      -3.5992    -1.8751     4.5292  C.ar    1  <O>11      -0.0307
  16 C11      -3.4591    -0.4848     4.6889  C.ar    1  <O>11       0.1361
  17 N2       -3.8867     0.2987     5.6853  N.ar    1  <O>11      -0.0489
  18 O3       -3.4854     1.5829     5.3544  O.2     1  <O>11      -0.2415
  19 N3       -2.8098     1.6192     4.1457  N.ar    1  <O>11      -0.0469
  20 C12      -2.7751     0.3505     3.7106  C.ar    1  <O>11       0.1606
  21 H1       -3.4480     1.9831     1.1231  H       1  <O>11       0.1738
  22 H2       -2.5943     1.7590    -1.8910  H       1  <O>11       0.0637
  23 H3       -1.8700     3.3772    -3.5495  H       1  <O>11       0.0618
  24 H4       -0.9370     5.5103    -2.8483  H       1  <O>11       0.0618
  25 H5       -0.7299     6.0115    -0.4798  H       1  <O>11       0.0647
  26 H6       -1.9430    -2.0341     1.5683  H       1  <O>11       0.0638
  27 H7       -3.0806    -3.4031     3.1779  H       1  <O>11       0.0619
  28 H8       -4.0878    -2.4700     5.2166  H       1  <O>11       0.0640
@<TRIPOS>BOND
     1     1     2    2
     2     2     3    2
     3     2     4    1
     4     4     5    1
     5     5     6   ar
     6     6     7   ar
     7     7     8   ar
     8     8     9   ar
     9     9    10   ar
    10     5    10   ar
    11    10    11    1
    12     2    12    1
    13    12    13   ar
    14    13    14   ar
    15    14    15   ar
    16    15    16   ar
    17    16    17   ar
    18    17    18   ar
    19    18    19   ar
    20    19    20   ar
    21    12    20   ar
    22    16    20   ar
    23     4    21    1
    24     6    22    1
    25     7    23    1
    26     8    24    1
    27     9    25    1
    28    13    26    1
    29    14    27    1
    30    15    28    1
@<TRIPOS>MOLECULE
mol37_2_10
 28 30 0 0 0
SMALL
USER_CHARGES
****
VDW energy = -54.33
@<TRIPOS>ATOM
   1 O1       -0.8664    -0.0734     0.0738  O.2     1  <O>11      -0.1499
   2 S1       -1.4140     0.8545     1.3380  S.O2    1  <O>11       0.0746
   3 O2       -0.1305     1.6300     2.0523  O.2     1  <O>11      -0.1499
   4 N1       -2.4890     1.9740     0.7740  N.pl3   1  <O>11      -0.2134
   5 C1       -3.1122     2.9100     1.6921  C.ar    1  <O>11       0.0832
   6 C2       -4.3253     2.5864     2.3208  C.ar    1  <O>11      -0.0365
   7 C3       -4.9314     3.4953     3.1960  C.ar    1  <O>11      -0.0598
   8 C4       -4.3308     4.7295     3.4549  C.ar    1  <O>11      -0.0589
   9 C5       -3.1186     5.0483     2.8321  C.ar    1  <O>11      -0.0246
  10 C6       -2.5058     4.1491     1.9591  C.ar    1  <O>11       0.1456
  11 F1       -1.3135     4.4586     1.3572  F       1  <O>11      -0.2035
  12 C7       -2.2090    -0.1770     2.5220  C.ar    1  <O>11       0.1392
  13 C8       -2.2555     0.0844     3.9075  C.ar    1  <O>11      -0.0327
  14 C9       -2.8806    -0.7753     4.8516  C.ar    1  <O>11      -0.0577
  15 C10      -3.5281    -1.9723     4.4923  C.ar    1  <O>11      -0.0307
  16 C11      -3.5144    -2.2504     3.1136  C.ar    1  <O>11       0.1361
  17 N2       -4.0403    -3.2898     2.4559  N.ar    1  <O>11      -0.0489
  18 O3       -3.7481    -3.0770     1.1184  O.2     1  <O>11      -0.2415
  19 N3       -3.0307    -1.9080     0.9245  N.ar    1  <O>11      -0.0469
  20 C12      -2.8733    -1.3718     2.1442  C.ar    1  <O>11       0.1606
  21 H1       -2.7164     2.0088    -0.2203  H       1  <O>11       0.1738
  22 H2       -4.7720     1.6745     2.1369  H       1  <O>11       0.0637
  23 H3       -5.8251     3.2528     3.6514  H       1  <O>11       0.0618
  24 H4       -4.7769     5.4004     4.0997  H       1  <O>11       0.0618
  25 H5       -2.6727     5.9596     3.0210  H       1  <O>11       0.0647
  26 H6       -1.8106     0.9482     4.2553  H       1  <O>11       0.0638
  27 H7       -2.8585    -0.5088     5.8485  H       1  <O>11       0.0619
  28 H8       -3.9760    -2.5945     5.1832  H       1  <O>11       0.0640
@<TRIPOS>BOND
     1     1     2    2
     2     2     3    2
     3     2     4    1
     4     4     5    1
     5     5     6   ar
     6     6     7   ar
     7     7     8   ar
     8     8     9   ar
     9     9    10   ar
    10     5    10   ar
    11    10    11    1
    12     2    12    1
    13    12    13   ar
    14    13    14   ar
    15    14    15   ar
    16    15    16   ar
    17    16    17   ar
    18    17    18   ar
    19    18    19   ar
    20    19    20   ar
    21    12    20   ar
    22    16    20   ar
    23     4    21    1
    24     6    22    1
    25     7    23    1
    26     8    24    1
    27     9    25    1
    28    13    26    1
    29    14    27    1
    30    15    28    1
@<TRIPOS>MOLECULE
mol37_2_11
 28 30 0 0 0
SMALL
USER_CHARGES
****
VDW energy = -54.31
@<TRIPOS>ATOM
   1 O1       -0.8664    -0.0734     0.0738  O.2     1  <O>11      -0.1499
   2 S1       -1.4140     0.8545     1.3380  S.O2    1  <O>11       0.0746
   3 O2       -0.1305     1.6300     2.0523  O.2     1  <O>11      -0.1499
   4 N1       -2.4890     1.9740     0.7740  N.pl3   1  <O>11      -0.2134
   5 C1       -3.7029     1.5430     0.1045  C.ar    1  <O>11       0.0832
   6 C2       -4.8756     1.3114     0.8412  C.ar    1  <O>11      -0.0365
   7 C3       -6.0418     0.8834     0.1958  C.ar    1  <O>11      -0.0598
   8 C4       -6.0490     0.6889    -1.1873  C.ar    1  <O>11      -0.0589
   9 C5       -4.8809     0.9258    -1.9210  C.ar    1  <O>11      -0.0246
  10 C6       -3.7138     1.3534    -1.2877  C.ar    1  <O>11       0.1456
  11 F1       -2.5731     1.5946    -2.0088  F       1  <O>11      -0.2035
  12 C7       -2.2090    -0.1770     2.5220  C.ar    1  <O>11       0.1392
  13 C8       -2.8851    -1.3759     2.2126  C.ar    1  <O>11      -0.0327
  14 C9       -3.5439    -2.1821     3.1806  C.ar    1  <O>11      -0.0577
  15 C10      -3.5759    -1.8668     4.5521  C.ar    1  <O>11      -0.0307
  16 C11      -2.8935    -0.6854     4.8939  C.ar    1  <O>11       0.1361
  17 N2       -2.7328    -0.1198     6.0955  N.ar    1  <O>11      -0.0489
  18 O3       -1.9803     1.0228     5.8772  O.2     1  <O>11      -0.2415
  19 N3       -1.6682     1.1895     4.5379  N.ar    1  <O>11      -0.0469
  20 C12      -2.2187     0.1432     3.9036  C.ar    1  <O>11       0.1606
  21 H1       -2.3010     2.9697     0.8954  H       1  <O>11       0.1738
  22 H2       -4.8779     1.4573     1.8628  H       1  <O>11       0.0637
  23 H3       -6.8991     0.7111     0.7439  H       1  <O>11       0.0618
  24 H4       -6.9081     0.3732    -1.6640  H       1  <O>11       0.0618
  25 H5       -4.8831     0.7824    -2.9430  H       1  <O>11       0.0647
  26 H6       -2.9024    -1.6850     1.2282  H       1  <O>11       0.0638
  27 H7       -4.0216    -3.0398     2.8625  H       1  <O>11       0.0619
  28 H8       -4.0601    -2.4539     5.2492  H       1  <O>11       0.0640
@<TRIPOS>BOND
     1     1     2    2
     2     2     3    2
     3     2     4    1
     4     4     5    1
     5     5     6   ar
     6     6     7   ar
     7     7     8   ar
     8     8     9   ar
     9     9    10   ar
    10     5    10   ar
    11    10    11    1
    12     2    12    1
    13    12    13   ar
    14    13    14   ar
    15    14    15   ar
    16    15    16   ar
    17    16    17   ar
    18    17    18   ar
    19    18    19   ar
    20    19    20   ar
    21    12    20   ar
    22    16    20   ar
    23     4    21    1
    24     6    22    1
    25     7    23    1
    26     8    24    1
    27     9    25    1
    28    13    26    1
    29    14    27    1
    30    15    28    1
@<TRIPOS>MOLECULE
mol37_2_12
 28 30 0 0 0
SMALL
USER_CHARGES
****
VDW energy = -53.10
@<TRIPOS>ATOM
   1 O1       -0.8664    -0.0734     0.0738  O.2     1  <O>11      -0.1499
   2 S1       -1.4140     0.8545     1.3380  S.O2    1  <O>11       0.0746
   3 O2       -0.1305     1.6300     2.0523  O.2     1  <O>11      -0.1499
   4 N1       -2.4890     1.9740     0.7740  N.pl3   1  <O>11      -0.2134
   5 C1       -2.0711     2.9468    -0.2192  C.ar    1  <O>11       0.0832
   6 C2       -2.1952     2.6613    -1.5884  C.ar    1  <O>11      -0.0365
   7 C3       -1.7798     3.5952    -2.5448  C.ar    1  <O>11      -0.0598
   8 C4       -1.2437     4.8212    -2.1440  C.ar    1  <O>11      -0.0589
   9 C5       -1.1261     5.1068    -0.7789  C.ar    1  <O>11      -0.0246
  10 C6       -1.5380     4.1833     0.1822  C.ar    1  <O>11       0.1456
  11 F1       -1.4313     4.4683     1.5189  F       1  <O>11      -0.2035
  12 C7       -2.2090    -0.1770     2.5220  C.ar    1  <O>11       0.1392
  13 C8       -2.2555     0.0844     3.9075  C.ar    1  <O>11      -0.0327
  14 C9       -2.8806    -0.7753     4.8516  C.ar    1  <O>11      -0.0577
  15 C10      -3.5281    -1.9723     4.4923  C.ar    1  <O>11      -0.0307
  16 C11      -3.5144    -2.2504     3.1136  C.ar    1  <O>11       0.1361
  17 N2       -4.0403    -3.2898     2.4559  N.ar    1  <O>11      -0.0489
  18 O3       -3.7481    -3.0770     1.1184  O.2     1  <O>11      -0.2415
  19 N3       -3.0307    -1.9080     0.9245  N.ar    1  <O>11      -0.0469
  20 C12      -2.8733    -1.3718     2.1442  C.ar    1  <O>11       0.1606
  21 H1       -3.4480     1.9831     1.1231  H       1  <O>11       0.1738
  22 H2       -2.5943     1.7590    -1.8910  H       1  <O>11       0.0637
  23 H3       -1.8700     3.3772    -3.5495  H       1  <O>11       0.0618
  24 H4       -0.9370     5.5103    -2.8483  H       1  <O>11       0.0618
  25 H5       -0.7299     6.0115    -0.4798  H       1  <O>11       0.0647
  26 H6       -1.8106     0.9482     4.2553  H       1  <O>11       0.0638
  27 H7       -2.8585    -0.5088     5.8485  H       1  <O>11       0.0619
  28 H8       -3.9760    -2.5945     5.1832  H       1  <O>11       0.0640
@<TRIPOS>BOND
     1     1     2    2
     2     2     3    2
     3     2     4    1
     4     4     5    1
     5     5     6   ar
     6     6     7   ar
     7     7     8   ar
     8     8     9   ar
     9     9    10   ar
    10     5    10   ar
    11    10    11    1
    12     2    12    1
    13    12    13   ar
    14    13    14   ar
    15    14    15   ar
    16    15    16   ar
    17    16    17   ar
    18    17    18   ar
    19    18    19   ar
    20    19    20   ar
    21    12    20   ar
    22    16    20   ar
    23     4    21    1
    24     6    22    1
    25     7    23    1
    26     8    24    1
    27     9    25    1
    28    13    26    1
    29    14    27    1
    30    15    28    1
@<TRIPOS>MOLECULE
mol37_2_13
 28 30 0 0 0
SMALL
USER_CHARGES
****
VDW energy = -52.51
@<TRIPOS>ATOM
   1 O1       -0.8664    -0.0734     0.0738  O.2     1  <O>11      -0.1499
   2 S1       -1.4140     0.8545     1.3380  S.O2    1  <O>11       0.0746
   3 O2       -0.1305     1.6300     2.0523  O.2     1  <O>11      -0.1499
   4 N1       -2.4890     1.9740     0.7740  N.pl3   1  <O>11      -0.2134
   5 C1       -2.0710     2.9470    -0.2190  C.ar    1  <O>11       0.0832
   6 C2       -2.1949     2.6616    -1.5883  C.ar    1  <O>11      -0.0365
   7 C3       -1.7795     3.5957    -2.5445  C.ar    1  <O>11      -0.0598
   8 C4       -1.2435     4.8217    -2.1435  C.ar    1  <O>11      -0.0589
   9 C5       -1.1261     5.1071    -0.7783  C.ar    1  <O>11      -0.0246
  10 C6       -1.5380     4.1835     0.1826  C.ar    1  <O>11       0.1456
  11 F1       -1.4315     4.4683     1.5194  F       1  <O>11      -0.2035
  12 C7       -2.2090    -0.1770     2.5220  C.ar    1  <O>11       0.1392
  13 C8       -2.8851    -1.3759     2.2126  C.ar    1  <O>11      -0.0327
  14 C9       -3.5439    -2.1821     3.1806  C.ar    1  <O>11      -0.0577
  15 C10      -3.5759    -1.8668     4.5521  C.ar    1  <O>11      -0.0307
  16 C11      -2.8935    -0.6854     4.8939  C.ar    1  <O>11       0.1361
  17 N2       -2.7328    -0.1198     6.0955  N.ar    1  <O>11      -0.0489
  18 O3       -1.9803     1.0228     5.8772  O.2     1  <O>11      -0.2415
  19 N3       -1.6682     1.1895     4.5379  N.ar    1  <O>11      -0.0469
  20 C12      -2.2187     0.1432     3.9036  C.ar    1  <O>11       0.1606
  21 H1       -3.4480     1.9830     1.1230  H       1  <O>11       0.1738
  22 H2       -2.5939     1.7593    -1.8910  H       1  <O>11       0.0637
  23 H3       -1.8695     3.3778    -3.5492  H       1  <O>11       0.0618
  24 H4       -0.9368     5.5109    -2.8476  H       1  <O>11       0.0618
  25 H5       -0.7300     6.0118    -0.4790  H       1  <O>11       0.0647
  26 H6       -2.9024    -1.6850     1.2282  H       1  <O>11       0.0638
  27 H7       -4.0216    -3.0398     2.8625  H       1  <O>11       0.0619
  28 H8       -4.0601    -2.4539     5.2492  H       1  <O>11       0.0640
@<TRIPOS>BOND
     1     1     2    2
     2     2     3    2
     3     2     4    1
     4     4     5    1
     5     5     6   ar
     6     6     7   ar
     7     7     8   ar
     8     8     9   ar
     9     9    10   ar
    10     5    10   ar
    11    10    11    1
    12     2    12    1
    13    12    13   ar
    14    13    14   ar
    15    14    15   ar
    16    15    16   ar
    17    16    17   ar
    18    17    18   ar
    19    18    19   ar
    20    19    20   ar
    21    12    20   ar
    22    16    20   ar
    23     4    21    1
    24     6    22    1
    25     7    23    1
    26     8    24    1
    27     9    25    1
    28    13    26    1
    29    14    27    1
    30    15    28    1
@<TRIPOS>MOLECULE
mol37_2_14
 28 30 0 0 0
SMALL
USER_CHARGES
****
VDW energy = -52.44
@<TRIPOS>ATOM
   1 O1       -0.8664    -0.0734     0.0738  O.2     1  <O>11      -0.1499
   2 S1       -1.4140     0.8545     1.3380  S.O2    1  <O>11       0.0746
   3 O2       -0.1305     1.6300     2.0523  O.2     1  <O>11      -0.1499
   4 N1       -2.4890     1.9740     0.7740  N.pl3   1  <O>11      -0.2134
   5 C1       -2.0710     2.9470    -0.2190  C.ar    1  <O>11       0.0832
   6 C2       -2.6223     2.9248    -1.5102  C.ar    1  <O>11      -0.0365
   7 C3       -2.2087     3.8557    -2.4705  C.ar    1  <O>11      -0.0598
   8 C4       -1.2482     4.8176    -2.1494  C.ar    1  <O>11      -0.0589
   9 C5       -0.7040     4.8421    -0.8602  C.ar    1  <O>11      -0.0246
  10 C6       -1.1099     3.9196     0.1043  C.ar    1  <O>11       0.1456
  11 F1       -0.5832     3.9510     1.3696  F       1  <O>11      -0.2035
  12 C7       -2.2090    -0.1770     2.5220  C.ar    1  <O>11       0.1392
  13 C8       -1.8037    -0.3107     3.8666  C.ar    1  <O>11      -0.0327
  14 C9       -2.4436    -1.1697     4.8014  C.ar    1  <O>11      -0.0577
  15 C10      -3.5578    -1.9665     4.4774  C.ar    1  <O>11      -0.0307
  16 C11      -3.9968    -1.8401     3.1471  C.ar    1  <O>11       0.1361
  17 N2       -5.0190    -2.4466     2.5333  N.ar    1  <O>11      -0.0489
  18 O3       -5.0164    -1.9677     1.2332  O.2     1  <O>11      -0.2415
  19 N3       -3.9898    -1.0633     1.0164  N.ar    1  <O>11      -0.0469
  20 C12      -3.3420    -0.9615     2.1869  C.ar    1  <O>11       0.1606
  21 H1       -3.4480     1.9830     1.1230  H       1  <O>11       0.1738
  22 H2       -3.3354     2.2193    -1.7524  H       1  <O>11       0.0637
  23 H3       -2.6150     3.8311    -3.4188  H       1  <O>11       0.0618
  24 H4       -0.9425     5.5042    -2.8566  H       1  <O>11       0.0618
  25 H5        0.0063     5.5513    -0.6202  H       1  <O>11       0.0647
  26 H6       -0.9974     0.2463     4.1899  H       1  <O>11       0.0638
  27 H7       -2.0733    -1.2112     5.7638  H       1  <O>11       0.0619
  28 H8       -4.0149    -2.5918     5.1594  H       1  <O>11       0.0640
@<TRIPOS>BOND
     1     1     2    2
     2     2     3    2
     3     2     4    1
     4     4     5    1
     5     5     6   ar
     6     6     7   ar
     7     7     8   ar
     8     8     9   ar
     9     9    10   ar
    10     5    10   ar
    11    10    11    1
    12     2    12    1
    13    12    13   ar
    14    13    14   ar
    15    14    15   ar
    16    15    16   ar
    17    16    17   ar
    18    17    18   ar
    19    18    19   ar
    20    19    20   ar
    21    12    20   ar
    22    16    20   ar
    23     4    21    1
    24     6    22    1
    25     7    23    1
    26     8    24    1
    27     9    25    1
    28    13    26    1
    29    14    27    1
    30    15    28    1
@<TRIPOS>MOLECULE
mol37_2_15
 28 30 0 0 0
SMALL
USER_CHARGES
****
VDW energy = -51.74
@<TRIPOS>ATOM
   1 O1       -0.8664    -0.0734     0.0738  O.2     1  <O>11      -0.1499
   2 S1       -1.4140     0.8545     1.3380  S.O2    1  <O>11       0.0746
   3 O2       -0.1305     1.6300     2.0523  O.2     1  <O>11      -0.1499
   4 N1       -2.4890     1.9740     0.7740  N.pl3   1  <O>11      -0.2134
   5 C1       -2.0710     2.9470    -0.2190  C.ar    1  <O>11       0.0832
   6 C2       -1.5384     4.1836     0.1795  C.ar    1  <O>11      -0.0365
   7 C3       -1.1478     5.1259    -0.7793  C.ar    1  <O>11      -0.0598
   8 C4       -1.2797     4.8406    -2.1402  C.ar    1  <O>11      -0.0589
   9 C5       -1.8052     3.6052    -2.5358  C.ar    1  <O>11      -0.0246
  10 C6       -2.1966     2.6589    -1.5885  C.ar    1  <O>11       0.1456
  11 F1       -2.7020     1.4453    -1.9774  F       1  <O>11      -0.2035
  12 C7       -2.2090    -0.1770     2.5220  C.ar    1  <O>11       0.1392
  13 C8       -3.5580    -0.0510     2.9150  C.ar    1  <O>11      -0.0327
  14 C9       -4.1750    -0.8780     3.8930  C.ar    1  <O>11      -0.0577
  15 C10      -3.4990    -1.9170     4.5600  C.ar    1  <O>11      -0.0307
  16 C11      -2.1560    -2.0790     4.1750  C.ar    1  <O>11       0.1361
  17 N2       -1.2540    -2.9670     4.6080  N.ar    1  <O>11      -0.0489
  18 O3       -0.0910    -2.6970     3.9050  O.2     1  <O>11      -0.2415
  19 N3       -0.2490    -1.6340     3.0310  N.ar    1  <O>11      -0.0469
  20 C12      -1.5210    -1.2320     3.1740  C.ar    1  <O>11       0.1606
  21 H1       -3.4480     1.9830     1.1230  H       1  <O>11       0.1738
  22 H2       -1.4346     4.3989     1.1834  H       1  <O>11       0.0637
  23 H3       -0.7610     6.0345    -0.4794  H       1  <O>11       0.0618
  24 H4       -0.9922     5.5346    -2.8478  H       1  <O>11       0.0618
  25 H5       -1.9043     3.3917    -3.5406  H       1  <O>11       0.0647
  26 H6       -4.1291     0.6828     2.4674  H       1  <O>11       0.0638
  27 H7       -5.1662    -0.7084     4.1251  H       1  <O>11       0.0619
  28 H8       -3.9514    -2.5108     5.2726  H       1  <O>11       0.0640
@<TRIPOS>BOND
     1     1     2    2
     2     2     3    2
     3     2     4    1
     4     4     5    1
     5     5     6   ar
     6     6     7   ar
     7     7     8   ar
     8     8     9   ar
     9     9    10   ar
    10     5    10   ar
    11    10    11    1
    12     2    12    1
    13    12    13   ar
    14    13    14   ar
    15    14    15   ar
    16    15    16   ar
    17    16    17   ar
    18    17    18   ar
    19    18    19   ar
    20    19    20   ar
    21    12    20   ar
    22    16    20   ar
    23     4    21    1
    24     6    22    1
    25     7    23    1
    26     8    24    1
    27     9    25    1
    28    13    26    1
    29    14    27    1
    30    15    28    1
@<TRIPOS>MOLECULE
mol37_2_16
 28 30 0 0 0
SMALL
USER_CHARGES
****
VDW energy = -51.33
@<TRIPOS>ATOM
   1 O1       -0.8664    -0.0734     0.0738  O.2     1  <O>11      -0.1499
   2 S1       -1.4140     0.8545     1.3380  S.O2    1  <O>11       0.0746
   3 O2       -0.1305     1.6300     2.0523  O.2     1  <O>11      -0.1499
   4 N1       -2.4890     1.9740     0.7740  N.pl3   1  <O>11      -0.2134
   5 C1       -3.7029     1.5430     0.1045  C.ar    1  <O>11       0.0832
   6 C2       -4.9582     1.7874     0.6843  C.ar    1  <O>11      -0.0365
   7 C3       -6.1270     1.3598     0.0437  C.ar    1  <O>11      -0.0598
   8 C4       -6.0537     0.6913    -1.1805  C.ar    1  <O>11      -0.0589
   9 C5       -4.8020     0.4536    -1.7601  C.ar    1  <O>11      -0.0246
  10 C6       -3.6312     0.8765    -1.1304  C.ar    1  <O>11       0.1456
  11 F1       -2.4065     0.6517    -1.7039  F       1  <O>11      -0.2035
  12 C7       -2.2090    -0.1770     2.5220  C.ar    1  <O>11       0.1392
  13 C8       -2.2555     0.0844     3.9075  C.ar    1  <O>11      -0.0327
  14 C9       -2.8806    -0.7753     4.8516  C.ar    1  <O>11      -0.0577
  15 C10      -3.5281    -1.9723     4.4923  C.ar    1  <O>11      -0.0307
  16 C11      -3.5144    -2.2504     3.1136  C.ar    1  <O>11       0.1361
  17 N2       -4.0403    -3.2898     2.4559  N.ar    1  <O>11      -0.0489
  18 O3       -3.7481    -3.0770     1.1184  O.2     1  <O>11      -0.2415
  19 N3       -3.0307    -1.9080     0.9245  N.ar    1  <O>11      -0.0469
  20 C12      -2.8733    -1.3718     2.1442  C.ar    1  <O>11       0.1606
  21 H1       -2.3010     2.9697     0.8954  H       1  <O>11       0.1738
  22 H2       -5.0193     2.2845     1.5866  H       1  <O>11       0.0637
  23 H3       -7.0461     1.5390     0.4775  H       1  <O>11       0.0618
  24 H4       -6.9147     0.3755    -1.6535  H       1  <O>11       0.0618
  25 H5       -4.7446    -0.0405    -2.6643  H       1  <O>11       0.0647
  26 H6       -1.8106     0.9482     4.2553  H       1  <O>11       0.0638
  27 H7       -2.8585    -0.5088     5.8485  H       1  <O>11       0.0619
  28 H8       -3.9760    -2.5945     5.1832  H       1  <O>11       0.0640
@<TRIPOS>BOND
     1     1     2    2
     2     2     3    2
     3     2     4    1
     4     4     5    1
     5     5     6   ar
     6     6     7   ar
     7     7     8   ar
     8     8     9   ar
     9     9    10   ar
    10     5    10   ar
    11    10    11    1
    12     2    12    1
    13    12    13   ar
    14    13    14   ar
    15    14    15   ar
    16    15    16   ar
    17    16    17   ar
    18    17    18   ar
    19    18    19   ar
    20    19    20   ar
    21    12    20   ar
    22    16    20   ar
    23     4    21    1
    24     6    22    1
    25     7    23    1
    26     8    24    1
    27     9    25    1
    28    13    26    1
    29    14    27    1
    30    15    28    1
@<TRIPOS>MOLECULE
mol37_2_17
 28 30 0 0 0
SMALL
USER_CHARGES
****
VDW energy = -50.95
@<TRIPOS>ATOM
   1 O1       -0.8664    -0.0734     0.0738  O.2     1  <O>11      -0.1499
   2 S1       -1.4140     0.8545     1.3380  S.O2    1  <O>11       0.0746
   3 O2       -0.1305     1.6300     2.0523  O.2     1  <O>11      -0.1499
   4 N1       -2.4890     1.9740     0.7740  N.pl3   1  <O>11      -0.2134
   5 C1       -3.7029     1.5430     0.1045  C.ar    1  <O>11       0.0832
   6 C2       -4.9582     1.7874     0.6843  C.ar    1  <O>11      -0.0365
   7 C3       -6.1270     1.3598     0.0437  C.ar    1  <O>11      -0.0598
   8 C4       -6.0537     0.6913    -1.1805  C.ar    1  <O>11      -0.0589
   9 C5       -4.8020     0.4536    -1.7601  C.ar    1  <O>11      -0.0246
  10 C6       -3.6312     0.8765    -1.1304  C.ar    1  <O>11       0.1456
  11 F1       -2.4065     0.6517    -1.7039  F       1  <O>11      -0.2035
  12 C7       -2.2090    -0.1770     2.5220  C.ar    1  <O>11       0.1392
  13 C8       -2.8851    -1.3759     2.2126  C.ar    1  <O>11      -0.0327
  14 C9       -3.5439    -2.1821     3.1806  C.ar    1  <O>11      -0.0577
  15 C10      -3.5759    -1.8668     4.5521  C.ar    1  <O>11      -0.0307
  16 C11      -2.8935    -0.6854     4.8939  C.ar    1  <O>11       0.1361
  17 N2       -2.7328    -0.1198     6.0955  N.ar    1  <O>11      -0.0489
  18 O3       -1.9803     1.0228     5.8772  O.2     1  <O>11      -0.2415
  19 N3       -1.6682     1.1895     4.5379  N.ar    1  <O>11      -0.0469
  20 C12      -2.2187     0.1432     3.9036  C.ar    1  <O>11       0.1606
  21 H1       -2.3010     2.9697     0.8954  H       1  <O>11       0.1738
  22 H2       -5.0193     2.2845     1.5866  H       1  <O>11       0.0637
  23 H3       -7.0461     1.5390     0.4775  H       1  <O>11       0.0618
  24 H4       -6.9147     0.3755    -1.6535  H       1  <O>11       0.0618
  25 H5       -4.7446    -0.0405    -2.6643  H       1  <O>11       0.0647
  26 H6       -2.9024    -1.6850     1.2282  H       1  <O>11       0.0638
  27 H7       -4.0216    -3.0398     2.8625  H       1  <O>11       0.0619
  28 H8       -4.0601    -2.4539     5.2492  H       1  <O>11       0.0640
@<TRIPOS>BOND
     1     1     2    2
     2     2     3    2
     3     2     4    1
     4     4     5    1
     5     5     6   ar
     6     6     7   ar
     7     7     8   ar
     8     8     9   ar
     9     9    10   ar
    10     5    10   ar
    11    10    11    1
    12     2    12    1
    13    12    13   ar
    14    13    14   ar
    15    14    15   ar
    16    15    16   ar
    17    16    17   ar
    18    17    18   ar
    19    18    19   ar
    20    19    20   ar
    21    12    20   ar
    22    16    20   ar
    23     4    21    1
    24     6    22    1
    25     7    23    1
    26     8    24    1
    27     9    25    1
    28    13    26    1
    29    14    27    1
    30    15    28    1
@<TRIPOS>MOLECULE
mol37_2_18
 28 30 0 0 0
SMALL
USER_CHARGES
****
VDW energy = -50.77
@<TRIPOS>ATOM
   1 O1       -0.8664    -0.0734     0.0738  O.2     1  <O>11      -0.1499
   2 S1       -1.4140     0.8545     1.3380  S.O2    1  <O>11       0.0746
   3 O2       -0.1305     1.6300     2.0523  O.2     1  <O>11      -0.1499
   4 N1       -2.4890     1.9740     0.7740  N.pl3   1  <O>11      -0.2134
   5 C1       -2.0710     2.9470    -0.2190  C.ar    1  <O>11       0.0832
   6 C2       -0.7537     2.9436    -0.7053  C.ar    1  <O>11      -0.0365
   7 C3       -0.3487     3.8906    -1.6533  C.ar    1  <O>11      -0.0598
   8 C4       -1.2540     4.8430    -2.1270  C.ar    1  <O>11      -0.0589
   9 C5       -2.5683     4.8414    -1.6457  C.ar    1  <O>11      -0.0246
  10 C6       -2.9823     3.9014    -0.7017  C.ar    1  <O>11       0.1456
  11 F1       -4.2725     3.8948    -0.2384  F       1  <O>11      -0.2035
  12 C7       -2.2090    -0.1770     2.5220  C.ar    1  <O>11       0.1392
  13 C8       -1.8037    -0.3107     3.8666  C.ar    1  <O>11      -0.0327
  14 C9       -2.4436    -1.1697     4.8014  C.ar    1  <O>11      -0.0577
  15 C10      -3.5578    -1.9665     4.4774  C.ar    1  <O>11      -0.0307
  16 C11      -3.9968    -1.8401     3.1471  C.ar    1  <O>11       0.1361
  17 N2       -5.0190    -2.4466     2.5333  N.ar    1  <O>11      -0.0489
  18 O3       -5.0164    -1.9677     1.2332  O.2     1  <O>11      -0.2415
  19 N3       -3.9898    -1.0633     1.0164  N.ar    1  <O>11      -0.0469
  20 C12      -3.3420    -0.9615     2.1869  C.ar    1  <O>11       0.1606
  21 H1       -3.4480     1.9830     1.1230  H       1  <O>11       0.1738
  22 H2       -0.0812     2.2400    -0.3623  H       1  <O>11       0.0637
  23 H3        0.6221     3.8851    -2.0033  H       1  <O>11       0.0618
  24 H4       -0.9564     5.5417    -2.8257  H       1  <O>11       0.0618
  25 H5       -3.2393     5.5441    -1.9935  H       1  <O>11       0.0647
  26 H6       -0.9974     0.2463     4.1899  H       1  <O>11       0.0638
  27 H7       -2.0733    -1.2112     5.7638  H       1  <O>11       0.0619
  28 H8       -4.0149    -2.5918     5.1594  H       1  <O>11       0.0640
@<TRIPOS>BOND
     1     1     2    2
     2     2     3    2
     3     2     4    1
     4     4     5    1
     5     5     6   ar
     6     6     7   ar
     7     7     8   ar
     8     8     9   ar
     9     9    10   ar
    10     5    10   ar
    11    10    11    1
    12     2    12    1
    13    12    13   ar
    14    13    14   ar
    15    14    15   ar
    16    15    16   ar
    17    16    17   ar
    18    17    18   ar
    19    18    19   ar
    20    19    20   ar
    21    12    20   ar
    22    16    20   ar
    23     4    21    1
    24     6    22    1
    25     7    23    1
    26     8    24    1
    27     9    25    1
    28    13    26    1
    29    14    27    1
    30    15    28    1
@<TRIPOS>MOLECULE
mol37_2_19
 28 30 0 0 0
SMALL
USER_CHARGES
****
VDW energy = -50.63
@<TRIPOS>ATOM
   1 O1       -0.8664    -0.0734     0.0738  O.2     1  <O>11      -0.1499
   2 S1       -1.4140     0.8545     1.3380  S.O2    1  <O>11       0.0746
   3 O2       -0.1305     1.6300     2.0523  O.2     1  <O>11      -0.1499
   4 N1       -2.4890     1.9740     0.7740  N.pl3   1  <O>11      -0.2134
   5 C1       -3.7029     1.5430     0.1045  C.ar    1  <O>11       0.0832
   6 C2       -3.9012     1.8255    -1.2566  C.ar    1  <O>11      -0.0365
   7 C3       -5.0780     1.4204    -1.8975  C.ar    1  <O>11      -0.0598
   8 C4       -6.0617     0.7268    -1.1888  C.ar    1  <O>11      -0.0589
   9 C5       -5.8599     0.4408     0.1663  C.ar    1  <O>11      -0.0246
  10 C6       -4.6904     0.8391     0.8141  C.ar    1  <O>11       0.1456
  11 F1       -4.4898     0.5497     2.1391  F       1  <O>11      -0.2035
  12 C7       -2.2090    -0.1770     2.5220  C.ar    1  <O>11       0.1392
  13 C8       -2.3490    -1.5753     2.3988  C.ar    1  <O>11      -0.0327
  14 C9       -3.0180    -2.3881     3.3542  C.ar    1  <O>11      -0.0577
  15 C10      -3.5992    -1.8751     4.5292  C.ar    1  <O>11      -0.0307
  16 C11      -3.4591    -0.4848     4.6889  C.ar    1  <O>11       0.1361
  17 N2       -3.8867     0.2987     5.6853  N.ar    1  <O>11      -0.0489
  18 O3       -3.4854     1.5829     5.3544  O.2     1  <O>11      -0.2415
  19 N3       -2.8098     1.6192     4.1457  N.ar    1  <O>11      -0.0469
  20 C12      -2.7751     0.3505     3.7106  C.ar    1  <O>11       0.1606
  21 H1       -2.3010     2.9697     0.8954  H       1  <O>11       0.1738
  22 H2       -3.1764     2.3340    -1.7867  H       1  <O>11       0.0637
  23 H3       -5.2191     1.6351    -2.8970  H       1  <O>11       0.0618
  24 H4       -6.9296     0.4279    -1.6603  H       1  <O>11       0.0618
  25 H5       -6.5851    -0.0711     0.6926  H       1  <O>11       0.0647
  26 H6       -1.9430    -2.0341     1.5683  H       1  <O>11       0.0638
  27 H7       -3.0806    -3.4031     3.1779  H       1  <O>11       0.0619
  28 H8       -4.0878    -2.4700     5.2166  H       1  <O>11       0.0640
@<TRIPOS>BOND
     1     1     2    2
     2     2     3    2
     3     2     4    1
     4     4     5    1
     5     5     6   ar
     6     6     7   ar
     7     7     8   ar
     8     8     9   ar
     9     9    10   ar
    10     5    10   ar
    11    10    11    1
    12     2    12    1
    13    12    13   ar
    14    13    14   ar
    15    14    15   ar
    16    15    16   ar
    17    16    17   ar
    18    17    18   ar
    19    18    19   ar
    20    19    20   ar
    21    12    20   ar
    22    16    20   ar
    23     4    21    1
    24     6    22    1
    25     7    23    1
    26     8    24    1
    27     9    25    1
    28    13    26    1
    29    14    27    1
    30    15    28    1
@<TRIPOS>MOLECULE
mol37_2_20
 28 30 0 0 0
SMALL
USER_CHARGES
****
VDW energy = -50.30
@<TRIPOS>ATOM
   1 O1       -0.8664    -0.0734     0.0738  O.2     1  <O>11      -0.1499
   2 S1       -1.4140     0.8545     1.3380  S.O2    1  <O>11       0.0746
   3 O2       -0.1305     1.6300     2.0523  O.2     1  <O>11      -0.1499
   4 N1       -2.4890     1.9740     0.7740  N.pl3   1  <O>11      -0.2134
   5 C1       -3.7029     1.5430     0.1045  C.ar    1  <O>11       0.0832
   6 C2       -3.9707     0.1755    -0.0682  C.ar    1  <O>11      -0.0365
   7 C3       -5.1354    -0.2383    -0.7253  C.ar    1  <O>11      -0.0598
   8 C4       -6.0431     0.7065    -1.2095  C.ar    1  <O>11      -0.0589
   9 C5       -5.7776     2.0692    -1.0313  C.ar    1  <O>11      -0.0246
  10 C6       -4.6204     2.4920    -0.3770  C.ar    1  <O>11       0.1456
  11 F1       -4.3664     3.8268    -0.1945  F       1  <O>11      -0.2035
  12 C7       -2.2090    -0.1770     2.5220  C.ar    1  <O>11       0.1392
  13 C8       -2.3490    -1.5753     2.3988  C.ar    1  <O>11      -0.0327
  14 C9       -3.0180    -2.3881     3.3542  C.ar    1  <O>11      -0.0577
  15 C10      -3.5992    -1.8751     4.5292  C.ar    1  <O>11      -0.0307
  16 C11      -3.4591    -0.4848     4.6889  C.ar    1  <O>11       0.1361
  17 N2       -3.8867     0.2987     5.6853  N.ar    1  <O>11      -0.0489
  18 O3       -3.4854     1.5829     5.3544  O.2     1  <O>11      -0.2415
  19 N3       -2.8098     1.6192     4.1457  N.ar    1  <O>11      -0.0469
  20 C12      -2.7751     0.3505     3.7106  C.ar    1  <O>11       0.1606
  21 H1       -2.3010     2.9697     0.8954  H       1  <O>11       0.1738
  22 H2       -3.3061    -0.5277     0.2908  H       1  <O>11       0.0637
  23 H3       -5.3241    -1.2449    -0.8526  H       1  <O>11       0.0618
  24 H4       -6.9019     0.4026    -1.6942  H       1  <O>11       0.0618
  25 H5       -6.4461     2.7696    -1.3884  H       1  <O>11       0.0647
  26 H6       -1.9430    -2.0341     1.5683  H       1  <O>11       0.0638
  27 H7       -3.0806    -3.4031     3.1779  H       1  <O>11       0.0619
  28 H8       -4.0878    -2.4700     5.2166  H       1  <O>11       0.0640
@<TRIPOS>BOND
     1     1     2    2
     2     2     3    2
     3     2     4    1
     4     4     5    1
     5     5     6   ar
     6     6     7   ar
     7     7     8   ar
     8     8     9   ar
     9     9    10   ar
    10     5    10   ar
    11    10    11    1
    12     2    12    1
    13    12    13   ar
    14    13    14   ar
    15    14    15   ar
    16    15    16   ar
    17    16    17   ar
    18    17    18   ar
    19    18    19   ar
    20    19    20   ar
    21    12    20   ar
    22    16    20   ar
    23     4    21    1
    24     6    22    1
    25     7    23    1
    26     8    24    1
    27     9    25    1
    28    13    26    1
    29    14    27    1
    30    15    28    1
@<TRIPOS>MOLECULE
mol37_2_21
 28 30 0 0 0
SMALL
USER_CHARGES
****
VDW energy = -49.82
@<TRIPOS>ATOM
   1 O1       -0.8664    -0.0734     0.0738  O.2     1  <O>11      -0.1499
   2 S1       -1.4140     0.8545     1.3380  S.O2    1  <O>11       0.0746
   3 O2       -0.1305     1.6300     2.0523  O.2     1  <O>11      -0.1499
   4 N1       -2.4890     1.9740     0.7740  N.pl3   1  <O>11      -0.2134
   5 C1       -2.0710     2.9470    -0.2190  C.ar    1  <O>11       0.0832
   6 C2       -2.6223     2.9248    -1.5102  C.ar    1  <O>11      -0.0365
   7 C3       -2.2087     3.8557    -2.4705  C.ar    1  <O>11      -0.0598
   8 C4       -1.2482     4.8176    -2.1494  C.ar    1  <O>11      -0.0589
   9 C5       -0.7040     4.8421    -0.8602  C.ar    1  <O>11      -0.0246
  10 C6       -1.1099     3.9196     0.1043  C.ar    1  <O>11       0.1456
  11 F1       -0.5832     3.9510     1.3696  F       1  <O>11      -0.2035
  12 C7       -2.2090    -0.1770     2.5220  C.ar    1  <O>11       0.1392
  13 C8       -2.2555     0.0844     3.9075  C.ar    1  <O>11      -0.0327
  14 C9       -2.8806    -0.7753     4.8516  C.ar    1  <O>11      -0.0577
  15 C10      -3.5281    -1.9723     4.4923  C.ar    1  <O>11      -0.0307
  16 C11      -3.5144    -2.2504     3.1136  C.ar    1  <O>11       0.1361
  17 N2       -4.0403    -3.2898     2.4559  N.ar    1  <O>11      -0.0489
  18 O3       -3.7481    -3.0770     1.1184  O.2     1  <O>11      -0.2415
  19 N3       -3.0307    -1.9080     0.9245  N.ar    1  <O>11      -0.0469
  20 C12      -2.8733    -1.3718     2.1442  C.ar    1  <O>11       0.1606
  21 H1       -3.4480     1.9830     1.1230  H       1  <O>11       0.1738
  22 H2       -3.3354     2.2193    -1.7524  H       1  <O>11       0.0637
  23 H3       -2.6150     3.8311    -3.4188  H       1  <O>11       0.0618
  24 H4       -0.9425     5.5042    -2.8566  H       1  <O>11       0.0618
  25 H5        0.0063     5.5513    -0.6202  H       1  <O>11       0.0647
  26 H6       -1.8106     0.9482     4.2553  H       1  <O>11       0.0638
  27 H7       -2.8585    -0.5088     5.8485  H       1  <O>11       0.0619
  28 H8       -3.9760    -2.5945     5.1832  H       1  <O>11       0.0640
@<TRIPOS>BOND
     1     1     2    2
     2     2     3    2
     3     2     4    1
     4     4     5    1
     5     5     6   ar
     6     6     7   ar
     7     7     8   ar
     8     8     9   ar
     9     9    10   ar
    10     5    10   ar
    11    10    11    1
    12     2    12    1
    13    12    13   ar
    14    13    14   ar
    15    14    15   ar
    16    15    16   ar
    17    16    17   ar
    18    17    18   ar
    19    18    19   ar
    20    19    20   ar
    21    12    20   ar
    22    16    20   ar
    23     4    21    1
    24     6    22    1
    25     7    23    1
    26     8    24    1
    27     9    25    1
    28    13    26    1
    29    14    27    1
    30    15    28    1
@<TRIPOS>MOLECULE
mol37_2_22
 28 30 0 0 0
SMALL
USER_CHARGES
****
VDW energy = -49.51
@<TRIPOS>ATOM
   1 O1       -0.8664    -0.0734     0.0738  O.2     1  <O>11      -0.1499
   2 S1       -1.4140     0.8545     1.3380  S.O2    1  <O>11       0.0746
   3 O2       -0.1305     1.6300     2.0523  O.2     1  <O>11      -0.1499
   4 N1       -2.4890     1.9740     0.7740  N.pl3   1  <O>11      -0.2134
   5 C1       -2.0710     2.9470    -0.2190  C.ar    1  <O>11       0.0832
   6 C2       -2.0235     4.3131     0.1021  C.ar    1  <O>11      -0.0365
   7 C3       -1.6326     5.2514    -0.8603  C.ar    1  <O>11      -0.0598
   8 C4       -1.2812     4.8349    -2.1464  C.ar    1  <O>11      -0.0589
   9 C5       -1.3234     3.4722    -2.4633  C.ar    1  <O>11      -0.0246
  10 C6       -1.7106     2.5290    -1.5111  C.ar    1  <O>11       0.1456
  11 F1       -1.7420     1.1937    -1.8199  F       1  <O>11      -0.2035
  12 C7       -2.2090    -0.1770     2.5220  C.ar    1  <O>11       0.1392
  13 C8       -2.8851    -1.3759     2.2126  C.ar    1  <O>11      -0.0327
  14 C9       -3.5439    -2.1821     3.1806  C.ar    1  <O>11      -0.0577
  15 C10      -3.5759    -1.8668     4.5521  C.ar    1  <O>11      -0.0307
  16 C11      -2.8935    -0.6854     4.8939  C.ar    1  <O>11       0.1361
  17 N2       -2.7328    -0.1198     6.0955  N.ar    1  <O>11      -0.0489
  18 O3       -1.9803     1.0228     5.8772  O.2     1  <O>11      -0.2415
  19 N3       -1.6682     1.1895     4.5379  N.ar    1  <O>11      -0.0469
  20 C12      -2.2187     0.1432     3.9036  C.ar    1  <O>11       0.1606
  21 H1       -3.4480     1.9830     1.1230  H       1  <O>11       0.1738
  22 H2       -2.2779     4.6269     1.0518  H       1  <O>11       0.0637
  23 H3       -1.6039     6.2543    -0.6188  H       1  <O>11       0.0618
  24 H4       -0.9930     5.5257    -2.8568  H       1  <O>11       0.0618
  25 H5       -1.0648     3.1615    -3.4128  H       1  <O>11       0.0647
  26 H6       -2.9024    -1.6850     1.2282  H       1  <O>11       0.0638
  27 H7       -4.0216    -3.0398     2.8625  H       1  <O>11       0.0619
  28 H8       -4.0601    -2.4539     5.2492  H       1  <O>11       0.0640
@<TRIPOS>BOND
     1     1     2    2
     2     2     3    2
     3     2     4    1
     4     4     5    1
     5     5     6   ar
     6     6     7   ar
     7     7     8   ar
     8     8     9   ar
     9     9    10   ar
    10     5    10   ar
    11    10    11    1
    12     2    12    1
    13    12    13   ar
    14    13    14   ar
    15    14    15   ar
    16    15    16   ar
    17    16    17   ar
    18    17    18   ar
    19    18    19   ar
    20    19    20   ar
    21    12    20   ar
    22    16    20   ar
    23     4    21    1
    24     6    22    1
    25     7    23    1
    26     8    24    1
    27     9    25    1
    28    13    26    1
    29    14    27    1
    30    15    28    1
@<TRIPOS>MOLECULE
mol37_2_23
 28 30 0 0 0
SMALL
USER_CHARGES
****
VDW energy = -49.17
@<TRIPOS>ATOM
   1 O1       -0.8664    -0.0734     0.0738  O.2     1  <O>11      -0.1499
   2 S1       -1.4140     0.8545     1.3380  S.O2    1  <O>11       0.0746
   3 O2       -0.1305     1.6300     2.0523  O.2     1  <O>11      -0.1499
   4 N1       -2.4890     1.9740     0.7740  N.pl3   1  <O>11      -0.2134
   5 C1       -2.0710     2.9470    -0.2190  C.ar    1  <O>11       0.0832
   6 C2       -2.6223     2.9248    -1.5102  C.ar    1  <O>11      -0.0365
   7 C3       -2.2087     3.8557    -2.4705  C.ar    1  <O>11      -0.0598
   8 C4       -1.2482     4.8176    -2.1494  C.ar    1  <O>11      -0.0589
   9 C5       -0.7040     4.8421    -0.8602  C.ar    1  <O>11      -0.0246
  10 C6       -1.1099     3.9196     0.1043  C.ar    1  <O>11       0.1456
  11 F1       -0.5832     3.9510     1.3696  F       1  <O>11      -0.2035
  12 C7       -2.2090    -0.1770     2.5220  C.ar    1  <O>11       0.1392
  13 C8       -2.8851    -1.3759     2.2126  C.ar    1  <O>11      -0.0327
  14 C9       -3.5439    -2.1821     3.1806  C.ar    1  <O>11      -0.0577
  15 C10      -3.5759    -1.8668     4.5521  C.ar    1  <O>11      -0.0307
  16 C11      -2.8935    -0.6854     4.8939  C.ar    1  <O>11       0.1361
  17 N2       -2.7328    -0.1198     6.0955  N.ar    1  <O>11      -0.0489
  18 O3       -1.9803     1.0228     5.8772  O.2     1  <O>11      -0.2415
  19 N3       -1.6682     1.1895     4.5379  N.ar    1  <O>11      -0.0469
  20 C12      -2.2187     0.1432     3.9036  C.ar    1  <O>11       0.1606
  21 H1       -3.4480     1.9830     1.1230  H       1  <O>11       0.1738
  22 H2       -3.3354     2.2193    -1.7524  H       1  <O>11       0.0637
  23 H3       -2.6150     3.8311    -3.4188  H       1  <O>11       0.0618
  24 H4       -0.9425     5.5042    -2.8566  H       1  <O>11       0.0618
  25 H5        0.0063     5.5513    -0.6202  H       1  <O>11       0.0647
  26 H6       -2.9024    -1.6850     1.2282  H       1  <O>11       0.0638
  27 H7       -4.0216    -3.0398     2.8625  H       1  <O>11       0.0619
  28 H8       -4.0601    -2.4539     5.2492  H       1  <O>11       0.0640
@<TRIPOS>BOND
     1     1     2    2
     2     2     3    2
     3     2     4    1
     4     4     5    1
     5     5     6   ar
     6     6     7   ar
     7     7     8   ar
     8     8     9   ar
     9     9    10   ar
    10     5    10   ar
    11    10    11    1
    12     2    12    1
    13    12    13   ar
    14    13    14   ar
    15    14    15   ar
    16    15    16   ar
    17    16    17   ar
    18    17    18   ar
    19    18    19   ar
    20    19    20   ar
    21    12    20   ar
    22    16    20   ar
    23     4    21    1
    24     6    22    1
    25     7    23    1
    26     8    24    1
    27     9    25    1
    28    13    26    1
    29    14    27    1
    30    15    28    1
@<TRIPOS>MOLECULE
mol37_2_24
 28 30 0 0 0
SMALL
USER_CHARGES
****
VDW energy = -48.44
@<TRIPOS>ATOM
   1 O1       -0.8664    -0.0734     0.0738  O.2     1  <O>11      -0.1499
   2 S1       -1.4140     0.8545     1.3380  S.O2    1  <O>11       0.0746
   3 O2       -0.1305     1.6300     2.0523  O.2     1  <O>11      -0.1499
   4 N1       -2.4890     1.9740     0.7740  N.pl3   1  <O>11      -0.2134
   5 C1       -2.0710     2.9470    -0.2190  C.ar    1  <O>11       0.0832
   6 C2       -2.6223     2.9248    -1.5102  C.ar    1  <O>11      -0.0365
   7 C3       -2.2087     3.8557    -2.4705  C.ar    1  <O>11      -0.0598
   8 C4       -1.2482     4.8176    -2.1494  C.ar    1  <O>11      -0.0589
   9 C5       -0.7040     4.8421    -0.8602  C.ar    1  <O>11      -0.0246
  10 C6       -1.1099     3.9196     0.1043  C.ar    1  <O>11       0.1456
  11 F1       -0.5832     3.9510     1.3696  F       1  <O>11      -0.2035
  12 C7       -2.2090    -0.1770     2.5220  C.ar    1  <O>11       0.1392
  13 C8       -3.5581    -0.0512     2.9148  C.ar    1  <O>11      -0.0327
  14 C9       -4.1751    -0.8782     3.8928  C.ar    1  <O>11      -0.0577
  15 C10      -3.4990    -1.9170     4.5600  C.ar    1  <O>11      -0.0307
  16 C11      -2.1559    -2.0788     4.1752  C.ar    1  <O>11       0.1361
  17 N2       -1.2538    -2.9666     4.6085  N.ar    1  <O>11      -0.0489
  18 O3       -0.0908    -2.6964     3.9057  O.2     1  <O>11      -0.2415
  19 N3       -0.2488    -1.6336     3.0315  N.ar    1  <O>11      -0.0469
  20 C12      -1.5209    -1.2318     3.1742  C.ar    1  <O>11       0.1606
  21 H1       -3.4480     1.9830     1.1230  H       1  <O>11       0.1738
  22 H2       -3.3354     2.2193    -1.7524  H       1  <O>11       0.0637
  23 H3       -2.6150     3.8311    -3.4188  H       1  <O>11       0.0618
  24 H4       -0.9425     5.5042    -2.8566  H       1  <O>11       0.0618
  25 H5        0.0063     5.5513    -0.6202  H       1  <O>11       0.0647
  26 H6       -4.1292     0.6824     2.4670  H       1  <O>11       0.0638
  27 H7       -5.1664    -0.7087     4.1247  H       1  <O>11       0.0619
  28 H8       -3.9514    -2.5108     5.2726  H       1  <O>11       0.0640
@<TRIPOS>BOND
     1     1     2    2
     2     2     3    2
     3     2     4    1
     4     4     5    1
     5     5     6   ar
     6     6     7   ar
     7     7     8   ar
     8     8     9   ar
     9     9    10   ar
    10     5    10   ar
    11    10    11    1
    12     2    12    1
    13    12    13   ar
    14    13    14   ar
    15    14    15   ar
    16    15    16   ar
    17    16    17   ar
    18    17    18   ar
    19    18    19   ar
    20    19    20   ar
    21    12    20   ar
    22    16    20   ar
    23     4    21    1
    24     6    22    1
    25     7    23    1
    26     8    24    1
    27     9    25    1
    28    13    26    1
    29    14    27    1
    30    15    28    1
@<TRIPOS>MOLECULE
mol37_2_25
 28 30 0 0 0
SMALL
USER_CHARGES
****
VDW energy = -48.19
@<TRIPOS>ATOM
   1 O1       -0.8664    -0.0734     0.0738  O.2     1  <O>11      -0.1499
   2 S1       -1.4140     0.8545     1.3380  S.O2    1  <O>11       0.0746
   3 O2       -0.1305     1.6300     2.0523  O.2     1  <O>11      -0.1499
   4 N1       -2.4890     1.9740     0.7740  N.pl3   1  <O>11      -0.2134
   5 C1       -2.0710     2.9470    -0.2190  C.ar    1  <O>11       0.0832
   6 C2       -0.7540     2.9430    -0.7060  C.ar    1  <O>11      -0.0365
   7 C3       -0.3490     3.8900    -1.6540  C.ar    1  <O>11      -0.0598
   8 C4       -1.2540     4.8430    -2.1270  C.ar    1  <O>11      -0.0589
   9 C5       -2.5680     4.8420    -1.6450  C.ar    1  <O>11      -0.0246
  10 C6       -2.9820     3.9020    -0.7010  C.ar    1  <O>11       0.1456
  11 F1       -4.2720     3.8960    -0.2370  F       1  <O>11      -0.2035
  12 C7       -2.2090    -0.1770     2.5220  C.ar    1  <O>11       0.1392
  13 C8       -2.8851    -1.3759     2.2126  C.ar    1  <O>11      -0.0327
  14 C9       -3.5439    -2.1821     3.1806  C.ar    1  <O>11      -0.0577
  15 C10      -3.5759    -1.8668     4.5521  C.ar    1  <O>11      -0.0307
  16 C11      -2.8935    -0.6854     4.8939  C.ar    1  <O>11       0.1361
  17 N2       -2.7328    -0.1198     6.0955  N.ar    1  <O>11      -0.0489
  18 O3       -1.9803     1.0228     5.8772  O.2     1  <O>11      -0.2415
  19 N3       -1.6682     1.1895     4.5379  N.ar    1  <O>11      -0.0469
  20 C12      -2.2187     0.1432     3.9036  C.ar    1  <O>11       0.1606
  21 H1       -3.4480     1.9830     1.1230  H       1  <O>11       0.1738
  22 H2       -0.0817     2.2389    -0.3636  H       1  <O>11       0.0637
  23 H3        0.6216     3.8840    -2.0046  H       1  <O>11       0.0618
  24 H4       -0.9564     5.5417    -2.8257  H       1  <O>11       0.0618
  25 H5       -3.2388     5.5452    -1.9922  H       1  <O>11       0.0647
  26 H6       -2.9024    -1.6850     1.2282  H       1  <O>11       0.0638
  27 H7       -4.0216    -3.0398     2.8625  H       1  <O>11       0.0619
  28 H8       -4.0601    -2.4539     5.2492  H       1  <O>11       0.0640
@<TRIPOS>BOND
     1     1     2    2
     2     2     3    2
     3     2     4    1
     4     4     5    1
     5     5     6   ar
     6     6     7   ar
     7     7     8   ar
     8     8     9   ar
     9     9    10   ar
    10     5    10   ar
    11    10    11    1
    12     2    12    1
    13    12    13   ar
    14    13    14   ar
    15    14    15   ar
    16    15    16   ar
    17    16    17   ar
    18    17    18   ar
    19    18    19   ar
    20    19    20   ar
    21    12    20   ar
    22    16    20   ar
    23     4    21    1
    24     6    22    1
    25     7    23    1
    26     8    24    1
    27     9    25    1
    28    13    26    1
    29    14    27    1
    30    15    28    1
@<TRIPOS>MOLECULE
mol37_2_26
 28 30 0 0 0
SMALL
USER_CHARGES
****
VDW energy = -47.03
@<TRIPOS>ATOM
   1 O1       -0.8664    -0.0734     0.0738  O.2     1  <O>11      -0.1499
   2 S1       -1.4140     0.8545     1.3380  S.O2    1  <O>11       0.0746
   3 O2       -0.1305     1.6300     2.0523  O.2     1  <O>11      -0.1499
   4 N1       -2.4890     1.9740     0.7740  N.pl3   1  <O>11      -0.2134
   5 C1       -2.0710     2.9470    -0.2190  C.ar    1  <O>11       0.0832
   6 C2       -0.7540     2.9430    -0.7060  C.ar    1  <O>11      -0.0365
   7 C3       -0.3490     3.8900    -1.6540  C.ar    1  <O>11      -0.0598
   8 C4       -1.2540     4.8430    -2.1270  C.ar    1  <O>11      -0.0589
   9 C5       -2.5680     4.8420    -1.6450  C.ar    1  <O>11      -0.0246
  10 C6       -2.9820     3.9020    -0.7010  C.ar    1  <O>11       0.1456
  11 F1       -4.2720     3.8960    -0.2370  F       1  <O>11      -0.2035
  12 C7       -2.2090    -0.1770     2.5220  C.ar    1  <O>11       0.1392
  13 C8       -3.5580    -0.0510     2.9150  C.ar    1  <O>11      -0.0327
  14 C9       -4.1750    -0.8780     3.8930  C.ar    1  <O>11      -0.0577
  15 C10      -3.4990    -1.9170     4.5600  C.ar    1  <O>11      -0.0307
  16 C11      -2.1560    -2.0790     4.1750  C.ar    1  <O>11       0.1361
  17 N2       -1.2540    -2.9670     4.6080  N.ar    1  <O>11      -0.0489
  18 O3       -0.0910    -2.6970     3.9050  O.2     1  <O>11      -0.2415
  19 N3       -0.2490    -1.6340     3.0310  N.ar    1  <O>11      -0.0469
  20 C12      -1.5210    -1.2320     3.1740  C.ar    1  <O>11       0.1606
  21 H1       -3.4480     1.9830     1.1230  H       1  <O>11       0.1738
  22 H2       -0.0817     2.2389    -0.3636  H       1  <O>11       0.0637
  23 H3        0.6216     3.8840    -2.0046  H       1  <O>11       0.0618
  24 H4       -0.9564     5.5417    -2.8257  H       1  <O>11       0.0618
  25 H5       -3.2388     5.5452    -1.9922  H       1  <O>11       0.0647
  26 H6       -4.1291     0.6828     2.4674  H       1  <O>11       0.0638
  27 H7       -5.1662    -0.7084     4.1251  H       1  <O>11       0.0619
  28 H8       -3.9514    -2.5108     5.2726  H       1  <O>11       0.0640
@<TRIPOS>BOND
     1     1     2    2
     2     2     3    2
     3     2     4    1
     4     4     5    1
     5     5     6   ar
     6     6     7   ar
     7     7     8   ar
     8     8     9   ar
     9     9    10   ar
    10     5    10   ar
    11    10    11    1
    12     2    12    1
    13    12    13   ar
    14    13    14   ar
    15    14    15   ar
    16    15    16   ar
    17    16    17   ar
    18    17    18   ar
    19    18    19   ar
    20    19    20   ar
    21    12    20   ar
    22    16    20   ar
    23     4    21    1
    24     6    22    1
    25     7    23    1
    26     8    24    1
    27     9    25    1
    28    13    26    1
    29    14    27    1
    30    15    28    1
@<TRIPOS>MOLECULE
mol37_2_27
 28 30 0 0 0
SMALL
USER_CHARGES
****
VDW energy = -44.31
@<TRIPOS>ATOM
   1 O1       -0.8664    -0.0734     0.0738  O.2     1  <O>11      -0.1499
   2 S1       -1.4140     0.8545     1.3380  S.O2    1  <O>11       0.0746
   3 O2       -0.1305     1.6300     2.0523  O.2     1  <O>11      -0.1499
   4 N1       -2.4890     1.9740     0.7740  N.pl3   1  <O>11      -0.2134
   5 C1       -3.7029     1.5430     0.1045  C.ar    1  <O>11       0.0832
   6 C2       -3.9712     0.1754    -0.0673  C.ar    1  <O>11      -0.0365
   7 C3       -5.1359    -0.2383    -0.7245  C.ar    1  <O>11      -0.0598
   8 C4       -6.0431     0.7065    -1.2095  C.ar    1  <O>11      -0.0589
   9 C5       -5.7771     2.0692    -1.0322  C.ar    1  <O>11      -0.0246
  10 C6       -4.6199     2.4920    -0.3779  C.ar    1  <O>11       0.1456
  11 F1       -4.3654     3.8268    -0.1963  F       1  <O>11      -0.2035
  12 C7       -2.2090    -0.1770     2.5220  C.ar    1  <O>11       0.1392
  13 C8       -3.5580    -0.0510     2.9150  C.ar    1  <O>11      -0.0327
  14 C9       -4.1750    -0.8780     3.8930  C.ar    1  <O>11      -0.0577
  15 C10      -3.4990    -1.9170     4.5600  C.ar    1  <O>11      -0.0307
  16 C11      -2.1560    -2.0790     4.1750  C.ar    1  <O>11       0.1361
  17 N2       -1.2540    -2.9670     4.6080  N.ar    1  <O>11      -0.0489
  18 O3       -0.0910    -2.6970     3.9050  O.2     1  <O>11      -0.2415
  19 N3       -0.2490    -1.6340     3.0310  N.ar    1  <O>11      -0.0469
  20 C12      -1.5210    -1.2320     3.1740  C.ar    1  <O>11       0.1606
  21 H1       -2.3010     2.9697     0.8954  H       1  <O>11       0.1738
  22 H2       -3.3070    -0.5277     0.2924  H       1  <O>11       0.0637
  23 H3       -5.3249    -1.2449    -0.8510  H       1  <O>11       0.0618
  24 H4       -6.9019     0.4026    -1.6942  H       1  <O>11       0.0618
  25 H5       -6.4453     2.7696    -1.3899  H       1  <O>11       0.0647
  26 H6       -4.1291     0.6828     2.4674  H       1  <O>11       0.0638
  27 H7       -5.1662    -0.7084     4.1251  H       1  <O>11       0.0619
  28 H8       -3.9514    -2.5108     5.2726  H       1  <O>11       0.0640
@<TRIPOS>BOND
     1     1     2    2
     2     2     3    2
     3     2     4    1
     4     4     5    1
     5     5     6   ar
     6     6     7   ar
     7     7     8   ar
     8     8     9   ar
     9     9    10   ar
    10     5    10   ar
    11    10    11    1
    12     2    12    1
    13    12    13   ar
    14    13    14   ar
    15    14    15   ar
    16    15    16   ar
    17    16    17   ar
    18    17    18   ar
    19    18    19   ar
    20    19    20   ar
    21    12    20   ar
    22    16    20   ar
    23     4    21    1
    24     6    22    1
    25     7    23    1
    26     8    24    1
    27     9    25    1
    28    13    26    1
    29    14    27    1
    30    15    28    1
@<TRIPOS>MOLECULE
mol37_2_28
 28 30 0 0 0
SMALL
USER_CHARGES
****
VDW energy = -40.59
@<TRIPOS>ATOM
   1 O1       -0.8664    -0.0734     0.0738  O.2     1  <O>11      -0.1499
   2 S1       -1.4140     0.8545     1.3380  S.O2    1  <O>11       0.0746
   3 O2       -0.1305     1.6300     2.0523  O.2     1  <O>11      -0.1499
   4 N1       -2.4890     1.9740     0.7740  N.pl3   1  <O>11      -0.2134
   5 C1       -3.7029     1.5430     0.1045  C.ar    1  <O>11       0.0832
   6 C2       -4.8756     1.3114     0.8412  C.ar    1  <O>11      -0.0365
   7 C3       -6.0418     0.8834     0.1958  C.ar    1  <O>11      -0.0598
   8 C4       -6.0490     0.6889    -1.1873  C.ar    1  <O>11      -0.0589
   9 C5       -4.8809     0.9258    -1.9210  C.ar    1  <O>11      -0.0246
  10 C6       -3.7138     1.3534    -1.2877  C.ar    1  <O>11       0.1456
  11 F1       -2.5731     1.5946    -2.0088  F       1  <O>11      -0.2035
  12 C7       -2.2090    -0.1770     2.5220  C.ar    1  <O>11       0.1392
  13 C8       -1.8037    -0.3107     3.8666  C.ar    1  <O>11      -0.0327
  14 C9       -2.4436    -1.1697     4.8014  C.ar    1  <O>11      -0.0577
  15 C10      -3.5578    -1.9665     4.4774  C.ar    1  <O>11      -0.0307
  16 C11      -3.9968    -1.8401     3.1471  C.ar    1  <O>11       0.1361
  17 N2       -5.0190    -2.4466     2.5333  N.ar    1  <O>11      -0.0489
  18 O3       -5.0164    -1.9677     1.2332  O.2     1  <O>11      -0.2415
  19 N3       -3.9898    -1.0633     1.0164  N.ar    1  <O>11      -0.0469
  20 C12      -3.3420    -0.9615     2.1869  C.ar    1  <O>11       0.1606
  21 H1       -2.3010     2.9697     0.8954  H       1  <O>11       0.1738
  22 H2       -4.8779     1.4573     1.8628  H       1  <O>11       0.0637
  23 H3       -6.8991     0.7111     0.7439  H       1  <O>11       0.0618
  24 H4       -6.9081     0.3732    -1.6640  H       1  <O>11       0.0618
  25 H5       -4.8831     0.7824    -2.9430  H       1  <O>11       0.0647
  26 H6       -0.9974     0.2463     4.1899  H       1  <O>11       0.0638
  27 H7       -2.0733    -1.2112     5.7638  H       1  <O>11       0.0619
  28 H8       -4.0149    -2.5918     5.1594  H       1  <O>11       0.0640
@<TRIPOS>BOND
     1     1     2    2
     2     2     3    2
     3     2     4    1
     4     4     5    1
     5     5     6   ar
     6     6     7   ar
     7     7     8   ar
     8     8     9   ar
     9     9    10   ar
    10     5    10   ar
    11    10    11    1
    12     2    12    1
    13    12    13   ar
    14    13    14   ar
    15    14    15   ar
    16    15    16   ar
    17    16    17   ar
    18    17    18   ar
    19    18    19   ar
    20    19    20   ar
    21    12    20   ar
    22    16    20   ar
    23     4    21    1
    24     6    22    1
    25     7    23    1
    26     8    24    1
    27     9    25    1
    28    13    26    1
    29    14    27    1
    30    15    28    1
@<TRIPOS>MOLECULE
mol37_2_29
 28 30 0 0 0
SMALL
USER_CHARGES
****
VDW energy = -30.82
@<TRIPOS>ATOM
   1 O1       -0.8664    -0.0734     0.0738  O.2     1  <O>11      -0.1499
   2 S1       -1.4140     0.8545     1.3380  S.O2    1  <O>11       0.0746
   3 O2       -0.1305     1.6300     2.0523  O.2     1  <O>11      -0.1499
   4 N1       -2.4890     1.9740     0.7740  N.pl3   1  <O>11      -0.2134
   5 C1       -3.7029     1.5430     0.1045  C.ar    1  <O>11       0.0832
   6 C2       -3.9707     0.1755    -0.0682  C.ar    1  <O>11      -0.0365
   7 C3       -5.1354    -0.2383    -0.7253  C.ar    1  <O>11      -0.0598
   8 C4       -6.0431     0.7065    -1.2095  C.ar    1  <O>11      -0.0589
   9 C5       -5.7776     2.0692    -1.0313  C.ar    1  <O>11      -0.0246
  10 C6       -4.6204     2.4920    -0.3770  C.ar    1  <O>11       0.1456
  11 F1       -4.3664     3.8268    -0.1945  F       1  <O>11      -0.2035
  12 C7       -2.2090    -0.1770     2.5220  C.ar    1  <O>11       0.1392
  13 C8       -2.8851    -1.3759     2.2126  C.ar    1  <O>11      -0.0327
  14 C9       -3.5439    -2.1821     3.1806  C.ar    1  <O>11      -0.0577
  15 C10      -3.5759    -1.8668     4.5521  C.ar    1  <O>11      -0.0307
  16 C11      -2.8935    -0.6854     4.8939  C.ar    1  <O>11       0.1361
  17 N2       -2.7328    -0.1198     6.0955  N.ar    1  <O>11      -0.0489
  18 O3       -1.9803     1.0228     5.8772  O.2     1  <O>11      -0.2415
  19 N3       -1.6682     1.1895     4.5379  N.ar    1  <O>11      -0.0469
  20 C12      -2.2187     0.1432     3.9036  C.ar    1  <O>11       0.1606
  21 H1       -2.3010     2.9697     0.8954  H       1  <O>11       0.1738
  22 H2       -3.3061    -0.5277     0.2908  H       1  <O>11       0.0637
  23 H3       -5.3241    -1.2449    -0.8526  H       1  <O>11       0.0618
  24 H4       -6.9019     0.4026    -1.6942  H       1  <O>11       0.0618
  25 H5       -6.4461     2.7696    -1.3884  H       1  <O>11       0.0647
  26 H6       -2.9024    -1.6850     1.2282  H       1  <O>11       0.0638
  27 H7       -4.0216    -3.0398     2.8625  H       1  <O>11       0.0619
  28 H8       -4.0601    -2.4539     5.2492  H       1  <O>11       0.0640
@<TRIPOS>BOND
     1     1     2    2
     2     2     3    2
     3     2     4    1
     4     4     5    1
     5     5     6   ar
     6     6     7   ar
     7     7     8   ar
     8     8     9   ar
     9     9    10   ar
    10     5    10   ar
    11    10    11    1
    12     2    12    1
    13    12    13   ar
    14    13    14   ar
    15    14    15   ar
    16    15    16   ar
    17    16    17   ar
    18    17    18   ar
    19    18    19   ar
    20    19    20   ar
    21    12    20   ar
    22    16    20   ar
    23     4    21    1
    24     6    22    1
    25     7    23    1
    26     8    24    1
    27     9    25    1
    28    13    26    1
    29    14    27    1
    30    15    28    1
@<TRIPOS>MOLECULE
mol37_2_30
 28 30 0 0 0
SMALL
USER_CHARGES
****
VDW energy = -29.99
@<TRIPOS>ATOM
   1 O1       -0.8664    -0.0734     0.0738  O.2     1  <O>11      -0.1499
   2 S1       -1.4140     0.8545     1.3380  S.O2    1  <O>11       0.0746
   3 O2       -0.1305     1.6300     2.0523  O.2     1  <O>11      -0.1499
   4 N1       -2.4890     1.9740     0.7740  N.pl3   1  <O>11      -0.2134
   5 C1       -3.1122     2.9100     1.6921  C.ar    1  <O>11       0.0832
   6 C2       -2.8067     2.8702     3.0621  C.ar    1  <O>11      -0.0365
   7 C3       -3.4182     3.7651     3.9480  C.ar    1  <O>11      -0.0598
   8 C4       -4.3330     4.7086     3.4748  C.ar    1  <O>11      -0.0589
   9 C5       -4.6320     4.7509     2.1081  C.ar    1  <O>11      -0.0246
  10 C6       -4.0274     3.8643     1.2167  C.ar    1  <O>11       0.1456
  11 F1       -4.3138     3.9133    -0.1231  F       1  <O>11      -0.2035
  12 C7       -2.2090    -0.1770     2.5220  C.ar    1  <O>11       0.1392
  13 C8       -2.2555     0.0844     3.9075  C.ar    1  <O>11      -0.0327
  14 C9       -2.8806    -0.7753     4.8516  C.ar    1  <O>11      -0.0577
  15 C10      -3.5281    -1.9723     4.4923  C.ar    1  <O>11      -0.0307
  16 C11      -3.5144    -2.2504     3.1136  C.ar    1  <O>11       0.1361
  17 N2       -4.0403    -3.2898     2.4559  N.ar    1  <O>11      -0.0489
  18 O3       -3.7481    -3.0770     1.1184  O.2     1  <O>11      -0.2415
  19 N3       -3.0307    -1.9080     0.9245  N.ar    1  <O>11      -0.0469
  20 C12      -2.8733    -1.3718     2.1442  C.ar    1  <O>11       0.1606
  21 H1       -2.7164     2.0088    -0.2203  H       1  <O>11       0.1738
  22 H2       -2.1286     2.1783     3.4174  H       1  <O>11       0.0637
  23 H3       -3.1923     3.7276     4.9543  H       1  <O>11       0.0618
  24 H4       -4.7845     5.3686     4.1270  H       1  <O>11       0.0618
  25 H5       -5.3078     5.4465     1.7555  H       1  <O>11       0.0647
  26 H6       -1.8106     0.9482     4.2553  H       1  <O>11       0.0638
  27 H7       -2.8585    -0.5088     5.8485  H       1  <O>11       0.0619
  28 H8       -3.9760    -2.5945     5.1832  H       1  <O>11       0.0640
@<TRIPOS>BOND
     1     1     2    2
     2     2     3    2
     3     2     4    1
     4     4     5    1
     5     5     6   ar
     6     6     7   ar
     7     7     8   ar
     8     8     9   ar
     9     9    10   ar
    10     5    10   ar
    11    10    11    1
    12     2    12    1
    13    12    13   ar
    14    13    14   ar
    15    14    15   ar
    16    15    16   ar
    17    16    17   ar
    18    17    18   ar
    19    18    19   ar
    20    19    20   ar
    21    12    20   ar
    22    16    20   ar
    23     4    21    1
    24     6    22    1
    25     7    23    1
    26     8    24    1
    27     9    25    1
    28    13    26    1
    29    14    27    1
    30    15    28    1
