@<TRIPOS>MOLECULE
mol35_1_1
 38 40 0 0 0
SMALL
USER_CHARGES
****
VDW energy = -41.85
@<TRIPOS>ATOM
   1 O1        3.7237    -7.3011    -7.5348  O.2     1  <O>11      -0.2733
   2 C1        2.8314    -7.0491    -6.7389  C.2     1  <O>11       0.2415
   3 C2        2.0240    -5.8040    -6.8930  C.3     1  <O>11       0.0705
   4 C3        2.4990    -5.0500    -8.0820  C.ar    1  <O>11       0.0781
   5 N1        1.9300    -5.2952    -9.3377  N.ar    1  <O>11      -0.1748
   6 N2        2.4210    -4.6940   -10.4454  N.ar    1  <O>11      -0.2425
   7 C4        3.4653    -3.8406   -10.3223  C.ar    1  <O>11       0.2725
   8 O2        3.9914    -3.3245   -11.5231  O.2     1  <O>11      -0.2658
   9 C5        4.0244    -3.4621    -9.0928  C.ar    1  <O>11       0.0496
  10 C6        5.0757    -2.5259    -8.9581  C.ar    1  <O>11      -0.0487
  11 C7        5.6072    -2.2196    -7.7060  C.ar    1  <O>11      -0.0610
  12 C8        5.1073    -2.8434    -6.5689  C.ar    1  <O>11      -0.0611
  13 C9        4.0752    -3.7750    -6.6839  C.ar    1  <O>11      -0.0521
  14 C10       3.5179    -4.0924    -7.9433  C.ar    1  <O>11       0.0108
  15 N3        2.5730    -7.9090    -5.7050  N.am    1  <O>11      -0.1939
  16 O3        1.5444    -7.6178    -4.7865  O.3     1  <O>11      -0.2752
  17 C11       2.0229    -7.8043    -3.4647  C.3     1  <O>11       0.0983
  18 C12       0.9439    -7.4991    -2.5038  C.ar    1  <O>11      -0.0197
  19 C13       0.8051    -6.1937    -2.0259  C.ar    1  <O>11      -0.0563
  20 C14      -0.2082    -5.9000    -1.1055  C.ar    1  <O>11      -0.0614
  21 C15      -1.0764    -6.9031    -0.6717  C.ar    1  <O>11      -0.0617
  22 C16      -0.9293    -8.2053    -1.1649  C.ar    1  <O>11      -0.0614
  23 C17       0.0767    -8.5079    -2.0846  C.ar    1  <O>11      -0.0563
  24 H1        2.1350    -5.1860    -6.0020  H       1  <O>11       0.0424
  25 H2        0.9740    -6.0660    -7.0250  H       1  <O>11       0.0424
  26 H3        2.0145    -4.8811   -11.3507  H       1  <O>11       0.1921
  27 H4        3.1253    -8.7598    -5.5990  H       1  <O>11       0.1825
  28 H5        2.3424    -8.8381    -3.3361  H       1  <O>11       0.0634
  29 H6        2.8674    -7.1389    -3.2860  H       1  <O>11       0.0634
  30 H7        5.4549    -2.0626    -9.7987  H       1  <O>11       0.0625
  31 H8        6.3711    -1.5306    -7.6236  H       1  <O>11       0.0618
  32 H9        5.4989    -2.6178    -5.6411  H       1  <O>11       0.0618
  33 H10       3.7131    -4.2395    -5.8365  H       1  <O>11       0.0624
  34 H11       1.4449    -5.4512    -2.3489  H       1  <O>11       0.0621
  35 H12      -0.3136    -4.9382    -0.7465  H       1  <O>11       0.0618
  36 H13      -1.8219    -6.6864     0.0081  H       1  <O>11       0.0618
  37 H14      -1.5704    -8.9483    -0.8457  H       1  <O>11       0.0618
  38 H15       0.1775    -9.4677    -2.4501  H       1  <O>11       0.0621
@<TRIPOS>BOND
     1     1     2    2
     2     2     3    1
     3     3     4    1
     4     4     5   ar
     5     5     6   ar
     6     6     7   ar
     7     7     8    2
     8     7     9   ar
     9     9    10   ar
    10    10    11   ar
    11    11    12   ar
    12    12    13   ar
    13    13    14   ar
    14     4    14   ar
    15     9    14   ar
    16     2    15   am
    17    15    16    1
    18    16    17    1
    19    17    18    1
    20    18    19   ar
    21    19    20   ar
    22    20    21   ar
    23    21    22   ar
    24    22    23   ar
    25    18    23   ar
    26     3    24    1
    27     3    25    1
    28     6    26    1
    29    15    27    1
    30    17    28    1
    31    17    29    1
    32    10    30    1
    33    11    31    1
    34    12    32    1
    35    13    33    1
    36    19    34    1
    37    20    35    1
    38    21    36    1
    39    22    37    1
    40    23    38    1
@<TRIPOS>MOLECULE
mol35_1_2
 38 40 0 0 0
SMALL
USER_CHARGES
****
VDW energy = -41.57
@<TRIPOS>ATOM
   1 O1        3.7237    -7.3011    -7.5348  O.2     1  <O>11      -0.2733
   2 C1        2.8314    -7.0491    -6.7389  C.2     1  <O>11       0.2415
   3 C2        2.0240    -5.8040    -6.8930  C.3     1  <O>11       0.0705
   4 C3        2.4990    -5.0500    -8.0820  C.ar    1  <O>11       0.0781
   5 N1        1.9300    -5.2952    -9.3377  N.ar    1  <O>11      -0.1748
   6 N2        2.4210    -4.6940   -10.4454  N.ar    1  <O>11      -0.2425
   7 C4        3.4653    -3.8406   -10.3223  C.ar    1  <O>11       0.2725
   8 O2        3.9914    -3.3245   -11.5231  O.2     1  <O>11      -0.2658
   9 C5        4.0244    -3.4621    -9.0928  C.ar    1  <O>11       0.0496
  10 C6        5.0757    -2.5259    -8.9581  C.ar    1  <O>11      -0.0487
  11 C7        5.6072    -2.2196    -7.7060  C.ar    1  <O>11      -0.0610
  12 C8        5.1073    -2.8434    -6.5689  C.ar    1  <O>11      -0.0611
  13 C9        4.0752    -3.7750    -6.6839  C.ar    1  <O>11      -0.0521
  14 C10       3.5179    -4.0924    -7.9433  C.ar    1  <O>11       0.0108
  15 N3        2.5730    -7.9090    -5.7050  N.am    1  <O>11      -0.1939
  16 O3        1.5444    -7.6178    -4.7865  O.3     1  <O>11      -0.2752
  17 C11       0.7448    -8.7723    -4.5892  C.3     1  <O>11       0.0983
  18 C12      -0.3324    -8.4653    -3.6270  C.ar    1  <O>11      -0.0197
  19 C13      -0.1069    -8.6673    -2.2631  C.ar    1  <O>11      -0.0563
  20 C14      -1.1280    -8.3897    -1.3464  C.ar    1  <O>11      -0.0614
  21 C15      -2.3612    -7.9105    -1.7912  C.ar    1  <O>11      -0.0617
  22 C16      -2.5701    -7.7064    -3.1606  C.ar    1  <O>11      -0.0614
  23 C17      -1.5575    -7.9782    -4.0826  C.ar    1  <O>11      -0.0563
  24 H1        2.1350    -5.1860    -6.0020  H       1  <O>11       0.0424
  25 H2        0.9740    -6.0660    -7.0250  H       1  <O>11       0.0424
  26 H3        2.0145    -4.8811   -11.3507  H       1  <O>11       0.1921
  27 H4        3.1253    -8.7598    -5.5990  H       1  <O>11       0.1825
  28 H5        0.3073    -9.0782    -5.5391  H       1  <O>11       0.0634
  29 H6        1.3625    -9.5802    -4.1974  H       1  <O>11       0.0634
  30 H7        5.4549    -2.0626    -9.7987  H       1  <O>11       0.0625
  31 H8        6.3711    -1.5306    -7.6236  H       1  <O>11       0.0618
  32 H9        5.4989    -2.6178    -5.6411  H       1  <O>11       0.0618
  33 H10       3.7131    -4.2395    -5.8365  H       1  <O>11       0.0624
  34 H11       0.8058    -9.0186    -1.9337  H       1  <O>11       0.0621
  35 H12      -0.9683    -8.5400    -0.3379  H       1  <O>11       0.0618
  36 H13      -3.1141    -7.7078    -1.1151  H       1  <O>11       0.0618
  37 H14      -3.4810    -7.3518    -3.4915  H       1  <O>11       0.0618
  38 H15      -1.7137    -7.8205    -5.0904  H       1  <O>11       0.0621
@<TRIPOS>BOND
     1     1     2    2
     2     2     3    1
     3     3     4    1
     4     4     5   ar
     5     5     6   ar
     6     6     7   ar
     7     7     8    2
     8     7     9   ar
     9     9    10   ar
    10    10    11   ar
    11    11    12   ar
    12    12    13   ar
    13    13    14   ar
    14     4    14   ar
    15     9    14   ar
    16     2    15   am
    17    15    16    1
    18    16    17    1
    19    17    18    1
    20    18    19   ar
    21    19    20   ar
    22    20    21   ar
    23    21    22   ar
    24    22    23   ar
    25    18    23   ar
    26     3    24    1
    27     3    25    1
    28     6    26    1
    29    15    27    1
    30    17    28    1
    31    17    29    1
    32    10    30    1
    33    11    31    1
    34    12    32    1
    35    13    33    1
    36    19    34    1
    37    20    35    1
    38    21    36    1
    39    22    37    1
    40    23    38    1
@<TRIPOS>MOLECULE
mol35_1_3
 38 40 0 0 0
SMALL
USER_CHARGES
****
VDW energy = -31.23
@<TRIPOS>ATOM
   1 O1        3.7237    -7.3011    -7.5348  O.2     1  <O>11      -0.2733
   2 C1        2.8314    -7.0491    -6.7389  C.2     1  <O>11       0.2415
   3 C2        2.0240    -5.8040    -6.8930  C.3     1  <O>11       0.0705
   4 C3        2.4990    -5.0500    -8.0820  C.ar    1  <O>11       0.0781
   5 N1        3.5145    -4.0959    -7.9442  N.ar    1  <O>11      -0.1748
   6 N2        3.8857    -3.3287    -8.9944  N.ar    1  <O>11      -0.2425
   7 C4        3.2687    -3.5037   -10.1872  C.ar    1  <O>11       0.2725
   8 O2        3.6319    -2.6082   -11.2125  O.2     1  <O>11      -0.2658
   9 C5        2.3177    -4.5044   -10.4355  C.ar    1  <O>11       0.0496
  10 C6        1.7161    -4.7268   -11.6960  C.ar    1  <O>11      -0.0487
  11 C7        0.7520    -5.7197   -11.8652  C.ar    1  <O>11      -0.0610
  12 C8        0.3656    -6.5028   -10.7838  C.ar    1  <O>11      -0.0611
  13 C9        0.9433    -6.2924    -9.5315  C.ar    1  <O>11      -0.0521
  14 C10       1.9280    -5.2965    -9.3420  C.ar    1  <O>11       0.0108
  15 N3        2.5730    -7.9090    -5.7050  N.am    1  <O>11      -0.1939
  16 O3        3.3360    -9.0850    -5.5590  O.3     1  <O>11      -0.2752
  17 C11       3.7485    -9.2174    -4.2087  C.3     1  <O>11       0.0983
  18 C12       4.5479   -10.4497    -4.0577  C.ar    1  <O>11      -0.0197
  19 C13       3.9666   -11.6821    -4.3662  C.ar    1  <O>11      -0.0563
  20 C14       4.7151   -12.8554    -4.2138  C.ar    1  <O>11      -0.0614
  21 C15       6.0340   -12.7944    -3.7609  C.ar    1  <O>11      -0.0617
  22 C16       6.6052   -11.5513    -3.4623  C.ar    1  <O>11      -0.0614
  23 C17       5.8679   -10.3753    -3.6130  C.ar    1  <O>11      -0.0563
  24 H1        2.1350    -5.1860    -6.0020  H       1  <O>11       0.0424
  25 H2        0.9740    -6.0660    -7.0250  H       1  <O>11       0.0424
  26 H3        4.6115    -2.6346    -8.8886  H       1  <O>11       0.1921
  27 H4        1.8280    -7.6990    -5.0410  H       1  <O>11       0.1825
  28 H5        4.3527    -8.3554    -3.9269  H       1  <O>11       0.0634
  29 H6        2.8715    -9.2720    -3.5639  H       1  <O>11       0.0634
  30 H7        1.9947    -4.1458   -12.5021  H       1  <O>11       0.0625
  31 H8        0.3256    -5.8730   -12.7925  H       1  <O>11       0.0618
  32 H9       -0.3475    -7.2386   -10.9070  H       1  <O>11       0.0618
  33 H10       0.6471    -6.8728    -8.7312  H       1  <O>11       0.0624
  34 H11       2.9926   -11.7272    -4.7040  H       1  <O>11       0.0621
  35 H12       4.2900   -13.7689    -4.4371  H       1  <O>11       0.0618
  36 H13       6.5845   -13.6597    -3.6470  H       1  <O>11       0.0618
  37 H14       7.5803   -11.5040    -3.1277  H       1  <O>11       0.0618
  38 H15       6.2949    -9.4609    -3.3976  H       1  <O>11       0.0621
@<TRIPOS>BOND
     1     1     2    2
     2     2     3    1
     3     3     4    1
     4     4     5   ar
     5     5     6   ar
     6     6     7   ar
     7     7     8    2
     8     7     9   ar
     9     9    10   ar
    10    10    11   ar
    11    11    12   ar
    12    12    13   ar
    13    13    14   ar
    14     4    14   ar
    15     9    14   ar
    16     2    15   am
    17    15    16    1
    18    16    17    1
    19    17    18    1
    20    18    19   ar
    21    19    20   ar
    22    20    21   ar
    23    21    22   ar
    24    22    23   ar
    25    18    23   ar
    26     3    24    1
    27     3    25    1
    28     6    26    1
    29    15    27    1
    30    17    28    1
    31    17    29    1
    32    10    30    1
    33    11    31    1
    34    12    32    1
    35    13    33    1
    36    19    34    1
    37    20    35    1
    38    21    36    1
    39    22    37    1
    40    23    38    1
@<TRIPOS>MOLECULE
mol35_1_4
 38 40 0 0 0
SMALL
USER_CHARGES
****
VDW energy = -30.91
@<TRIPOS>ATOM
   1 O1        3.7237    -7.3011    -7.5348  O.2     1  <O>11      -0.2733
   2 C1        2.8314    -7.0491    -6.7389  C.2     1  <O>11       0.2415
   3 C2        2.0240    -5.8040    -6.8930  C.3     1  <O>11       0.0705
   4 C3        2.4990    -5.0500    -8.0820  C.ar    1  <O>11       0.0781
   5 N1        1.9300    -5.2952    -9.3377  N.ar    1  <O>11      -0.1748
   6 N2        2.4210    -4.6940   -10.4454  N.ar    1  <O>11      -0.2425
   7 C4        3.4653    -3.8406   -10.3223  C.ar    1  <O>11       0.2725
   8 O2        3.9914    -3.3245   -11.5231  O.2     1  <O>11      -0.2658
   9 C5        4.0244    -3.4621    -9.0928  C.ar    1  <O>11       0.0496
  10 C6        5.0757    -2.5259    -8.9581  C.ar    1  <O>11      -0.0487
  11 C7        5.6072    -2.2196    -7.7060  C.ar    1  <O>11      -0.0610
  12 C8        5.1073    -2.8434    -6.5689  C.ar    1  <O>11      -0.0611
  13 C9        4.0752    -3.7750    -6.6839  C.ar    1  <O>11      -0.0521
  14 C10       3.5179    -4.0924    -7.9433  C.ar    1  <O>11       0.0108
  15 N3        2.5730    -7.9090    -5.7050  N.am    1  <O>11      -0.1939
  16 O3        3.3360    -9.0850    -5.5590  O.3     1  <O>11      -0.2752
  17 C11       3.7485    -9.2174    -4.2087  C.3     1  <O>11       0.0983
  18 C12       4.5479   -10.4497    -4.0577  C.ar    1  <O>11      -0.0197
  19 C13       3.9022   -11.6470    -3.7394  C.ar    1  <O>11      -0.0563
  20 C14       4.6555   -12.8167    -3.5829  C.ar    1  <O>11      -0.0614
  21 C15       6.0413   -12.7881    -3.7478  C.ar    1  <O>11      -0.0617
  22 C16       6.6735   -11.5819    -4.0736  C.ar    1  <O>11      -0.0614
  23 C17       5.9311   -10.4105    -4.2339  C.ar    1  <O>11      -0.0563
  24 H1        2.1350    -5.1860    -6.0020  H       1  <O>11       0.0424
  25 H2        0.9740    -6.0660    -7.0250  H       1  <O>11       0.0424
  26 H3        2.0145    -4.8811   -11.3507  H       1  <O>11       0.1921
  27 H4        1.8280    -7.6990    -5.0410  H       1  <O>11       0.1825
  28 H5        4.3527    -8.3554    -3.9269  H       1  <O>11       0.0634
  29 H6        2.8715    -9.2720    -3.5639  H       1  <O>11       0.0634
  30 H7        5.4549    -2.0626    -9.7987  H       1  <O>11       0.0625
  31 H8        6.3711    -1.5306    -7.6236  H       1  <O>11       0.0618
  32 H9        5.4989    -2.6178    -5.6411  H       1  <O>11       0.0618
  33 H10       3.7131    -4.2395    -5.8365  H       1  <O>11       0.0624
  34 H11       2.8774   -11.6691    -3.6205  H       1  <O>11       0.0621
  35 H12       4.1845   -13.7035    -3.3446  H       1  <O>11       0.0618
  36 H13       6.5962   -13.6502    -3.6305  H       1  <O>11       0.0618
  37 H14       7.6980   -11.5587    -4.1964  H       1  <O>11       0.0618
  38 H15       6.4005    -9.5251    -4.4801  H       1  <O>11       0.0621
@<TRIPOS>BOND
     1     1     2    2
     2     2     3    1
     3     3     4    1
     4     4     5   ar
     5     5     6   ar
     6     6     7   ar
     7     7     8    2
     8     7     9   ar
     9     9    10   ar
    10    10    11   ar
    11    11    12   ar
    12    12    13   ar
    13    13    14   ar
    14     4    14   ar
    15     9    14   ar
    16     2    15   am
    17    15    16    1
    18    16    17    1
    19    17    18    1
    20    18    19   ar
    21    19    20   ar
    22    20    21   ar
    23    21    22   ar
    24    22    23   ar
    25    18    23   ar
    26     3    24    1
    27     3    25    1
    28     6    26    1
    29    15    27    1
    30    17    28    1
    31    17    29    1
    32    10    30    1
    33    11    31    1
    34    12    32    1
    35    13    33    1
    36    19    34    1
    37    20    35    1
    38    21    36    1
    39    22    37    1
    40    23    38    1
@<TRIPOS>MOLECULE
mol35_1_5
 38 40 0 0 0
SMALL
USER_CHARGES
****
VDW energy = -29.01
@<TRIPOS>ATOM
   1 O1        3.7237    -7.3011    -7.5348  O.2     1  <O>11      -0.2733
   2 C1        2.8314    -7.0491    -6.7389  C.2     1  <O>11       0.2415
   3 C2        2.0240    -5.8040    -6.8930  C.3     1  <O>11       0.0705
   4 C3        0.6005    -6.0956    -6.5825  C.ar    1  <O>11       0.0781
   5 N1        0.1295    -5.9594    -5.2709  N.ar    1  <O>11      -0.1748
   6 N2       -1.1346    -6.3198    -4.9523  N.ar    1  <O>11      -0.2425
   7 C4       -1.9448    -6.8044    -5.9233  C.ar    1  <O>11       0.2725
   8 O2       -3.2142    -7.2526    -5.5077  O.2     1  <O>11      -0.2658
   9 C5       -1.5856    -6.8753    -7.2773  C.ar    1  <O>11       0.0496
  10 C6       -2.4510    -7.3253    -8.3013  C.ar    1  <O>11      -0.0487
  11 C7       -2.0177    -7.4015    -9.6244  C.ar    1  <O>11      -0.0610
  12 C8       -0.7161    -7.0382    -9.9500  C.ar    1  <O>11      -0.0611
  13 C9        0.1534    -6.5988    -8.9514  C.ar    1  <O>11      -0.0521
  14 C10      -0.2699    -6.5069    -7.6062  C.ar    1  <O>11       0.0108
  15 N3        2.5730    -7.9090    -5.7050  N.am    1  <O>11      -0.1939
  16 O3        1.5444    -7.6178    -4.7865  O.3     1  <O>11      -0.2752
  17 C11       2.0229    -7.8043    -3.4647  C.3     1  <O>11       0.0983
  18 C12       0.9439    -7.4991    -2.5038  C.ar    1  <O>11      -0.0197
  19 C13       0.8051    -6.1937    -2.0259  C.ar    1  <O>11      -0.0563
  20 C14      -0.2082    -5.9000    -1.1055  C.ar    1  <O>11      -0.0614
  21 C15      -1.0764    -6.9031    -0.6717  C.ar    1  <O>11      -0.0617
  22 C16      -0.9293    -8.2053    -1.1649  C.ar    1  <O>11      -0.0614
  23 C17       0.0767    -8.5079    -2.0846  C.ar    1  <O>11      -0.0563
  24 H1        2.1062    -5.4418    -7.9178  H       1  <O>11       0.0424
  25 H2        2.3964    -5.0424    -6.2075  H       1  <O>11       0.0424
  26 H3       -1.4675    -6.2296    -4.0032  H       1  <O>11       0.1921
  27 H4        3.1253    -8.7598    -5.5990  H       1  <O>11       0.1825
  28 H5        2.3424    -8.8381    -3.3361  H       1  <O>11       0.0634
  29 H6        2.8674    -7.1389    -3.2860  H       1  <O>11       0.0634
  30 H7       -3.4172    -7.6013    -8.0660  H       1  <O>11       0.0625
  31 H8       -2.6627    -7.7274   -10.3612  H       1  <O>11       0.0618
  32 H9       -0.3935    -7.0933   -10.9288  H       1  <O>11       0.0618
  33 H10       1.1205    -6.3369    -9.1988  H       1  <O>11       0.0624
  34 H11       1.4449    -5.4512    -2.3489  H       1  <O>11       0.0621
  35 H12      -0.3136    -4.9382    -0.7465  H       1  <O>11       0.0618
  36 H13      -1.8219    -6.6864     0.0081  H       1  <O>11       0.0618
  37 H14      -1.5704    -8.9483    -0.8457  H       1  <O>11       0.0618
  38 H15       0.1775    -9.4677    -2.4501  H       1  <O>11       0.0621
@<TRIPOS>BOND
     1     1     2    2
     2     2     3    1
     3     3     4    1
     4     4     5   ar
     5     5     6   ar
     6     6     7   ar
     7     7     8    2
     8     7     9   ar
     9     9    10   ar
    10    10    11   ar
    11    11    12   ar
    12    12    13   ar
    13    13    14   ar
    14     4    14   ar
    15     9    14   ar
    16     2    15   am
    17    15    16    1
    18    16    17    1
    19    17    18    1
    20    18    19   ar
    21    19    20   ar
    22    20    21   ar
    23    21    22   ar
    24    22    23   ar
    25    18    23   ar
    26     3    24    1
    27     3    25    1
    28     6    26    1
    29    15    27    1
    30    17    28    1
    31    17    29    1
    32    10    30    1
    33    11    31    1
    34    12    32    1
    35    13    33    1
    36    19    34    1
    37    20    35    1
    38    21    36    1
    39    22    37    1
    40    23    38    1
@<TRIPOS>MOLECULE
mol35_1_6
 38 40 0 0 0
SMALL
USER_CHARGES
****
VDW energy = -28.33
@<TRIPOS>ATOM
   1 O1        3.7237    -7.3011    -7.5348  O.2     1  <O>11      -0.2733
   2 C1        2.8314    -7.0491    -6.7389  C.2     1  <O>11       0.2415
   3 C2        2.0240    -5.8040    -6.8930  C.3     1  <O>11       0.0705
   4 C3        2.4990    -5.0500    -8.0820  C.ar    1  <O>11       0.0781
   5 N1        3.5145    -4.0959    -7.9442  N.ar    1  <O>11      -0.1748
   6 N2        3.8857    -3.3287    -8.9944  N.ar    1  <O>11      -0.2425
   7 C4        3.2687    -3.5037   -10.1872  C.ar    1  <O>11       0.2725
   8 O2        3.6319    -2.6082   -11.2125  O.2     1  <O>11      -0.2658
   9 C5        2.3177    -4.5044   -10.4355  C.ar    1  <O>11       0.0496
  10 C6        1.7161    -4.7268   -11.6960  C.ar    1  <O>11      -0.0487
  11 C7        0.7520    -5.7197   -11.8652  C.ar    1  <O>11      -0.0610
  12 C8        0.3656    -6.5028   -10.7838  C.ar    1  <O>11      -0.0611
  13 C9        0.9433    -6.2924    -9.5315  C.ar    1  <O>11      -0.0521
  14 C10       1.9280    -5.2965    -9.3420  C.ar    1  <O>11       0.0108
  15 N3        2.5730    -7.9090    -5.7050  N.am    1  <O>11      -0.1939
  16 O3        3.3360    -9.0850    -5.5590  O.3     1  <O>11      -0.2752
  17 C11       2.4710   -10.1859    -5.3335  C.3     1  <O>11       0.0983
  18 C12       3.2720   -11.4169    -5.1805  C.ar    1  <O>11      -0.0197
  19 C13       2.6201   -12.6308    -4.9500  C.ar    1  <O>11      -0.0563
  20 C14       3.3741   -13.7998    -4.7920  C.ar    1  <O>11      -0.0614
  21 C15       4.7670   -13.7539    -4.8685  C.ar    1  <O>11      -0.0617
  22 C16       5.4060   -12.5310    -5.1069  C.ar    1  <O>11      -0.0614
  23 C17       4.6630   -11.3600    -5.2679  C.ar    1  <O>11      -0.0563
  24 H1        2.1350    -5.1860    -6.0020  H       1  <O>11       0.0424
  25 H2        0.9740    -6.0660    -7.0250  H       1  <O>11       0.0424
  26 H3        4.6115    -2.6346    -8.8886  H       1  <O>11       0.1921
  27 H4        1.8280    -7.6990    -5.0410  H       1  <O>11       0.1825
  28 H5        1.8923   -10.0137    -4.4263  H       1  <O>11       0.0634
  29 H6        1.7937   -10.2961    -6.1802  H       1  <O>11       0.0634
  30 H7        1.9947    -4.1458   -12.5021  H       1  <O>11       0.0625
  31 H8        0.3256    -5.8730   -12.7925  H       1  <O>11       0.0618
  32 H9       -0.3475    -7.2386   -10.9070  H       1  <O>11       0.0618
  33 H10       0.6471    -6.8728    -8.7312  H       1  <O>11       0.0624
  34 H11       1.5901   -12.6656    -4.8965  H       1  <O>11       0.0621
  35 H12       2.8982   -14.6990    -4.6183  H       1  <O>11       0.0618
  36 H13       5.3223   -14.6156    -4.7501  H       1  <O>11       0.0618
  37 H14       6.4358   -12.4949    -5.1642  H       1  <O>11       0.0618
  38 H15       5.1378   -10.4620    -5.4497  H       1  <O>11       0.0621
@<TRIPOS>BOND
     1     1     2    2
     2     2     3    1
     3     3     4    1
     4     4     5   ar
     5     5     6   ar
     6     6     7   ar
     7     7     8    2
     8     7     9   ar
     9     9    10   ar
    10    10    11   ar
    11    11    12   ar
    12    12    13   ar
    13    13    14   ar
    14     4    14   ar
    15     9    14   ar
    16     2    15   am
    17    15    16    1
    18    16    17    1
    19    17    18    1
    20    18    19   ar
    21    19    20   ar
    22    20    21   ar
    23    21    22   ar
    24    22    23   ar
    25    18    23   ar
    26     3    24    1
    27     3    25    1
    28     6    26    1
    29    15    27    1
    30    17    28    1
    31    17    29    1
    32    10    30    1
    33    11    31    1
    34    12    32    1
    35    13    33    1
    36    19    34    1
    37    20    35    1
    38    21    36    1
    39    22    37    1
    40    23    38    1
@<TRIPOS>MOLECULE
mol35_1_7
 38 40 0 0 0
SMALL
USER_CHARGES
****
VDW energy = -28.11
@<TRIPOS>ATOM
   1 O1        3.7237    -7.3011    -7.5348  O.2     1  <O>11      -0.2733
   2 C1        2.8314    -7.0491    -6.7389  C.2     1  <O>11       0.2415
   3 C2        2.0240    -5.8040    -6.8930  C.3     1  <O>11       0.0705
   4 C3        2.4990    -5.0500    -8.0820  C.ar    1  <O>11       0.0781
   5 N1        3.5145    -4.0959    -7.9442  N.ar    1  <O>11      -0.1748
   6 N2        3.8857    -3.3287    -8.9944  N.ar    1  <O>11      -0.2425
   7 C4        3.2687    -3.5037   -10.1872  C.ar    1  <O>11       0.2725
   8 O2        3.6319    -2.6082   -11.2125  O.2     1  <O>11      -0.2658
   9 C5        2.3177    -4.5044   -10.4355  C.ar    1  <O>11       0.0496
  10 C6        1.7161    -4.7268   -11.6960  C.ar    1  <O>11      -0.0487
  11 C7        0.7520    -5.7197   -11.8652  C.ar    1  <O>11      -0.0610
  12 C8        0.3656    -6.5028   -10.7838  C.ar    1  <O>11      -0.0611
  13 C9        0.9433    -6.2924    -9.5315  C.ar    1  <O>11      -0.0521
  14 C10       1.9280    -5.2965    -9.3420  C.ar    1  <O>11       0.0108
  15 N3        2.5730    -7.9090    -5.7050  N.am    1  <O>11      -0.1939
  16 O3        3.3360    -9.0850    -5.5590  O.3     1  <O>11      -0.2752
  17 C11       3.7485    -9.2174    -4.2087  C.3     1  <O>11       0.0983
  18 C12       4.5479   -10.4497    -4.0577  C.ar    1  <O>11      -0.0197
  19 C13       5.0593   -10.7814    -2.8006  C.ar    1  <O>11      -0.0563
  20 C14       5.8282   -11.9420    -2.6528  C.ar    1  <O>11      -0.0614
  21 C15       6.0786   -12.7644    -3.7525  C.ar    1  <O>11      -0.0617
  22 C16       5.5534   -12.4227    -5.0047  C.ar    1  <O>11      -0.0614
  23 C17       4.7838   -11.2685    -5.1620  C.ar    1  <O>11      -0.0563
  24 H1        2.1350    -5.1860    -6.0020  H       1  <O>11       0.0424
  25 H2        0.9740    -6.0660    -7.0250  H       1  <O>11       0.0424
  26 H3        4.6115    -2.6346    -8.8886  H       1  <O>11       0.1921
  27 H4        1.8280    -7.6990    -5.0410  H       1  <O>11       0.1825
  28 H5        4.3527    -8.3554    -3.9269  H       1  <O>11       0.0634
  29 H6        2.8715    -9.2720    -3.5639  H       1  <O>11       0.0634
  30 H7        1.9947    -4.1458   -12.5021  H       1  <O>11       0.0625
  31 H8        0.3256    -5.8730   -12.7925  H       1  <O>11       0.0618
  32 H9       -0.3475    -7.2386   -10.9070  H       1  <O>11       0.0618
  33 H10       0.6471    -6.8728    -8.7312  H       1  <O>11       0.0624
  34 H11       4.8718   -10.1751    -1.9868  H       1  <O>11       0.0621
  35 H12       6.2114   -12.1904    -1.7273  H       1  <O>11       0.0618
  36 H13       6.6469   -13.6188    -3.6433  H       1  <O>11       0.0618
  37 H14       5.7371   -13.0296    -5.8189  H       1  <O>11       0.0618
  38 H15       4.3936   -11.0237    -6.0855  H       1  <O>11       0.0621
@<TRIPOS>BOND
     1     1     2    2
     2     2     3    1
     3     3     4    1
     4     4     5   ar
     5     5     6   ar
     6     6     7   ar
     7     7     8    2
     8     7     9   ar
     9     9    10   ar
    10    10    11   ar
    11    11    12   ar
    12    12    13   ar
    13    13    14   ar
    14     4    14   ar
    15     9    14   ar
    16     2    15   am
    17    15    16    1
    18    16    17    1
    19    17    18    1
    20    18    19   ar
    21    19    20   ar
    22    20    21   ar
    23    21    22   ar
    24    22    23   ar
    25    18    23   ar
    26     3    24    1
    27     3    25    1
    28     6    26    1
    29    15    27    1
    30    17    28    1
    31    17    29    1
    32    10    30    1
    33    11    31    1
    34    12    32    1
    35    13    33    1
    36    19    34    1
    37    20    35    1
    38    21    36    1
    39    22    37    1
    40    23    38    1
@<TRIPOS>MOLECULE
mol35_1_8
 38 40 0 0 0
SMALL
USER_CHARGES
****
VDW energy = -25.22
@<TRIPOS>ATOM
   1 O1        3.7237    -7.3011    -7.5348  O.2     1  <O>11      -0.2733
   2 C1        2.8314    -7.0491    -6.7389  C.2     1  <O>11       0.2415
   3 C2        2.0240    -5.8040    -6.8930  C.3     1  <O>11       0.0705
   4 C3        0.6005    -6.0956    -6.5825  C.ar    1  <O>11       0.0781
   5 N1       -0.0399    -5.4169    -5.5385  N.ar    1  <O>11      -0.1748
   6 N2       -1.3014    -5.7439    -5.1763  N.ar    1  <O>11      -0.2425
   7 C4       -1.9429    -6.7309    -5.8458  C.ar    1  <O>11       0.2725
   8 O2       -3.2148    -7.0891    -5.3567  O.2     1  <O>11      -0.2658
   9 C5       -1.4129    -7.3873    -6.9664  C.ar    1  <O>11       0.0496
  10 C6       -2.1052    -8.3764    -7.7028  C.ar    1  <O>11      -0.0487
  11 C7       -1.5053    -9.0132    -8.7886  C.ar    1  <O>11      -0.0610
  12 C8       -0.2062    -8.6820    -9.1557  C.ar    1  <O>11      -0.0611
  13 C9        0.4941    -7.7137    -8.4359  C.ar    1  <O>11      -0.0521
  14 C10      -0.0998    -7.0515    -7.3378  C.ar    1  <O>11       0.0108
  15 N3        2.5730    -7.9090    -5.7050  N.am    1  <O>11      -0.1939
  16 O3        3.3360    -9.0850    -5.5590  O.3     1  <O>11      -0.2752
  17 C11       2.4710   -10.1860    -5.3340  C.3     1  <O>11       0.0983
  18 C12       3.2720   -11.4170    -5.1810  C.ar    1  <O>11      -0.0197
  19 C13       2.6200   -12.6310    -4.9510  C.ar    1  <O>11      -0.0563
  20 C14       3.3740   -13.8000    -4.7930  C.ar    1  <O>11      -0.0614
  21 C15       4.7670   -13.7540    -4.8690  C.ar    1  <O>11      -0.0617
  22 C16       5.4060   -12.5310    -5.1070  C.ar    1  <O>11      -0.0614
  23 C17       4.6630   -11.3600    -5.2680  C.ar    1  <O>11      -0.0563
  24 H1        2.1062    -5.4418    -7.9178  H       1  <O>11       0.0424
  25 H2        2.3964    -5.0424    -6.2075  H       1  <O>11       0.0424
  26 H3       -1.7563    -5.2591    -4.4161  H       1  <O>11       0.1921
  27 H4        1.8280    -7.6990    -5.0410  H       1  <O>11       0.1825
  28 H5        1.8920   -10.0140    -4.4270  H       1  <O>11       0.0634
  29 H6        1.7940   -10.2960    -6.1810  H       1  <O>11       0.0634
  30 H7       -3.0682    -8.6307    -7.4328  H       1  <O>11       0.0625
  31 H8       -2.0253    -9.7296    -9.3191  H       1  <O>11       0.0618
  32 H9        0.2395    -9.1517    -9.9594  H       1  <O>11       0.0618
  33 H10       1.4607    -7.4773    -8.7096  H       1  <O>11       0.0624
  34 H11       1.5900   -12.6658    -4.8979  H       1  <O>11       0.0621
  35 H12       2.8981   -14.6992    -4.6197  H       1  <O>11       0.0618
  36 H13       5.3223   -14.6157    -4.7506  H       1  <O>11       0.0618
  37 H14       6.4358   -12.4949    -5.1639  H       1  <O>11       0.0618
  38 H15       5.1378   -10.4619    -5.4494  H       1  <O>11       0.0621
@<TRIPOS>BOND
     1     1     2    2
     2     2     3    1
     3     3     4    1
     4     4     5   ar
     5     5     6   ar
     6     6     7   ar
     7     7     8    2
     8     7     9   ar
     9     9    10   ar
    10    10    11   ar
    11    11    12   ar
    12    12    13   ar
    13    13    14   ar
    14     4    14   ar
    15     9    14   ar
    16     2    15   am
    17    15    16    1
    18    16    17    1
    19    17    18    1
    20    18    19   ar
    21    19    20   ar
    22    20    21   ar
    23    21    22   ar
    24    22    23   ar
    25    18    23   ar
    26     3    24    1
    27     3    25    1
    28     6    26    1
    29    15    27    1
    30    17    28    1
    31    17    29    1
    32    10    30    1
    33    11    31    1
    34    12    32    1
    35    13    33    1
    36    19    34    1
    37    20    35    1
    38    21    36    1
    39    22    37    1
    40    23    38    1
@<TRIPOS>MOLECULE
mol35_1_9
 38 40 0 0 0
SMALL
USER_CHARGES
****
VDW energy = -23.57
@<TRIPOS>ATOM
   1 O1        3.7237    -7.3011    -7.5348  O.2     1  <O>11      -0.2733
   2 C1        2.8314    -7.0491    -6.7389  C.2     1  <O>11       0.2415
   3 C2        2.0240    -5.8040    -6.8930  C.3     1  <O>11       0.0705
   4 C3        0.6005    -6.0956    -6.5825  C.ar    1  <O>11       0.0781
   5 N1        0.1295    -5.9594    -5.2709  N.ar    1  <O>11      -0.1748
   6 N2       -1.1346    -6.3198    -4.9523  N.ar    1  <O>11      -0.2425
   7 C4       -1.9448    -6.8044    -5.9233  C.ar    1  <O>11       0.2725
   8 O2       -3.2142    -7.2526    -5.5077  O.2     1  <O>11      -0.2658
   9 C5       -1.5856    -6.8753    -7.2773  C.ar    1  <O>11       0.0496
  10 C6       -2.4510    -7.3253    -8.3013  C.ar    1  <O>11      -0.0487
  11 C7       -2.0177    -7.4015    -9.6244  C.ar    1  <O>11      -0.0610
  12 C8       -0.7161    -7.0382    -9.9500  C.ar    1  <O>11      -0.0611
  13 C9        0.1534    -6.5988    -8.9514  C.ar    1  <O>11      -0.0521
  14 C10      -0.2699    -6.5069    -7.6062  C.ar    1  <O>11       0.0108
  15 N3        2.5730    -7.9090    -5.7050  N.am    1  <O>11      -0.1939
  16 O3        3.3360    -9.0850    -5.5590  O.3     1  <O>11      -0.2752
  17 C11       3.7485    -9.2174    -4.2087  C.3     1  <O>11       0.0983
  18 C12       4.5479   -10.4497    -4.0577  C.ar    1  <O>11      -0.0197
  19 C13       5.0593   -10.7814    -2.8006  C.ar    1  <O>11      -0.0563
  20 C14       5.8282   -11.9420    -2.6528  C.ar    1  <O>11      -0.0614
  21 C15       6.0786   -12.7644    -3.7525  C.ar    1  <O>11      -0.0617
  22 C16       5.5534   -12.4227    -5.0047  C.ar    1  <O>11      -0.0614
  23 C17       4.7838   -11.2685    -5.1620  C.ar    1  <O>11      -0.0563
  24 H1        2.1062    -5.4418    -7.9178  H       1  <O>11       0.0424
  25 H2        2.3964    -5.0424    -6.2075  H       1  <O>11       0.0424
  26 H3       -1.4675    -6.2296    -4.0032  H       1  <O>11       0.1921
  27 H4        1.8280    -7.6990    -5.0410  H       1  <O>11       0.1825
  28 H5        4.3527    -8.3554    -3.9269  H       1  <O>11       0.0634
  29 H6        2.8715    -9.2720    -3.5639  H       1  <O>11       0.0634
  30 H7       -3.4172    -7.6013    -8.0660  H       1  <O>11       0.0625
  31 H8       -2.6627    -7.7274   -10.3612  H       1  <O>11       0.0618
  32 H9       -0.3935    -7.0933   -10.9288  H       1  <O>11       0.0618
  33 H10       1.1205    -6.3369    -9.1988  H       1  <O>11       0.0624
  34 H11       4.8718   -10.1751    -1.9868  H       1  <O>11       0.0621
  35 H12       6.2114   -12.1904    -1.7273  H       1  <O>11       0.0618
  36 H13       6.6469   -13.6188    -3.6433  H       1  <O>11       0.0618
  37 H14       5.7371   -13.0296    -5.8189  H       1  <O>11       0.0618
  38 H15       4.3936   -11.0237    -6.0855  H       1  <O>11       0.0621
@<TRIPOS>BOND
     1     1     2    2
     2     2     3    1
     3     3     4    1
     4     4     5   ar
     5     5     6   ar
     6     6     7   ar
     7     7     8    2
     8     7     9   ar
     9     9    10   ar
    10    10    11   ar
    11    11    12   ar
    12    12    13   ar
    13    13    14   ar
    14     4    14   ar
    15     9    14   ar
    16     2    15   am
    17    15    16    1
    18    16    17    1
    19    17    18    1
    20    18    19   ar
    21    19    20   ar
    22    20    21   ar
    23    21    22   ar
    24    22    23   ar
    25    18    23   ar
    26     3    24    1
    27     3    25    1
    28     6    26    1
    29    15    27    1
    30    17    28    1
    31    17    29    1
    32    10    30    1
    33    11    31    1
    34    12    32    1
    35    13    33    1
    36    19    34    1
    37    20    35    1
    38    21    36    1
    39    22    37    1
    40    23    38    1
@<TRIPOS>MOLECULE
mol35_1_10
 38 40 0 0 0
SMALL
USER_CHARGES
****
VDW energy = -23.48
@<TRIPOS>ATOM
   1 O1        3.7237    -7.3011    -7.5348  O.2     1  <O>11      -0.2733
   2 C1        2.8314    -7.0491    -6.7389  C.2     1  <O>11       0.2415
   3 C2        2.0240    -5.8040    -6.8930  C.3     1  <O>11       0.0705
   4 C3        2.4990    -5.0500    -8.0820  C.ar    1  <O>11       0.0781
   5 N1        2.9917    -3.7479    -7.9324  N.ar    1  <O>11      -0.1748
   6 N2        3.3304    -3.0112    -9.0149  N.ar    1  <O>11      -0.2425
   7 C4        3.1973    -3.5548   -10.2481  C.ar    1  <O>11       0.2725
   8 O2        3.4733    -2.7033   -11.3361  O.2     1  <O>11      -0.2658
   9 C5        2.8108    -4.8833   -10.4788  C.ar    1  <O>11       0.0496
  10 C6        2.7288    -5.4702   -11.7629  C.ar    1  <O>11      -0.0487
  11 C7        2.3050    -6.7889   -11.9228  C.ar    1  <O>11      -0.0610
  12 C8        1.9500    -7.5431   -10.8105  C.ar    1  <O>11      -0.0611
  13 C9        2.0179    -6.9778    -9.5368  C.ar    1  <O>11      -0.0521
  14 C10       2.4529    -5.6457    -9.3538  C.ar    1  <O>11       0.0108
  15 N3        2.5730    -7.9090    -5.7050  N.am    1  <O>11      -0.1939
  16 O3        3.3360    -9.0850    -5.5590  O.3     1  <O>11      -0.2752
  17 C11       2.4710   -10.1860    -5.3340  C.3     1  <O>11       0.0983
  18 C12       3.2720   -11.4170    -5.1810  C.ar    1  <O>11      -0.0197
  19 C13       3.7091   -11.7928    -3.9084  C.ar    1  <O>11      -0.0563
  20 C14       4.4791   -12.9523    -3.7578  C.ar    1  <O>11      -0.0614
  21 C15       4.8043   -13.7299    -4.8704  C.ar    1  <O>11      -0.0617
  22 C16       4.3531   -13.3443    -6.1386  C.ar    1  <O>11      -0.0614
  23 C17       3.5830   -12.1909    -6.2991  C.ar    1  <O>11      -0.0563
  24 H1        2.1350    -5.1860    -6.0020  H       1  <O>11       0.0424
  25 H2        0.9740    -6.0660    -7.0250  H       1  <O>11       0.0424
  26 H3        3.6758    -2.0688    -8.9036  H       1  <O>11       0.1921
  27 H4        1.8280    -7.6990    -5.0410  H       1  <O>11       0.1825
  28 H5        1.8920   -10.0140    -4.4270  H       1  <O>11       0.0634
  29 H6        1.7940   -10.2960    -6.1810  H       1  <O>11       0.0634
  30 H7        2.9862    -4.9145   -12.5935  H       1  <O>11       0.0625
  31 H8        2.2550    -7.2046   -12.8661  H       1  <O>11       0.0618
  32 H9        1.6366    -8.5195   -10.9266  H       1  <O>11       0.0618
  33 H10       1.7465    -7.5411    -8.7158  H       1  <O>11       0.0624
  34 H11       3.4661   -11.2197    -3.0853  H       1  <O>11       0.0621
  35 H12       4.8075   -13.2332    -2.8206  H       1  <O>11       0.0618
  36 H13       5.3735   -14.5834    -4.7590  H       1  <O>11       0.0618
  37 H14       4.5922   -13.9181    -6.9625  H       1  <O>11       0.0618
  38 H15       3.2474   -11.9139    -7.2348  H       1  <O>11       0.0621
@<TRIPOS>BOND
     1     1     2    2
     2     2     3    1
     3     3     4    1
     4     4     5   ar
     5     5     6   ar
     6     6     7   ar
     7     7     8    2
     8     7     9   ar
     9     9    10   ar
    10    10    11   ar
    11    11    12   ar
    12    12    13   ar
    13    13    14   ar
    14     4    14   ar
    15     9    14   ar
    16     2    15   am
    17    15    16    1
    18    16    17    1
    19    17    18    1
    20    18    19   ar
    21    19    20   ar
    22    20    21   ar
    23    21    22   ar
    24    22    23   ar
    25    18    23   ar
    26     3    24    1
    27     3    25    1
    28     6    26    1
    29    15    27    1
    30    17    28    1
    31    17    29    1
    32    10    30    1
    33    11    31    1
    34    12    32    1
    35    13    33    1
    36    19    34    1
    37    20    35    1
    38    21    36    1
    39    22    37    1
    40    23    38    1
@<TRIPOS>MOLECULE
mol35_1_11
 38 40 0 0 0
SMALL
USER_CHARGES
****
VDW energy = -22.31
@<TRIPOS>ATOM
   1 O1        3.7237    -7.3011    -7.5348  O.2     1  <O>11      -0.2733
   2 C1        2.8314    -7.0491    -6.7389  C.2     1  <O>11       0.2415
   3 C2        2.0240    -5.8040    -6.8930  C.3     1  <O>11       0.0705
   4 C3        2.4990    -5.0500    -8.0820  C.ar    1  <O>11       0.0781
   5 N1        1.6195    -4.7865    -9.1392  N.ar    1  <O>11      -0.1748
   6 N2        2.0619    -4.1936   -10.2715  N.ar    1  <O>11      -0.2425
   7 C4        3.3676    -3.8466   -10.3651  C.ar    1  <O>11       0.2725
   8 O2        3.7846    -3.3236   -11.6051  O.2     1  <O>11      -0.2658
   9 C5        4.2889    -3.9807    -9.3160  C.ar    1  <O>11       0.0496
  10 C6        5.6382    -3.5642    -9.3918  C.ar    1  <O>11      -0.0487
  11 C7        6.5098    -3.7578    -8.3209  C.ar    1  <O>11      -0.0610
  12 C8        6.0564    -4.3740    -7.1603  C.ar    1  <O>11      -0.0611
  13 C9        4.7302    -4.7978    -7.0708  C.ar    1  <O>11      -0.0521
  14 C10       3.8298    -4.6029    -8.1424  C.ar    1  <O>11       0.0108
  15 N3        2.5730    -7.9090    -5.7050  N.am    1  <O>11      -0.1939
  16 O3        3.3360    -9.0850    -5.5590  O.3     1  <O>11      -0.2752
  17 C11       2.4710   -10.1860    -5.3340  C.3     1  <O>11       0.0983
  18 C12       3.2720   -11.4170    -5.1810  C.ar    1  <O>11      -0.0197
  19 C13       2.6200   -12.6310    -4.9510  C.ar    1  <O>11      -0.0563
  20 C14       3.3740   -13.8000    -4.7930  C.ar    1  <O>11      -0.0614
  21 C15       4.7670   -13.7540    -4.8690  C.ar    1  <O>11      -0.0617
  22 C16       5.4060   -12.5310    -5.1070  C.ar    1  <O>11      -0.0614
  23 C17       4.6630   -11.3600    -5.2680  C.ar    1  <O>11      -0.0563
  24 H1        2.1350    -5.1860    -6.0020  H       1  <O>11       0.0424
  25 H2        0.9740    -6.0660    -7.0250  H       1  <O>11       0.0424
  26 H3        1.4267    -4.0143   -11.0358  H       1  <O>11       0.1921
  27 H4        1.8280    -7.6990    -5.0410  H       1  <O>11       0.1825
  28 H5        1.8920   -10.0140    -4.4270  H       1  <O>11       0.0634
  29 H6        1.7940   -10.2960    -6.1810  H       1  <O>11       0.0634
  30 H7        5.9828    -3.1104   -10.2522  H       1  <O>11       0.0625
  31 H8        7.4905    -3.4439    -8.3897  H       1  <O>11       0.0618
  32 H9        6.6997    -4.5178    -6.3662  H       1  <O>11       0.0618
  33 H10       4.4018    -5.2606    -6.2089  H       1  <O>11       0.0624
  34 H11       1.5900   -12.6658    -4.8979  H       1  <O>11       0.0621
  35 H12       2.8981   -14.6992    -4.6197  H       1  <O>11       0.0618
  36 H13       5.3223   -14.6157    -4.7506  H       1  <O>11       0.0618
  37 H14       6.4358   -12.4949    -5.1639  H       1  <O>11       0.0618
  38 H15       5.1378   -10.4619    -5.4494  H       1  <O>11       0.0621
@<TRIPOS>BOND
     1     1     2    2
     2     2     3    1
     3     3     4    1
     4     4     5   ar
     5     5     6   ar
     6     6     7   ar
     7     7     8    2
     8     7     9   ar
     9     9    10   ar
    10    10    11   ar
    11    11    12   ar
    12    12    13   ar
    13    13    14   ar
    14     4    14   ar
    15     9    14   ar
    16     2    15   am
    17    15    16    1
    18    16    17    1
    19    17    18    1
    20    18    19   ar
    21    19    20   ar
    22    20    21   ar
    23    21    22   ar
    24    22    23   ar
    25    18    23   ar
    26     3    24    1
    27     3    25    1
    28     6    26    1
    29    15    27    1
    30    17    28    1
    31    17    29    1
    32    10    30    1
    33    11    31    1
    34    12    32    1
    35    13    33    1
    36    19    34    1
    37    20    35    1
    38    21    36    1
    39    22    37    1
    40    23    38    1
@<TRIPOS>MOLECULE
mol35_1_12
 38 40 0 0 0
SMALL
USER_CHARGES
****
VDW energy = -22.30
@<TRIPOS>ATOM
   1 O1        3.7237    -7.3011    -7.5348  O.2     1  <O>11      -0.2733
   2 C1        2.8314    -7.0491    -6.7389  C.2     1  <O>11       0.2415
   3 C2        2.0240    -5.8040    -6.8930  C.3     1  <O>11       0.0705
   4 C3        2.4990    -5.0500    -8.0820  C.ar    1  <O>11       0.0781
   5 N1        2.9917    -3.7479    -7.9324  N.ar    1  <O>11      -0.1748
   6 N2        3.3304    -3.0112    -9.0149  N.ar    1  <O>11      -0.2425
   7 C4        3.1973    -3.5548   -10.2481  C.ar    1  <O>11       0.2725
   8 O2        3.4733    -2.7033   -11.3361  O.2     1  <O>11      -0.2658
   9 C5        2.8108    -4.8833   -10.4788  C.ar    1  <O>11       0.0496
  10 C6        2.7288    -5.4702   -11.7629  C.ar    1  <O>11      -0.0487
  11 C7        2.3050    -6.7889   -11.9228  C.ar    1  <O>11      -0.0610
  12 C8        1.9500    -7.5431   -10.8105  C.ar    1  <O>11      -0.0611
  13 C9        2.0179    -6.9778    -9.5368  C.ar    1  <O>11      -0.0521
  14 C10       2.4529    -5.6457    -9.3538  C.ar    1  <O>11       0.0108
  15 N3        2.5730    -7.9090    -5.7050  N.am    1  <O>11      -0.1939
  16 O3        3.3360    -9.0850    -5.5590  O.3     1  <O>11      -0.2752
  17 C11       2.4710   -10.1860    -5.3340  C.3     1  <O>11       0.0983
  18 C12       1.5544   -10.3335    -6.4822  C.ar    1  <O>11      -0.0197
  19 C13       1.9320   -11.1422    -7.5571  C.ar    1  <O>11      -0.0563
  20 C14       1.0729   -11.2769    -8.6543  C.ar    1  <O>11      -0.0614
  21 C15      -0.1540   -10.6115    -8.6727  C.ar    1  <O>11      -0.0617
  22 C16      -0.5217    -9.8100    -7.5850  C.ar    1  <O>11      -0.0614
  23 C17       0.3270    -9.6709    -6.4852  C.ar    1  <O>11      -0.0563
  24 H1        2.1350    -5.1860    -6.0020  H       1  <O>11       0.0424
  25 H2        0.9740    -6.0660    -7.0250  H       1  <O>11       0.0424
  26 H3        3.6758    -2.0688    -8.9036  H       1  <O>11       0.1921
  27 H4        1.8280    -7.6990    -5.0410  H       1  <O>11       0.1825
  28 H5        3.0613   -11.0950    -5.2210  H       1  <O>11       0.0634
  29 H6        1.8920   -10.0145    -4.4267  H       1  <O>11       0.0634
  30 H7        2.9862    -4.9145   -12.5935  H       1  <O>11       0.0625
  31 H8        2.2550    -7.2046   -12.8661  H       1  <O>11       0.0618
  32 H9        1.6366    -8.5195   -10.9266  H       1  <O>11       0.0618
  33 H10       1.7465    -7.5411    -8.7158  H       1  <O>11       0.0624
  34 H11       2.8376   -11.6367    -7.5423  H       1  <O>11       0.0621
  35 H12       1.3478   -11.8704    -9.4526  H       1  <O>11       0.0618
  36 H13      -0.7859   -10.7097    -9.4826  H       1  <O>11       0.0618
  37 H14      -1.4285    -9.3175    -7.5965  H       1  <O>11       0.0618
  38 H15       0.0492    -9.0841    -5.6831  H       1  <O>11       0.0621
@<TRIPOS>BOND
     1     1     2    2
     2     2     3    1
     3     3     4    1
     4     4     5   ar
     5     5     6   ar
     6     6     7   ar
     7     7     8    2
     8     7     9   ar
     9     9    10   ar
    10    10    11   ar
    11    11    12   ar
    12    12    13   ar
    13    13    14   ar
    14     4    14   ar
    15     9    14   ar
    16     2    15   am
    17    15    16    1
    18    16    17    1
    19    17    18    1
    20    18    19   ar
    21    19    20   ar
    22    20    21   ar
    23    21    22   ar
    24    22    23   ar
    25    18    23   ar
    26     3    24    1
    27     3    25    1
    28     6    26    1
    29    15    27    1
    30    17    28    1
    31    17    29    1
    32    10    30    1
    33    11    31    1
    34    12    32    1
    35    13    33    1
    36    19    34    1
    37    20    35    1
    38    21    36    1
    39    22    37    1
    40    23    38    1
@<TRIPOS>MOLECULE
mol35_1_13
 38 40 0 0 0
SMALL
USER_CHARGES
****
VDW energy = -22.28
@<TRIPOS>ATOM
   1 O1        3.7237    -7.3011    -7.5348  O.2     1  <O>11      -0.2733
   2 C1        2.8314    -7.0491    -6.7389  C.2     1  <O>11       0.2415
   3 C2        2.0240    -5.8040    -6.8930  C.3     1  <O>11       0.0705
   4 C3        1.7686    -5.2109    -5.5548  C.ar    1  <O>11       0.0781
   5 N1        0.6283    -5.5824    -4.8321  N.ar    1  <O>11      -0.1748
   6 N2        0.3273    -4.9761    -3.6612  N.ar    1  <O>11      -0.2425
   7 C4        1.1516    -4.0105    -3.1896  C.ar    1  <O>11       0.2725
   8 O2        0.7307    -3.3515    -2.0177  O.2     1  <O>11      -0.2658
   9 C5        2.3639    -3.6528    -3.7976  C.ar    1  <O>11       0.0496
  10 C6        3.2547    -2.6868    -3.2747  C.ar    1  <O>11      -0.0487
  11 C7        4.4293    -2.3553    -3.9488  C.ar    1  <O>11      -0.0610
  12 C8        4.7343    -2.9733    -5.1559  C.ar    1  <O>11      -0.0611
  13 C9        3.8635    -3.9233    -5.6900  C.ar    1  <O>11      -0.0521
  14 C10       2.6724    -4.2786    -5.0175  C.ar    1  <O>11       0.0108
  15 N3        2.5730    -7.9090    -5.7050  N.am    1  <O>11      -0.1939
  16 O3        3.3360    -9.0850    -5.5590  O.3     1  <O>11      -0.2752
  17 C11       2.4710   -10.1860    -5.3340  C.3     1  <O>11       0.0983
  18 C12       1.6874    -9.9520    -4.1046  C.ar    1  <O>11      -0.0197
  19 C13       0.4571    -9.2962    -4.1942  C.ar    1  <O>11      -0.0563
  20 C14      -0.2855    -9.0605    -3.0309  C.ar    1  <O>11      -0.0614
  21 C15       0.1977    -9.4814    -1.7909  C.ar    1  <O>11      -0.0617
  22 C16       1.4292   -10.1437    -1.7177  C.ar    1  <O>11      -0.0614
  23 C17       2.1763   -10.3854    -2.8721  C.ar    1  <O>11      -0.0563
  24 H1        1.0746    -6.0432    -7.3722  H       1  <O>11       0.0424
  25 H2        2.5717    -5.0897    -7.5081  H       1  <O>11       0.0424
  26 H3       -0.5014    -5.2397    -3.1478  H       1  <O>11       0.1921
  27 H4        1.8280    -7.6990    -5.0410  H       1  <O>11       0.1825
  28 H5        1.7943   -10.2957    -6.1810  H       1  <O>11       0.0634
  29 H6        3.0611   -11.0953    -5.2212  H       1  <O>11       0.0634
  30 H7        3.0321    -2.2205    -2.3814  H       1  <O>11       0.0625
  31 H8        5.0716    -1.6517    -3.5518  H       1  <O>11       0.0618
  32 H9        5.6036    -2.7297    -5.6561  H       1  <O>11       0.0618
  33 H10       4.0926    -4.3736    -6.5899  H       1  <O>11       0.0624
  34 H11       0.0982    -8.9877    -5.1112  H       1  <O>11       0.0621
  35 H12      -1.1935    -8.5736    -3.0905  H       1  <O>11       0.0618
  36 H13      -0.3492    -9.3056    -0.9336  H       1  <O>11       0.0618
  37 H14       1.7880   -10.4560    -0.8019  H       1  <O>11       0.0618
  38 H15       3.0805   -10.8793    -2.8143  H       1  <O>11       0.0621
@<TRIPOS>BOND
     1     1     2    2
     2     2     3    1
     3     3     4    1
     4     4     5   ar
     5     5     6   ar
     6     6     7   ar
     7     7     8    2
     8     7     9   ar
     9     9    10   ar
    10    10    11   ar
    11    11    12   ar
    12    12    13   ar
    13    13    14   ar
    14     4    14   ar
    15     9    14   ar
    16     2    15   am
    17    15    16    1
    18    16    17    1
    19    17    18    1
    20    18    19   ar
    21    19    20   ar
    22    20    21   ar
    23    21    22   ar
    24    22    23   ar
    25    18    23   ar
    26     3    24    1
    27     3    25    1
    28     6    26    1
    29    15    27    1
    30    17    28    1
    31    17    29    1
    32    10    30    1
    33    11    31    1
    34    12    32    1
    35    13    33    1
    36    19    34    1
    37    20    35    1
    38    21    36    1
    39    22    37    1
    40    23    38    1
@<TRIPOS>MOLECULE
mol35_1_14
 38 40 0 0 0
SMALL
USER_CHARGES
****
VDW energy = -20.47
@<TRIPOS>ATOM
   1 O1        3.7237    -7.3011    -7.5348  O.2     1  <O>11      -0.2733
   2 C1        2.8314    -7.0491    -6.7389  C.2     1  <O>11       0.2415
   3 C2        2.0240    -5.8040    -6.8930  C.3     1  <O>11       0.0705
   4 C3        2.4990    -5.0500    -8.0820  C.ar    1  <O>11       0.0781
   5 N1        3.5560    -5.5520    -8.8510  N.ar    1  <O>11      -0.1748
   6 N2        4.0680    -4.8290    -9.8730  N.ar    1  <O>11      -0.2425
   7 C4        3.5360    -3.6150   -10.1510  C.ar    1  <O>11       0.2725
   8 O2        4.1770    -2.8720   -11.1620  O.2     1  <O>11      -0.2658
   9 C5        2.4130    -3.0860    -9.4980  C.ar    1  <O>11       0.0496
  10 C6        1.8200    -1.8450    -9.8270  C.ar    1  <O>11      -0.0487
  11 C7        0.7230    -1.3630    -9.1140  C.ar    1  <O>11      -0.0610
  12 C8        0.2020    -2.1030    -8.0590  C.ar    1  <O>11      -0.0611
  13 C9        0.7790    -3.3260    -7.7160  C.ar    1  <O>11      -0.0521
  14 C10       1.8860    -3.8350    -8.4320  C.ar    1  <O>11       0.0108
  15 N3        2.5730    -7.9090    -5.7050  N.am    1  <O>11      -0.1939
  16 O3        3.3360    -9.0850    -5.5590  O.3     1  <O>11      -0.2752
  17 C11       2.4710   -10.1860    -5.3340  C.3     1  <O>11       0.0983
  18 C12       3.2720   -11.4170    -5.1810  C.ar    1  <O>11      -0.0197
  19 C13       2.6200   -12.6310    -4.9510  C.ar    1  <O>11      -0.0563
  20 C14       3.3740   -13.8000    -4.7930  C.ar    1  <O>11      -0.0614
  21 C15       4.7670   -13.7540    -4.8690  C.ar    1  <O>11      -0.0617
  22 C16       5.4060   -12.5310    -5.1070  C.ar    1  <O>11      -0.0614
  23 C17       4.6630   -11.3600    -5.2680  C.ar    1  <O>11      -0.0563
  24 H1        2.1350    -5.1860    -6.0020  H       1  <O>11       0.0424
  25 H2        0.9740    -6.0660    -7.0250  H       1  <O>11       0.0424
  26 H3        4.8370    -5.1900   -10.4190  H       1  <O>11       0.1921
  27 H4        1.8280    -7.6990    -5.0410  H       1  <O>11       0.1825
  28 H5        1.8920   -10.0140    -4.4270  H       1  <O>11       0.0634
  29 H6        1.7940   -10.2960    -6.1810  H       1  <O>11       0.0634
  30 H7        2.2047    -1.2881   -10.6060  H       1  <O>11       0.0625
  31 H8        0.2983    -0.4577    -9.3693  H       1  <O>11       0.0618
  32 H9       -0.6103    -1.7483    -7.5303  H       1  <O>11       0.0618
  33 H10       0.3915    -3.8673    -6.9274  H       1  <O>11       0.0624
  34 H11       1.5900   -12.6658    -4.8979  H       1  <O>11       0.0621
  35 H12       2.8981   -14.6992    -4.6197  H       1  <O>11       0.0618
  36 H13       5.3223   -14.6157    -4.7506  H       1  <O>11       0.0618
  37 H14       6.4358   -12.4949    -5.1639  H       1  <O>11       0.0618
  38 H15       5.1378   -10.4619    -5.4494  H       1  <O>11       0.0621
@<TRIPOS>BOND
     1     1     2    2
     2     2     3    1
     3     3     4    1
     4     4     5   ar
     5     5     6   ar
     6     6     7   ar
     7     7     8    2
     8     7     9   ar
     9     9    10   ar
    10    10    11   ar
    11    11    12   ar
    12    12    13   ar
    13    13    14   ar
    14     4    14   ar
    15     9    14   ar
    16     2    15   am
    17    15    16    1
    18    16    17    1
    19    17    18    1
    20    18    19   ar
    21    19    20   ar
    22    20    21   ar
    23    21    22   ar
    24    22    23   ar
    25    18    23   ar
    26     3    24    1
    27     3    25    1
    28     6    26    1
    29    15    27    1
    30    17    28    1
    31    17    29    1
    32    10    30    1
    33    11    31    1
    34    12    32    1
    35    13    33    1
    36    19    34    1
    37    20    35    1
    38    21    36    1
    39    22    37    1
    40    23    38    1
@<TRIPOS>MOLECULE
mol35_1_15
 38 40 0 0 0
SMALL
USER_CHARGES
****
VDW energy = -19.86
@<TRIPOS>ATOM
   1 O1        3.7237    -7.3011    -7.5348  O.2     1  <O>11      -0.2733
   2 C1        2.8314    -7.0491    -6.7389  C.2     1  <O>11       0.2415
   3 C2        2.0240    -5.8040    -6.8930  C.3     1  <O>11       0.0705
   4 C3        2.4990    -5.0500    -8.0820  C.ar    1  <O>11       0.0781
   5 N1        2.9917    -3.7479    -7.9324  N.ar    1  <O>11      -0.1748
   6 N2        3.3304    -3.0112    -9.0149  N.ar    1  <O>11      -0.2425
   7 C4        3.1973    -3.5548   -10.2481  C.ar    1  <O>11       0.2725
   8 O2        3.4733    -2.7033   -11.3361  O.2     1  <O>11      -0.2658
   9 C5        2.8108    -4.8833   -10.4788  C.ar    1  <O>11       0.0496
  10 C6        2.7288    -5.4702   -11.7629  C.ar    1  <O>11      -0.0487
  11 C7        2.3050    -6.7889   -11.9228  C.ar    1  <O>11      -0.0610
  12 C8        1.9500    -7.5431   -10.8105  C.ar    1  <O>11      -0.0611
  13 C9        2.0179    -6.9778    -9.5368  C.ar    1  <O>11      -0.0521
  14 C10       2.4529    -5.6457    -9.3538  C.ar    1  <O>11       0.0108
  15 N3        2.5730    -7.9090    -5.7050  N.am    1  <O>11      -0.1939
  16 O3        3.3360    -9.0850    -5.5590  O.3     1  <O>11      -0.2752
  17 C11       2.4710   -10.1860    -5.3340  C.3     1  <O>11       0.0983
  18 C12       3.2720   -11.4170    -5.1810  C.ar    1  <O>11      -0.0197
  19 C13       2.6200   -12.6310    -4.9510  C.ar    1  <O>11      -0.0563
  20 C14       3.3740   -13.8000    -4.7930  C.ar    1  <O>11      -0.0614
  21 C15       4.7670   -13.7540    -4.8690  C.ar    1  <O>11      -0.0617
  22 C16       5.4060   -12.5310    -5.1070  C.ar    1  <O>11      -0.0614
  23 C17       4.6630   -11.3600    -5.2680  C.ar    1  <O>11      -0.0563
  24 H1        2.1350    -5.1860    -6.0020  H       1  <O>11       0.0424
  25 H2        0.9740    -6.0660    -7.0250  H       1  <O>11       0.0424
  26 H3        3.6758    -2.0688    -8.9036  H       1  <O>11       0.1921
  27 H4        1.8280    -7.6990    -5.0410  H       1  <O>11       0.1825
  28 H5        1.8920   -10.0140    -4.4270  H       1  <O>11       0.0634
  29 H6        1.7940   -10.2960    -6.1810  H       1  <O>11       0.0634
  30 H7        2.9862    -4.9145   -12.5935  H       1  <O>11       0.0625
  31 H8        2.2550    -7.2046   -12.8661  H       1  <O>11       0.0618
  32 H9        1.6366    -8.5195   -10.9266  H       1  <O>11       0.0618
  33 H10       1.7465    -7.5411    -8.7158  H       1  <O>11       0.0624
  34 H11       1.5900   -12.6658    -4.8979  H       1  <O>11       0.0621
  35 H12       2.8981   -14.6992    -4.6197  H       1  <O>11       0.0618
  36 H13       5.3223   -14.6157    -4.7506  H       1  <O>11       0.0618
  37 H14       6.4358   -12.4949    -5.1639  H       1  <O>11       0.0618
  38 H15       5.1378   -10.4619    -5.4494  H       1  <O>11       0.0621
@<TRIPOS>BOND
     1     1     2    2
     2     2     3    1
     3     3     4    1
     4     4     5   ar
     5     5     6   ar
     6     6     7   ar
     7     7     8    2
     8     7     9   ar
     9     9    10   ar
    10    10    11   ar
    11    11    12   ar
    12    12    13   ar
    13    13    14   ar
    14     4    14   ar
    15     9    14   ar
    16     2    15   am
    17    15    16    1
    18    16    17    1
    19    17    18    1
    20    18    19   ar
    21    19    20   ar
    22    20    21   ar
    23    21    22   ar
    24    22    23   ar
    25    18    23   ar
    26     3    24    1
    27     3    25    1
    28     6    26    1
    29    15    27    1
    30    17    28    1
    31    17    29    1
    32    10    30    1
    33    11    31    1
    34    12    32    1
    35    13    33    1
    36    19    34    1
    37    20    35    1
    38    21    36    1
    39    22    37    1
    40    23    38    1
@<TRIPOS>MOLECULE
mol35_1_16
 38 40 0 0 0
SMALL
USER_CHARGES
****
VDW energy = -17.53
@<TRIPOS>ATOM
   1 O1        3.7237    -7.3011    -7.5348  O.2     1  <O>11      -0.2733
   2 C1        2.8314    -7.0491    -6.7389  C.2     1  <O>11       0.2415
   3 C2        2.0240    -5.8040    -6.8930  C.3     1  <O>11       0.0705
   4 C3        2.4990    -5.0500    -8.0820  C.ar    1  <O>11       0.0781
   5 N1        2.9917    -3.7479    -7.9324  N.ar    1  <O>11      -0.1748
   6 N2        3.3304    -3.0112    -9.0149  N.ar    1  <O>11      -0.2425
   7 C4        3.1973    -3.5548   -10.2481  C.ar    1  <O>11       0.2725
   8 O2        3.4733    -2.7033   -11.3361  O.2     1  <O>11      -0.2658
   9 C5        2.8108    -4.8833   -10.4788  C.ar    1  <O>11       0.0496
  10 C6        2.7288    -5.4702   -11.7629  C.ar    1  <O>11      -0.0487
  11 C7        2.3050    -6.7889   -11.9228  C.ar    1  <O>11      -0.0610
  12 C8        1.9500    -7.5431   -10.8105  C.ar    1  <O>11      -0.0611
  13 C9        2.0179    -6.9778    -9.5368  C.ar    1  <O>11      -0.0521
  14 C10       2.4529    -5.6457    -9.3538  C.ar    1  <O>11       0.0108
  15 N3        2.5730    -7.9090    -5.7050  N.am    1  <O>11      -0.1939
  16 O3        3.3360    -9.0850    -5.5590  O.3     1  <O>11      -0.2752
  17 C11       2.4710   -10.1860    -5.3340  C.3     1  <O>11       0.0983
  18 C12       1.6874    -9.9520    -4.1046  C.ar    1  <O>11      -0.0197
  19 C13       0.4571    -9.2962    -4.1942  C.ar    1  <O>11      -0.0563
  20 C14      -0.2855    -9.0605    -3.0309  C.ar    1  <O>11      -0.0614
  21 C15       0.1977    -9.4814    -1.7909  C.ar    1  <O>11      -0.0617
  22 C16       1.4292   -10.1437    -1.7177  C.ar    1  <O>11      -0.0614
  23 C17       2.1763   -10.3854    -2.8721  C.ar    1  <O>11      -0.0563
  24 H1        2.1350    -5.1860    -6.0020  H       1  <O>11       0.0424
  25 H2        0.9740    -6.0660    -7.0250  H       1  <O>11       0.0424
  26 H3        3.6758    -2.0688    -8.9036  H       1  <O>11       0.1921
  27 H4        1.8280    -7.6990    -5.0410  H       1  <O>11       0.1825
  28 H5        1.7943   -10.2957    -6.1810  H       1  <O>11       0.0634
  29 H6        3.0611   -11.0953    -5.2212  H       1  <O>11       0.0634
  30 H7        2.9862    -4.9145   -12.5935  H       1  <O>11       0.0625
  31 H8        2.2550    -7.2046   -12.8661  H       1  <O>11       0.0618
  32 H9        1.6366    -8.5195   -10.9266  H       1  <O>11       0.0618
  33 H10       1.7465    -7.5411    -8.7158  H       1  <O>11       0.0624
  34 H11       0.0982    -8.9877    -5.1112  H       1  <O>11       0.0621
  35 H12      -1.1935    -8.5736    -3.0905  H       1  <O>11       0.0618
  36 H13      -0.3492    -9.3056    -0.9336  H       1  <O>11       0.0618
  37 H14       1.7880   -10.4560    -0.8019  H       1  <O>11       0.0618
  38 H15       3.0805   -10.8793    -2.8143  H       1  <O>11       0.0621
@<TRIPOS>BOND
     1     1     2    2
     2     2     3    1
     3     3     4    1
     4     4     5   ar
     5     5     6   ar
     6     6     7   ar
     7     7     8    2
     8     7     9   ar
     9     9    10   ar
    10    10    11   ar
    11    11    12   ar
    12    12    13   ar
    13    13    14   ar
    14     4    14   ar
    15     9    14   ar
    16     2    15   am
    17    15    16    1
    18    16    17    1
    19    17    18    1
    20    18    19   ar
    21    19    20   ar
    22    20    21   ar
    23    21    22   ar
    24    22    23   ar
    25    18    23   ar
    26     3    24    1
    27     3    25    1
    28     6    26    1
    29    15    27    1
    30    17    28    1
    31    17    29    1
    32    10    30    1
    33    11    31    1
    34    12    32    1
    35    13    33    1
    36    19    34    1
    37    20    35    1
    38    21    36    1
    39    22    37    1
    40    23    38    1
@<TRIPOS>MOLECULE
mol35_1_17
 38 40 0 0 0
SMALL
USER_CHARGES
****
VDW energy = -15.32
@<TRIPOS>ATOM
   1 O1        3.7237    -7.3011    -7.5348  O.2     1  <O>11      -0.2733
   2 C1        2.8314    -7.0491    -6.7389  C.2     1  <O>11       0.2415
   3 C2        2.0240    -5.8040    -6.8930  C.3     1  <O>11       0.0705
   4 C3        1.7686    -5.2109    -5.5548  C.ar    1  <O>11       0.0781
   5 N1        2.2712    -5.8351    -4.4066  N.ar    1  <O>11      -0.1748
   6 N2        1.9608    -5.3666    -3.1763  N.ar    1  <O>11      -0.2425
   7 C4        1.1649    -4.2761    -3.0694  C.ar    1  <O>11       0.2725
   8 O2        0.8001    -3.8984    -1.7620  O.2     1  <O>11      -0.2658
   9 C5        0.7059    -3.5332    -4.1670  C.ar    1  <O>11       0.0496
  10 C6       -0.0759    -2.3600    -4.0552  C.ar    1  <O>11      -0.0487
  11 C7       -0.5268    -1.6879    -5.1905  C.ar    1  <O>11      -0.0610
  12 C8       -0.2138    -2.1740    -6.4545  C.ar    1  <O>11      -0.0611
  13 C9        0.5504    -3.3341    -6.5835  C.ar    1  <O>11      -0.0521
  14 C10       1.0235    -4.0246    -5.4448  C.ar    1  <O>11       0.0108
  15 N3        2.5730    -7.9090    -5.7050  N.am    1  <O>11      -0.1939
  16 O3        3.3360    -9.0850    -5.5590  O.3     1  <O>11      -0.2752
  17 C11       2.4710   -10.1860    -5.3340  C.3     1  <O>11       0.0983
  18 C12       1.6874    -9.9520    -4.1046  C.ar    1  <O>11      -0.0197
  19 C13       2.3574    -9.7823    -2.8904  C.ar    1  <O>11      -0.0563
  20 C14       1.6200    -9.5722    -1.7190  C.ar    1  <O>11      -0.0614
  21 C15       0.2256    -9.5281    -1.7641  C.ar    1  <O>11      -0.0617
  22 C16      -0.4316    -9.6929    -2.9895  C.ar    1  <O>11      -0.0614
  23 C17       0.2947    -9.9010    -4.1636  C.ar    1  <O>11      -0.0563
  24 H1        1.0746    -6.0432    -7.3722  H       1  <O>11       0.0424
  25 H2        2.5717    -5.0897    -7.5081  H       1  <O>11       0.0424
  26 H3        2.3170    -5.8255    -2.3503  H       1  <O>11       0.1921
  27 H4        1.8280    -7.6990    -5.0410  H       1  <O>11       0.1825
  28 H5        1.7943   -10.2957    -6.1810  H       1  <O>11       0.0634
  29 H6        3.0611   -11.0953    -5.2212  H       1  <O>11       0.0634
  30 H7       -0.3161    -1.9962    -3.1198  H       1  <O>11       0.0625
  31 H8       -1.0925    -0.8302    -5.0924  H       1  <O>11       0.0618
  32 H9       -0.5461    -1.6777    -7.2961  H       1  <O>11       0.0618
  33 H10       0.7736    -3.6935    -7.5248  H       1  <O>11       0.0624
  34 H11       3.3884    -9.8118    -2.8573  H       1  <O>11       0.0621
  35 H12       2.1093    -9.4493    -0.8187  H       1  <O>11       0.0618
  36 H13      -0.3174    -9.3750    -0.9001  H       1  <O>11       0.0618
  37 H14      -1.4625    -9.6603    -3.0251  H       1  <O>11       0.0618
  38 H15      -0.1936   -10.0157    -5.0655  H       1  <O>11       0.0621
@<TRIPOS>BOND
     1     1     2    2
     2     2     3    1
     3     3     4    1
     4     4     5   ar
     5     5     6   ar
     6     6     7   ar
     7     7     8    2
     8     7     9   ar
     9     9    10   ar
    10    10    11   ar
    11    11    12   ar
    12    12    13   ar
    13    13    14   ar
    14     4    14   ar
    15     9    14   ar
    16     2    15   am
    17    15    16    1
    18    16    17    1
    19    17    18    1
    20    18    19   ar
    21    19    20   ar
    22    20    21   ar
    23    21    22   ar
    24    22    23   ar
    25    18    23   ar
    26     3    24    1
    27     3    25    1
    28     6    26    1
    29    15    27    1
    30    17    28    1
    31    17    29    1
    32    10    30    1
    33    11    31    1
    34    12    32    1
    35    13    33    1
    36    19    34    1
    37    20    35    1
    38    21    36    1
    39    22    37    1
    40    23    38    1
@<TRIPOS>MOLECULE
mol35_1_18
 38 40 0 0 0
SMALL
USER_CHARGES
****
VDW energy = -13.36
@<TRIPOS>ATOM
   1 O1        3.7237    -7.3011    -7.5348  O.2     1  <O>11      -0.2733
   2 C1        2.8314    -7.0491    -6.7389  C.2     1  <O>11       0.2415
   3 C2        2.0240    -5.8040    -6.8930  C.3     1  <O>11       0.0705
   4 C3        0.6005    -6.0956    -6.5825  C.ar    1  <O>11       0.0781
   5 N1        0.2170    -7.3909    -6.2143  N.ar    1  <O>11      -0.1748
   6 N2       -1.0876    -7.6965    -6.0298  N.ar    1  <O>11      -0.2425
   7 C4       -2.0197    -6.7280    -6.1950  C.ar    1  <O>11       0.2725
   8 O2       -3.3644    -7.1339    -6.0847  O.2     1  <O>11      -0.2658
   9 C5       -1.7127    -5.3855    -6.4610  C.ar    1  <O>11       0.0496
  10 C6       -2.6815    -4.3616    -6.5749  C.ar    1  <O>11      -0.0487
  11 C7       -2.3087    -3.0517    -6.8738  C.ar    1  <O>11      -0.0610
  12 C8       -0.9686    -2.7397    -7.0707  C.ar    1  <O>11      -0.0611
  13 C9       -0.0001    -3.7388    -6.9693  C.ar    1  <O>11      -0.0521
  14 C10      -0.3575    -5.0704    -6.6590  C.ar    1  <O>11       0.0108
  15 N3        2.5730    -7.9090    -5.7050  N.am    1  <O>11      -0.1939
  16 O3        3.3360    -9.0850    -5.5590  O.3     1  <O>11      -0.2752
  17 C11       2.4710   -10.1860    -5.3340  C.3     1  <O>11       0.0983
  18 C12       3.2720   -11.4170    -5.1810  C.ar    1  <O>11      -0.0197
  19 C13       2.6200   -12.6310    -4.9510  C.ar    1  <O>11      -0.0563
  20 C14       3.3740   -13.8000    -4.7930  C.ar    1  <O>11      -0.0614
  21 C15       4.7670   -13.7540    -4.8690  C.ar    1  <O>11      -0.0617
  22 C16       5.4060   -12.5310    -5.1070  C.ar    1  <O>11      -0.0614
  23 C17       4.6630   -11.3600    -5.2680  C.ar    1  <O>11      -0.0563
  24 H1        2.1062    -5.4418    -7.9178  H       1  <O>11       0.0424
  25 H2        2.3964    -5.0424    -6.2075  H       1  <O>11       0.0424
  26 H3       -1.3612    -8.6344    -5.7740  H       1  <O>11       0.1921
  27 H4        1.8280    -7.6990    -5.0410  H       1  <O>11       0.1825
  28 H5        1.8920   -10.0140    -4.4270  H       1  <O>11       0.0634
  29 H6        1.7940   -10.2960    -6.1810  H       1  <O>11       0.0634
  30 H7       -3.6787    -4.5870    -6.4347  H       1  <O>11       0.0625
  31 H8       -3.0271    -2.3145    -6.9488  H       1  <O>11       0.0618
  32 H9       -0.6904    -1.7707    -7.2915  H       1  <O>11       0.0618
  33 H10       0.9925    -3.5018    -7.1232  H       1  <O>11       0.0624
  34 H11       1.5900   -12.6658    -4.8979  H       1  <O>11       0.0621
  35 H12       2.8981   -14.6992    -4.6197  H       1  <O>11       0.0618
  36 H13       5.3223   -14.6157    -4.7506  H       1  <O>11       0.0618
  37 H14       6.4358   -12.4949    -5.1639  H       1  <O>11       0.0618
  38 H15       5.1378   -10.4619    -5.4494  H       1  <O>11       0.0621
@<TRIPOS>BOND
     1     1     2    2
     2     2     3    1
     3     3     4    1
     4     4     5   ar
     5     5     6   ar
     6     6     7   ar
     7     7     8    2
     8     7     9   ar
     9     9    10   ar
    10    10    11   ar
    11    11    12   ar
    12    12    13   ar
    13    13    14   ar
    14     4    14   ar
    15     9    14   ar
    16     2    15   am
    17    15    16    1
    18    16    17    1
    19    17    18    1
    20    18    19   ar
    21    19    20   ar
    22    20    21   ar
    23    21    22   ar
    24    22    23   ar
    25    18    23   ar
    26     3    24    1
    27     3    25    1
    28     6    26    1
    29    15    27    1
    30    17    28    1
    31    17    29    1
    32    10    30    1
    33    11    31    1
    34    12    32    1
    35    13    33    1
    36    19    34    1
    37    20    35    1
    38    21    36    1
    39    22    37    1
    40    23    38    1
@<TRIPOS>MOLECULE
mol35_1_19
 38 40 0 0 0
SMALL
USER_CHARGES
****
VDW energy = -8.58
@<TRIPOS>ATOM
   1 O1        3.7237    -7.3011    -7.5348  O.2     1  <O>11      -0.2733
   2 C1        2.8314    -7.0491    -6.7389  C.2     1  <O>11       0.2415
   3 C2        2.0240    -5.8040    -6.8930  C.3     1  <O>11       0.0705
   4 C3        1.7686    -5.2109    -5.5548  C.ar    1  <O>11       0.0781
   5 N1        2.2712    -5.8351    -4.4066  N.ar    1  <O>11      -0.1748
   6 N2        1.9608    -5.3666    -3.1763  N.ar    1  <O>11      -0.2425
   7 C4        1.1649    -4.2761    -3.0694  C.ar    1  <O>11       0.2725
   8 O2        0.8001    -3.8984    -1.7620  O.2     1  <O>11      -0.2658
   9 C5        0.7059    -3.5332    -4.1670  C.ar    1  <O>11       0.0496
  10 C6       -0.0759    -2.3600    -4.0552  C.ar    1  <O>11      -0.0487
  11 C7       -0.5268    -1.6879    -5.1905  C.ar    1  <O>11      -0.0610
  12 C8       -0.2138    -2.1740    -6.4545  C.ar    1  <O>11      -0.0611
  13 C9        0.5504    -3.3341    -6.5835  C.ar    1  <O>11      -0.0521
  14 C10       1.0235    -4.0246    -5.4448  C.ar    1  <O>11       0.0108
  15 N3        2.5730    -7.9090    -5.7050  N.am    1  <O>11      -0.1939
  16 O3        3.3360    -9.0850    -5.5590  O.3     1  <O>11      -0.2752
  17 C11       3.7485    -9.2174    -4.2087  C.3     1  <O>11       0.0983
  18 C12       4.5674    -8.0491    -3.8282  C.ar    1  <O>11      -0.0197
  19 C13       5.7475    -7.7861    -4.5282  C.ar    1  <O>11      -0.0563
  20 C14       6.5349    -6.6870    -4.1648  C.ar    1  <O>11      -0.0614
  21 C15       6.1418    -5.8572    -3.1135  C.ar    1  <O>11      -0.0617
  22 C16       4.9528    -6.1294    -2.4258  C.ar    1  <O>11      -0.0614
  23 C17       4.1596    -7.2218    -2.7818  C.ar    1  <O>11      -0.0563
  24 H1        1.0746    -6.0432    -7.3722  H       1  <O>11       0.0424
  25 H2        2.5717    -5.0897    -7.5081  H       1  <O>11       0.0424
  26 H3        2.3170    -5.8255    -2.3503  H       1  <O>11       0.1921
  27 H4        1.8280    -7.6990    -5.0410  H       1  <O>11       0.1825
  28 H5        2.8714    -9.2719    -3.5643  H       1  <O>11       0.0634
  29 H6        4.3385   -10.1269    -4.0959  H       1  <O>11       0.0634
  30 H7       -0.3161    -1.9962    -3.1198  H       1  <O>11       0.0625
  31 H8       -1.0925    -0.8302    -5.0924  H       1  <O>11       0.0618
  32 H9       -0.5461    -1.6777    -7.2961  H       1  <O>11       0.0618
  33 H10       0.7736    -3.6935    -7.5248  H       1  <O>11       0.0624
  34 H11       6.0368    -8.3976    -5.3075  H       1  <O>11       0.0621
  35 H12       7.4093    -6.4895    -4.6761  H       1  <O>11       0.0618
  36 H13       6.7235    -5.0483    -2.8449  H       1  <O>11       0.0618
  37 H14       4.6602    -5.5169    -1.6485  H       1  <O>11       0.0618
  38 H15       3.2810    -7.4151    -2.2762  H       1  <O>11       0.0621
@<TRIPOS>BOND
     1     1     2    2
     2     2     3    1
     3     3     4    1
     4     4     5   ar
     5     5     6   ar
     6     6     7   ar
     7     7     8    2
     8     7     9   ar
     9     9    10   ar
    10    10    11   ar
    11    11    12   ar
    12    12    13   ar
    13    13    14   ar
    14     4    14   ar
    15     9    14   ar
    16     2    15   am
    17    15    16    1
    18    16    17    1
    19    17    18    1
    20    18    19   ar
    21    19    20   ar
    22    20    21   ar
    23    21    22   ar
    24    22    23   ar
    25    18    23   ar
    26     3    24    1
    27     3    25    1
    28     6    26    1
    29    15    27    1
    30    17    28    1
    31    17    29    1
    32    10    30    1
    33    11    31    1
    34    12    32    1
    35    13    33    1
    36    19    34    1
    37    20    35    1
    38    21    36    1
    39    22    37    1
    40    23    38    1
@<TRIPOS>MOLECULE
mol35_1_20
 38 40 0 0 0
SMALL
USER_CHARGES
****
VDW energy = -3.42
@<TRIPOS>ATOM
   1 O1        3.7237    -7.3011    -7.5348  O.2     1  <O>11      -0.2733
   2 C1        2.8314    -7.0491    -6.7389  C.2     1  <O>11       0.2415
   3 C2        2.0240    -5.8040    -6.8930  C.3     1  <O>11       0.0705
   4 C3        2.4990    -5.0500    -8.0820  C.ar    1  <O>11       0.0781
   5 N1        1.9300    -5.2952    -9.3377  N.ar    1  <O>11      -0.1748
   6 N2        2.4210    -4.6940   -10.4454  N.ar    1  <O>11      -0.2425
   7 C4        3.4653    -3.8406   -10.3223  C.ar    1  <O>11       0.2725
   8 O2        3.9914    -3.3245   -11.5231  O.2     1  <O>11      -0.2658
   9 C5        4.0244    -3.4621    -9.0928  C.ar    1  <O>11       0.0496
  10 C6        5.0757    -2.5259    -8.9581  C.ar    1  <O>11      -0.0487
  11 C7        5.6072    -2.2196    -7.7060  C.ar    1  <O>11      -0.0610
  12 C8        5.1073    -2.8434    -6.5689  C.ar    1  <O>11      -0.0611
  13 C9        4.0752    -3.7750    -6.6839  C.ar    1  <O>11      -0.0521
  14 C10       3.5179    -4.0924    -7.9433  C.ar    1  <O>11       0.0108
  15 N3        2.5730    -7.9090    -5.7050  N.am    1  <O>11      -0.1939
  16 O3        3.3360    -9.0850    -5.5590  O.3     1  <O>11      -0.2752
  17 C11       4.3015    -9.1550    -6.5953  C.3     1  <O>11       0.0983
  18 C12       5.0996   -10.3876    -6.4410  C.ar    1  <O>11      -0.0197
  19 C13       6.2638   -10.3544    -5.6693  C.ar    1  <O>11      -0.0563
  20 C14       7.0317   -11.5166    -5.5287  C.ar    1  <O>11      -0.0614
  21 C15       6.6350   -12.7012    -6.1513  C.ar    1  <O>11      -0.0617
  22 C16       5.4621   -12.7208    -6.9158  C.ar    1  <O>11      -0.0614
  23 C17       4.6883   -11.5677    -7.0605  C.ar    1  <O>11      -0.0563
  24 H1        2.1350    -5.1860    -6.0020  H       1  <O>11       0.0424
  25 H2        0.9740    -6.0660    -7.0250  H       1  <O>11       0.0424
  26 H3        2.0145    -4.8811   -11.3507  H       1  <O>11       0.1921
  27 H4        1.8280    -7.6990    -5.0410  H       1  <O>11       0.1825
  28 H5        3.7976    -9.1668    -7.5615  H       1  <O>11       0.0634
  29 H6        4.9587    -8.2873    -6.5397  H       1  <O>11       0.0634
  30 H7        5.4549    -2.0626    -9.7987  H       1  <O>11       0.0625
  31 H8        6.3711    -1.5306    -7.6236  H       1  <O>11       0.0618
  32 H9        5.4989    -2.6178    -5.6411  H       1  <O>11       0.0618
  33 H10       3.7131    -4.2395    -5.8365  H       1  <O>11       0.0624
  34 H11       6.5556    -9.4796    -5.2064  H       1  <O>11       0.0621
  35 H12       7.8944   -11.4974    -4.9626  H       1  <O>11       0.0618
  36 H13       7.2025   -13.5570    -6.0488  H       1  <O>11       0.0618
  37 H14       5.1668   -13.5957    -7.3767  H       1  <O>11       0.0618
  38 H15       3.8212   -11.5883    -7.6198  H       1  <O>11       0.0621
@<TRIPOS>BOND
     1     1     2    2
     2     2     3    1
     3     3     4    1
     4     4     5   ar
     5     5     6   ar
     6     6     7   ar
     7     7     8    2
     8     7     9   ar
     9     9    10   ar
    10    10    11   ar
    11    11    12   ar
    12    12    13   ar
    13    13    14   ar
    14     4    14   ar
    15     9    14   ar
    16     2    15   am
    17    15    16    1
    18    16    17    1
    19    17    18    1
    20    18    19   ar
    21    19    20   ar
    22    20    21   ar
    23    21    22   ar
    24    22    23   ar
    25    18    23   ar
    26     3    24    1
    27     3    25    1
    28     6    26    1
    29    15    27    1
    30    17    28    1
    31    17    29    1
    32    10    30    1
    33    11    31    1
    34    12    32    1
    35    13    33    1
    36    19    34    1
    37    20    35    1
    38    21    36    1
    39    22    37    1
    40    23    38    1
@<TRIPOS>MOLECULE
mol35_1_21
 38 40 0 0 0
SMALL
USER_CHARGES
****
VDW energy = -2.87
@<TRIPOS>ATOM
   1 O1        3.7237    -7.3011    -7.5348  O.2     1  <O>11      -0.2733
   2 C1        2.8314    -7.0491    -6.7389  C.2     1  <O>11       0.2415
   3 C2        2.0240    -5.8040    -6.8930  C.3     1  <O>11       0.0705
   4 C3        2.4990    -5.0500    -8.0820  C.ar    1  <O>11       0.0781
   5 N1        1.9300    -5.2952    -9.3377  N.ar    1  <O>11      -0.1748
   6 N2        2.4210    -4.6940   -10.4454  N.ar    1  <O>11      -0.2425
   7 C4        3.4653    -3.8406   -10.3223  C.ar    1  <O>11       0.2725
   8 O2        3.9914    -3.3245   -11.5231  O.2     1  <O>11      -0.2658
   9 C5        4.0244    -3.4621    -9.0928  C.ar    1  <O>11       0.0496
  10 C6        5.0757    -2.5259    -8.9581  C.ar    1  <O>11      -0.0487
  11 C7        5.6072    -2.2196    -7.7060  C.ar    1  <O>11      -0.0610
  12 C8        5.1073    -2.8434    -6.5689  C.ar    1  <O>11      -0.0611
  13 C9        4.0752    -3.7750    -6.6839  C.ar    1  <O>11      -0.0521
  14 C10       3.5179    -4.0924    -7.9433  C.ar    1  <O>11       0.0108
  15 N3        2.5730    -7.9090    -5.7050  N.am    1  <O>11      -0.1939
  16 O3        3.3360    -9.0850    -5.5590  O.3     1  <O>11      -0.2752
  17 C11       4.3015    -9.1550    -6.5953  C.3     1  <O>11       0.0983
  18 C12       5.0996   -10.3876    -6.4410  C.ar    1  <O>11      -0.0197
  19 C13       4.4558   -11.6268    -6.4813  C.ar    1  <O>11      -0.0563
  20 C14       5.2048   -12.7990    -6.3236  C.ar    1  <O>11      -0.0614
  21 C15       6.5857   -12.7307    -6.1318  C.ar    1  <O>11      -0.0617
  22 C16       7.2180   -11.4817    -6.1006  C.ar    1  <O>11      -0.0614
  23 C17       6.4803   -10.3071    -6.2590  C.ar    1  <O>11      -0.0563
  24 H1        2.1350    -5.1860    -6.0020  H       1  <O>11       0.0424
  25 H2        0.9740    -6.0660    -7.0250  H       1  <O>11       0.0424
  26 H3        2.0145    -4.8811   -11.3507  H       1  <O>11       0.1921
  27 H4        1.8280    -7.6990    -5.0410  H       1  <O>11       0.1825
  28 H5        3.7976    -9.1668    -7.5615  H       1  <O>11       0.0634
  29 H6        4.9587    -8.2873    -6.5397  H       1  <O>11       0.0634
  30 H7        5.4549    -2.0626    -9.7987  H       1  <O>11       0.0625
  31 H8        6.3711    -1.5306    -7.6236  H       1  <O>11       0.0618
  32 H9        5.4989    -2.6178    -5.6411  H       1  <O>11       0.0618
  33 H10       3.7131    -4.2395    -5.8365  H       1  <O>11       0.0624
  34 H11       3.4353   -11.6778    -6.6262  H       1  <O>11       0.0621
  35 H12       4.7343   -13.7172    -6.3492  H       1  <O>11       0.0618
  36 H13       7.1371   -13.5950    -6.0137  H       1  <O>11       0.0618
  37 H14       8.2390   -11.4290    -5.9593  H       1  <O>11       0.0618
  38 H15       6.9513    -9.3890    -6.2416  H       1  <O>11       0.0621
@<TRIPOS>BOND
     1     1     2    2
     2     2     3    1
     3     3     4    1
     4     4     5   ar
     5     5     6   ar
     6     6     7   ar
     7     7     8    2
     8     7     9   ar
     9     9    10   ar
    10    10    11   ar
    11    11    12   ar
    12    12    13   ar
    13    13    14   ar
    14     4    14   ar
    15     9    14   ar
    16     2    15   am
    17    15    16    1
    18    16    17    1
    19    17    18    1
    20    18    19   ar
    21    19    20   ar
    22    20    21   ar
    23    21    22   ar
    24    22    23   ar
    25    18    23   ar
    26     3    24    1
    27     3    25    1
    28     6    26    1
    29    15    27    1
    30    17    28    1
    31    17    29    1
    32    10    30    1
    33    11    31    1
    34    12    32    1
    35    13    33    1
    36    19    34    1
    37    20    35    1
    38    21    36    1
    39    22    37    1
    40    23    38    1
@<TRIPOS>MOLECULE
mol35_1_22
 38 40 0 0 0
SMALL
USER_CHARGES
****
VDW energy = -2.73
@<TRIPOS>ATOM
   1 O1        3.7237    -7.3011    -7.5348  O.2     1  <O>11      -0.2733
   2 C1        2.8314    -7.0491    -6.7389  C.2     1  <O>11       0.2415
   3 C2        2.0240    -5.8040    -6.8930  C.3     1  <O>11       0.0705
   4 C3        2.4990    -5.0500    -8.0820  C.ar    1  <O>11       0.0781
   5 N1        3.5145    -4.0959    -7.9442  N.ar    1  <O>11      -0.1748
   6 N2        3.8857    -3.3287    -8.9944  N.ar    1  <O>11      -0.2425
   7 C4        3.2687    -3.5037   -10.1872  C.ar    1  <O>11       0.2725
   8 O2        3.6319    -2.6082   -11.2125  O.2     1  <O>11      -0.2658
   9 C5        2.3177    -4.5044   -10.4355  C.ar    1  <O>11       0.0496
  10 C6        1.7161    -4.7268   -11.6960  C.ar    1  <O>11      -0.0487
  11 C7        0.7520    -5.7197   -11.8652  C.ar    1  <O>11      -0.0610
  12 C8        0.3656    -6.5028   -10.7838  C.ar    1  <O>11      -0.0611
  13 C9        0.9433    -6.2924    -9.5315  C.ar    1  <O>11      -0.0521
  14 C10       1.9280    -5.2965    -9.3420  C.ar    1  <O>11       0.0108
  15 N3        2.5730    -7.9090    -5.7050  N.am    1  <O>11      -0.1939
  16 O3        3.3360    -9.0850    -5.5590  O.3     1  <O>11      -0.2752
  17 C11       3.7485    -9.2174    -4.2087  C.3     1  <O>11       0.0983
  18 C12       2.5593    -9.2910    -3.3365  C.ar    1  <O>11      -0.0197
  19 C13       2.7325    -9.4230    -1.9565  C.ar    1  <O>11      -0.0563
  20 C14       1.6092    -9.5054    -1.1250  C.ar    1  <O>11      -0.0614
  21 C15       0.3253    -9.4517    -1.6700  C.ar    1  <O>11      -0.0617
  22 C16       0.1676    -9.3122    -3.0543  C.ar    1  <O>11      -0.0614
  23 C17       1.2813    -9.2271    -3.8919  C.ar    1  <O>11      -0.0563
  24 H1        2.1350    -5.1860    -6.0020  H       1  <O>11       0.0424
  25 H2        0.9740    -6.0660    -7.0250  H       1  <O>11       0.0424
  26 H3        4.6115    -2.6346    -8.8886  H       1  <O>11       0.1921
  27 H4        1.8280    -7.6990    -5.0410  H       1  <O>11       0.1825
  28 H5        4.3385   -10.1267    -4.0963  H       1  <O>11       0.0634
  29 H6        4.3532    -8.3556    -3.9266  H       1  <O>11       0.0634
  30 H7        1.9947    -4.1458   -12.5021  H       1  <O>11       0.0625
  31 H8        0.3256    -5.8730   -12.7925  H       1  <O>11       0.0618
  32 H9       -0.3475    -7.2386   -10.9070  H       1  <O>11       0.0618
  33 H10       0.6471    -6.8728    -8.7312  H       1  <O>11       0.0624
  34 H11       3.6816    -9.4596    -1.5530  H       1  <O>11       0.0621
  35 H12       1.7309    -9.6063    -0.1051  H       1  <O>11       0.0618
  36 H13      -0.5023    -9.5144    -1.0567  H       1  <O>11       0.0618
  37 H14      -0.7808    -9.2719    -3.4592  H       1  <O>11       0.0618
  38 H15       1.1604    -9.1181    -4.9109  H       1  <O>11       0.0621
@<TRIPOS>BOND
     1     1     2    2
     2     2     3    1
     3     3     4    1
     4     4     5   ar
     5     5     6   ar
     6     6     7   ar
     7     7     8    2
     8     7     9   ar
     9     9    10   ar
    10    10    11   ar
    11    11    12   ar
    12    12    13   ar
    13    13    14   ar
    14     4    14   ar
    15     9    14   ar
    16     2    15   am
    17    15    16    1
    18    16    17    1
    19    17    18    1
    20    18    19   ar
    21    19    20   ar
    22    20    21   ar
    23    21    22   ar
    24    22    23   ar
    25    18    23   ar
    26     3    24    1
    27     3    25    1
    28     6    26    1
    29    15    27    1
    30    17    28    1
    31    17    29    1
    32    10    30    1
    33    11    31    1
    34    12    32    1
    35    13    33    1
    36    19    34    1
    37    20    35    1
    38    21    36    1
    39    22    37    1
    40    23    38    1
@<TRIPOS>MOLECULE
mol35_1_23
 38 40 0 0 0
SMALL
USER_CHARGES
****
VDW energy = -0.75
@<TRIPOS>ATOM
   1 O1        3.7237    -7.3011    -7.5348  O.2     1  <O>11      -0.2733
   2 C1        2.8314    -7.0491    -6.7389  C.2     1  <O>11       0.2415
   3 C2        2.0240    -5.8040    -6.8930  C.3     1  <O>11       0.0705
   4 C3        2.4990    -5.0500    -8.0820  C.ar    1  <O>11       0.0781
   5 N1        3.5145    -4.0959    -7.9442  N.ar    1  <O>11      -0.1748
   6 N2        3.8857    -3.3287    -8.9944  N.ar    1  <O>11      -0.2425
   7 C4        3.2687    -3.5037   -10.1872  C.ar    1  <O>11       0.2725
   8 O2        3.6319    -2.6082   -11.2125  O.2     1  <O>11      -0.2658
   9 C5        2.3177    -4.5044   -10.4355  C.ar    1  <O>11       0.0496
  10 C6        1.7161    -4.7268   -11.6960  C.ar    1  <O>11      -0.0487
  11 C7        0.7520    -5.7197   -11.8652  C.ar    1  <O>11      -0.0610
  12 C8        0.3656    -6.5028   -10.7838  C.ar    1  <O>11      -0.0611
  13 C9        0.9433    -6.2924    -9.5315  C.ar    1  <O>11      -0.0521
  14 C10       1.9280    -5.2965    -9.3420  C.ar    1  <O>11       0.0108
  15 N3        2.5730    -7.9090    -5.7050  N.am    1  <O>11      -0.1939
  16 O3        3.3360    -9.0850    -5.5590  O.3     1  <O>11      -0.2752
  17 C11       4.3015    -9.1550    -6.5953  C.3     1  <O>11       0.0983
  18 C12       5.0996   -10.3876    -6.4410  C.ar    1  <O>11      -0.0197
  19 C13       6.1169   -10.6611    -7.3587  C.ar    1  <O>11      -0.0563
  20 C14       6.8695   -11.8340    -7.2253  C.ar    1  <O>11      -0.0614
  21 C15       6.6086   -12.7220    -6.1803  C.ar    1  <O>11      -0.0617
  22 C16       5.5905   -12.4308    -5.2642  C.ar    1  <O>11      -0.0614
  23 C17       4.8356   -11.2628    -5.3874  C.ar    1  <O>11      -0.0563
  24 H1        2.1350    -5.1860    -6.0020  H       1  <O>11       0.0424
  25 H2        0.9740    -6.0660    -7.0250  H       1  <O>11       0.0424
  26 H3        4.6115    -2.6346    -8.8886  H       1  <O>11       0.1921
  27 H4        1.8280    -7.6990    -5.0410  H       1  <O>11       0.1825
  28 H5        3.7976    -9.1668    -7.5615  H       1  <O>11       0.0634
  29 H6        4.9587    -8.2873    -6.5397  H       1  <O>11       0.0634
  30 H7        1.9947    -4.1458   -12.5021  H       1  <O>11       0.0625
  31 H8        0.3256    -5.8730   -12.7925  H       1  <O>11       0.0618
  32 H9       -0.3475    -7.2386   -10.9070  H       1  <O>11       0.0618
  33 H10       0.6471    -6.8728    -8.7312  H       1  <O>11       0.0624
  34 H11       6.3120   -10.0033    -8.1295  H       1  <O>11       0.0621
  35 H12       7.6201   -12.0430    -7.9020  H       1  <O>11       0.0618
  36 H13       7.1625   -13.5873    -6.0836  H       1  <O>11       0.0618
  37 H14       5.3962   -13.0858    -4.4907  H       1  <O>11       0.0618
  38 H15       4.0903   -11.0493    -4.7063  H       1  <O>11       0.0621
@<TRIPOS>BOND
     1     1     2    2
     2     2     3    1
     3     3     4    1
     4     4     5   ar
     5     5     6   ar
     6     6     7   ar
     7     7     8    2
     8     7     9   ar
     9     9    10   ar
    10    10    11   ar
    11    11    12   ar
    12    12    13   ar
    13    13    14   ar
    14     4    14   ar
    15     9    14   ar
    16     2    15   am
    17    15    16    1
    18    16    17    1
    19    17    18    1
    20    18    19   ar
    21    19    20   ar
    22    20    21   ar
    23    21    22   ar
    24    22    23   ar
    25    18    23   ar
    26     3    24    1
    27     3    25    1
    28     6    26    1
    29    15    27    1
    30    17    28    1
    31    17    29    1
    32    10    30    1
    33    11    31    1
    34    12    32    1
    35    13    33    1
    36    19    34    1
    37    20    35    1
    38    21    36    1
    39    22    37    1
    40    23    38    1
@<TRIPOS>MOLECULE
mol35_1_24
 38 40 0 0 0
SMALL
USER_CHARGES
****
VDW energy = -0.08
@<TRIPOS>ATOM
   1 O1        3.7237    -7.3011    -7.5348  O.2     1  <O>11      -0.2733
   2 C1        2.8314    -7.0491    -6.7389  C.2     1  <O>11       0.2415
   3 C2        2.0240    -5.8040    -6.8930  C.3     1  <O>11       0.0705
   4 C3        1.7686    -5.2109    -5.5548  C.ar    1  <O>11       0.0781
   5 N1        0.6283    -5.5824    -4.8321  N.ar    1  <O>11      -0.1748
   6 N2        0.3273    -4.9761    -3.6612  N.ar    1  <O>11      -0.2425
   7 C4        1.1516    -4.0105    -3.1896  C.ar    1  <O>11       0.2725
   8 O2        0.7307    -3.3515    -2.0177  O.2     1  <O>11      -0.2658
   9 C5        2.3639    -3.6528    -3.7976  C.ar    1  <O>11       0.0496
  10 C6        3.2547    -2.6868    -3.2747  C.ar    1  <O>11      -0.0487
  11 C7        4.4293    -2.3553    -3.9488  C.ar    1  <O>11      -0.0610
  12 C8        4.7343    -2.9733    -5.1559  C.ar    1  <O>11      -0.0611
  13 C9        3.8635    -3.9233    -5.6900  C.ar    1  <O>11      -0.0521
  14 C10       2.6724    -4.2786    -5.0175  C.ar    1  <O>11       0.0108
  15 N3        2.5730    -7.9090    -5.7050  N.am    1  <O>11      -0.1939
  16 O3        3.3360    -9.0850    -5.5590  O.3     1  <O>11      -0.2752
  17 C11       2.4710   -10.1860    -5.3340  C.3     1  <O>11       0.0983
  18 C12       1.6874    -9.9520    -4.1046  C.ar    1  <O>11      -0.0197
  19 C13       0.7659   -10.9164    -3.6890  C.ar    1  <O>11      -0.0563
  20 C14       0.0110   -10.6956    -2.5308  C.ar    1  <O>11      -0.0614
  21 C15       0.1806    -9.5223    -1.7940  C.ar    1  <O>11      -0.0617
  22 C16       1.1129    -8.5680    -2.2191  C.ar    1  <O>11      -0.0614
  23 C17       1.8721    -8.7798    -3.3715  C.ar    1  <O>11      -0.0563
  24 H1        1.0746    -6.0432    -7.3722  H       1  <O>11       0.0424
  25 H2        2.5717    -5.0897    -7.5081  H       1  <O>11       0.0424
  26 H3       -0.5014    -5.2397    -3.1478  H       1  <O>11       0.1921
  27 H4        1.8280    -7.6990    -5.0410  H       1  <O>11       0.1825
  28 H5        1.7943   -10.2957    -6.1810  H       1  <O>11       0.0634
  29 H6        3.0611   -11.0953    -5.2212  H       1  <O>11       0.0634
  30 H7        3.0321    -2.2205    -2.3814  H       1  <O>11       0.0625
  31 H8        5.0716    -1.6517    -3.5518  H       1  <O>11       0.0618
  32 H9        5.6036    -2.7297    -5.6561  H       1  <O>11       0.0618
  33 H10       4.0926    -4.3736    -6.5899  H       1  <O>11       0.0624
  34 H11       0.6426   -11.7854    -4.2318  H       1  <O>11       0.0621
  35 H12      -0.6735   -11.4029    -2.2207  H       1  <O>11       0.0618
  36 H13      -0.3775    -9.3592    -0.9414  H       1  <O>11       0.0618
  37 H14       1.2401    -7.7000    -1.6756  H       1  <O>11       0.0618
  38 H15       2.5625    -8.0766    -3.6777  H       1  <O>11       0.0621
@<TRIPOS>BOND
     1     1     2    2
     2     2     3    1
     3     3     4    1
     4     4     5   ar
     5     5     6   ar
     6     6     7   ar
     7     7     8    2
     8     7     9   ar
     9     9    10   ar
    10    10    11   ar
    11    11    12   ar
    12    12    13   ar
    13    13    14   ar
    14     4    14   ar
    15     9    14   ar
    16     2    15   am
    17    15    16    1
    18    16    17    1
    19    17    18    1
    20    18    19   ar
    21    19    20   ar
    22    20    21   ar
    23    21    22   ar
    24    22    23   ar
    25    18    23   ar
    26     3    24    1
    27     3    25    1
    28     6    26    1
    29    15    27    1
    30    17    28    1
    31    17    29    1
    32    10    30    1
    33    11    31    1
    34    12    32    1
    35    13    33    1
    36    19    34    1
    37    20    35    1
    38    21    36    1
    39    22    37    1
    40    23    38    1
@<TRIPOS>MOLECULE
mol35_1_25
 38 40 0 0 0
SMALL
USER_CHARGES
****
VDW energy = 0.17
@<TRIPOS>ATOM
   1 O1        3.7237    -7.3011    -7.5348  O.2     1  <O>11      -0.2733
   2 C1        2.8314    -7.0491    -6.7389  C.2     1  <O>11       0.2415
   3 C2        2.0240    -5.8040    -6.8930  C.3     1  <O>11       0.0705
   4 C3        2.4990    -5.0500    -8.0820  C.ar    1  <O>11       0.0781
   5 N1        1.9300    -5.2952    -9.3377  N.ar    1  <O>11      -0.1748
   6 N2        2.4210    -4.6940   -10.4454  N.ar    1  <O>11      -0.2425
   7 C4        3.4653    -3.8406   -10.3223  C.ar    1  <O>11       0.2725
   8 O2        3.9914    -3.3245   -11.5231  O.2     1  <O>11      -0.2658
   9 C5        4.0244    -3.4621    -9.0928  C.ar    1  <O>11       0.0496
  10 C6        5.0757    -2.5259    -8.9581  C.ar    1  <O>11      -0.0487
  11 C7        5.6072    -2.2196    -7.7060  C.ar    1  <O>11      -0.0610
  12 C8        5.1073    -2.8434    -6.5689  C.ar    1  <O>11      -0.0611
  13 C9        4.0752    -3.7750    -6.6839  C.ar    1  <O>11      -0.0521
  14 C10       3.5179    -4.0924    -7.9433  C.ar    1  <O>11       0.0108
  15 N3        2.5730    -7.9090    -5.7050  N.am    1  <O>11      -0.1939
  16 O3        3.3360    -9.0850    -5.5590  O.3     1  <O>11      -0.2752
  17 C11       4.3015    -9.1550    -6.5953  C.3     1  <O>11       0.0983
  18 C12       5.0996   -10.3876    -6.4410  C.ar    1  <O>11      -0.0197
  19 C13       6.1169   -10.6611    -7.3587  C.ar    1  <O>11      -0.0563
  20 C14       6.8695   -11.8340    -7.2253  C.ar    1  <O>11      -0.0614
  21 C15       6.6086   -12.7220    -6.1803  C.ar    1  <O>11      -0.0617
  22 C16       5.5905   -12.4308    -5.2642  C.ar    1  <O>11      -0.0614
  23 C17       4.8356   -11.2628    -5.3874  C.ar    1  <O>11      -0.0563
  24 H1        2.1350    -5.1860    -6.0020  H       1  <O>11       0.0424
  25 H2        0.9740    -6.0660    -7.0250  H       1  <O>11       0.0424
  26 H3        2.0145    -4.8811   -11.3507  H       1  <O>11       0.1921
  27 H4        1.8280    -7.6990    -5.0410  H       1  <O>11       0.1825
  28 H5        3.7976    -9.1668    -7.5615  H       1  <O>11       0.0634
  29 H6        4.9587    -8.2873    -6.5397  H       1  <O>11       0.0634
  30 H7        5.4549    -2.0626    -9.7987  H       1  <O>11       0.0625
  31 H8        6.3711    -1.5306    -7.6236  H       1  <O>11       0.0618
  32 H9        5.4989    -2.6178    -5.6411  H       1  <O>11       0.0618
  33 H10       3.7131    -4.2395    -5.8365  H       1  <O>11       0.0624
  34 H11       6.3120   -10.0033    -8.1295  H       1  <O>11       0.0621
  35 H12       7.6201   -12.0430    -7.9020  H       1  <O>11       0.0618
  36 H13       7.1625   -13.5873    -6.0836  H       1  <O>11       0.0618
  37 H14       5.3962   -13.0858    -4.4907  H       1  <O>11       0.0618
  38 H15       4.0903   -11.0493    -4.7063  H       1  <O>11       0.0621
@<TRIPOS>BOND
     1     1     2    2
     2     2     3    1
     3     3     4    1
     4     4     5   ar
     5     5     6   ar
     6     6     7   ar
     7     7     8    2
     8     7     9   ar
     9     9    10   ar
    10    10    11   ar
    11    11    12   ar
    12    12    13   ar
    13    13    14   ar
    14     4    14   ar
    15     9    14   ar
    16     2    15   am
    17    15    16    1
    18    16    17    1
    19    17    18    1
    20    18    19   ar
    21    19    20   ar
    22    20    21   ar
    23    21    22   ar
    24    22    23   ar
    25    18    23   ar
    26     3    24    1
    27     3    25    1
    28     6    26    1
    29    15    27    1
    30    17    28    1
    31    17    29    1
    32    10    30    1
    33    11    31    1
    34    12    32    1
    35    13    33    1
    36    19    34    1
    37    20    35    1
    38    21    36    1
    39    22    37    1
    40    23    38    1
@<TRIPOS>MOLECULE
mol35_1_26
 38 40 0 0 0
SMALL
USER_CHARGES
****
VDW energy = 3.78
@<TRIPOS>ATOM
   1 O1        3.7237    -7.3011    -7.5348  O.2     1  <O>11      -0.2733
   2 C1        2.8314    -7.0491    -6.7389  C.2     1  <O>11       0.2415
   3 C2        2.0240    -5.8040    -6.8930  C.3     1  <O>11       0.0705
   4 C3        2.4990    -5.0500    -8.0820  C.ar    1  <O>11       0.0781
   5 N1        2.9917    -3.7479    -7.9324  N.ar    1  <O>11      -0.1748
   6 N2        3.3304    -3.0112    -9.0149  N.ar    1  <O>11      -0.2425
   7 C4        3.1973    -3.5548   -10.2481  C.ar    1  <O>11       0.2725
   8 O2        3.4733    -2.7033   -11.3361  O.2     1  <O>11      -0.2658
   9 C5        2.8108    -4.8833   -10.4788  C.ar    1  <O>11       0.0496
  10 C6        2.7288    -5.4702   -11.7629  C.ar    1  <O>11      -0.0487
  11 C7        2.3050    -6.7889   -11.9228  C.ar    1  <O>11      -0.0610
  12 C8        1.9500    -7.5431   -10.8105  C.ar    1  <O>11      -0.0611
  13 C9        2.0179    -6.9778    -9.5368  C.ar    1  <O>11      -0.0521
  14 C10       2.4529    -5.6457    -9.3538  C.ar    1  <O>11       0.0108
  15 N3        2.5730    -7.9090    -5.7050  N.am    1  <O>11      -0.1939
  16 O3        3.3360    -9.0850    -5.5590  O.3     1  <O>11      -0.2752
  17 C11       4.3015    -9.1550    -6.5953  C.3     1  <O>11       0.0983
  18 C12       5.0996   -10.3876    -6.4410  C.ar    1  <O>11      -0.0197
  19 C13       4.6730   -11.5599    -7.0700  C.ar    1  <O>11      -0.0563
  20 C14       5.4186   -12.7351    -6.9180  C.ar    1  <O>11      -0.0614
  21 C15       6.5822   -12.7349    -6.1470  C.ar    1  <O>11      -0.0617
  22 C16       7.0010   -11.5506    -5.5284  C.ar    1  <O>11      -0.0614
  23 C17       6.2657   -10.3730    -5.6756  C.ar    1  <O>11      -0.0563
  24 H1        2.1350    -5.1860    -6.0020  H       1  <O>11       0.0424
  25 H2        0.9740    -6.0660    -7.0250  H       1  <O>11       0.0424
  26 H3        3.6758    -2.0688    -8.9036  H       1  <O>11       0.1921
  27 H4        1.8280    -7.6990    -5.0410  H       1  <O>11       0.1825
  28 H5        3.7976    -9.1668    -7.5615  H       1  <O>11       0.0634
  29 H6        4.9587    -8.2873    -6.5397  H       1  <O>11       0.0634
  30 H7        2.9862    -4.9145   -12.5935  H       1  <O>11       0.0625
  31 H8        2.2550    -7.2046   -12.8661  H       1  <O>11       0.0618
  32 H9        1.6366    -8.5195   -10.9266  H       1  <O>11       0.0618
  33 H10       1.7465    -7.5411    -8.7158  H       1  <O>11       0.0624
  34 H11       3.8145   -11.5595    -7.6426  H       1  <O>11       0.0621
  35 H12       5.1066   -13.6048    -7.3776  H       1  <O>11       0.0618
  36 H13       7.1303   -13.6019    -6.0338  H       1  <O>11       0.0618
  37 H14       7.8612   -11.5483    -4.9583  H       1  <O>11       0.0618
  38 H15       6.5814    -9.5010    -5.2229  H       1  <O>11       0.0621
@<TRIPOS>BOND
     1     1     2    2
     2     2     3    1
     3     3     4    1
     4     4     5   ar
     5     5     6   ar
     6     6     7   ar
     7     7     8    2
     8     7     9   ar
     9     9    10   ar
    10    10    11   ar
    11    11    12   ar
    12    12    13   ar
    13    13    14   ar
    14     4    14   ar
    15     9    14   ar
    16     2    15   am
    17    15    16    1
    18    16    17    1
    19    17    18    1
    20    18    19   ar
    21    19    20   ar
    22    20    21   ar
    23    21    22   ar
    24    22    23   ar
    25    18    23   ar
    26     3    24    1
    27     3    25    1
    28     6    26    1
    29    15    27    1
    30    17    28    1
    31    17    29    1
    32    10    30    1
    33    11    31    1
    34    12    32    1
    35    13    33    1
    36    19    34    1
    37    20    35    1
    38    21    36    1
    39    22    37    1
    40    23    38    1
@<TRIPOS>MOLECULE
mol35_1_27
 38 40 0 0 0
SMALL
USER_CHARGES
****
VDW energy = 3.83
@<TRIPOS>ATOM
   1 O1        3.7237    -7.3011    -7.5348  O.2     1  <O>11      -0.2733
   2 C1        2.8314    -7.0491    -6.7389  C.2     1  <O>11       0.2415
   3 C2        2.0240    -5.8040    -6.8930  C.3     1  <O>11       0.0705
   4 C3        0.6005    -6.0956    -6.5825  C.ar    1  <O>11       0.0781
   5 N1        0.1295    -5.9594    -5.2709  N.ar    1  <O>11      -0.1748
   6 N2       -1.1346    -6.3198    -4.9523  N.ar    1  <O>11      -0.2425
   7 C4       -1.9448    -6.8044    -5.9233  C.ar    1  <O>11       0.2725
   8 O2       -3.2142    -7.2526    -5.5077  O.2     1  <O>11      -0.2658
   9 C5       -1.5856    -6.8753    -7.2773  C.ar    1  <O>11       0.0496
  10 C6       -2.4510    -7.3253    -8.3013  C.ar    1  <O>11      -0.0487
  11 C7       -2.0177    -7.4015    -9.6244  C.ar    1  <O>11      -0.0610
  12 C8       -0.7161    -7.0382    -9.9500  C.ar    1  <O>11      -0.0611
  13 C9        0.1534    -6.5988    -8.9514  C.ar    1  <O>11      -0.0521
  14 C10      -0.2699    -6.5069    -7.6062  C.ar    1  <O>11       0.0108
  15 N3        2.5730    -7.9090    -5.7050  N.am    1  <O>11      -0.1939
  16 O3        3.3360    -9.0850    -5.5590  O.3     1  <O>11      -0.2752
  17 C11       4.3015    -9.1550    -6.5953  C.3     1  <O>11       0.0983
  18 C12       5.0996   -10.3876    -6.4410  C.ar    1  <O>11      -0.0197
  19 C13       6.1169   -10.6611    -7.3587  C.ar    1  <O>11      -0.0563
  20 C14       6.8695   -11.8340    -7.2253  C.ar    1  <O>11      -0.0614
  21 C15       6.6086   -12.7220    -6.1803  C.ar    1  <O>11      -0.0617
  22 C16       5.5905   -12.4308    -5.2642  C.ar    1  <O>11      -0.0614
  23 C17       4.8356   -11.2628    -5.3874  C.ar    1  <O>11      -0.0563
  24 H1        2.1062    -5.4418    -7.9178  H       1  <O>11       0.0424
  25 H2        2.3964    -5.0424    -6.2075  H       1  <O>11       0.0424
  26 H3       -1.4675    -6.2296    -4.0032  H       1  <O>11       0.1921
  27 H4        1.8280    -7.6990    -5.0410  H       1  <O>11       0.1825
  28 H5        3.7976    -9.1668    -7.5615  H       1  <O>11       0.0634
  29 H6        4.9587    -8.2873    -6.5397  H       1  <O>11       0.0634
  30 H7       -3.4172    -7.6013    -8.0660  H       1  <O>11       0.0625
  31 H8       -2.6627    -7.7274   -10.3612  H       1  <O>11       0.0618
  32 H9       -0.3935    -7.0933   -10.9288  H       1  <O>11       0.0618
  33 H10       1.1205    -6.3369    -9.1988  H       1  <O>11       0.0624
  34 H11       6.3120   -10.0033    -8.1295  H       1  <O>11       0.0621
  35 H12       7.6201   -12.0430    -7.9020  H       1  <O>11       0.0618
  36 H13       7.1625   -13.5873    -6.0836  H       1  <O>11       0.0618
  37 H14       5.3962   -13.0858    -4.4907  H       1  <O>11       0.0618
  38 H15       4.0903   -11.0493    -4.7063  H       1  <O>11       0.0621
@<TRIPOS>BOND
     1     1     2    2
     2     2     3    1
     3     3     4    1
     4     4     5   ar
     5     5     6   ar
     6     6     7   ar
     7     7     8    2
     8     7     9   ar
     9     9    10   ar
    10    10    11   ar
    11    11    12   ar
    12    12    13   ar
    13    13    14   ar
    14     4    14   ar
    15     9    14   ar
    16     2    15   am
    17    15    16    1
    18    16    17    1
    19    17    18    1
    20    18    19   ar
    21    19    20   ar
    22    20    21   ar
    23    21    22   ar
    24    22    23   ar
    25    18    23   ar
    26     3    24    1
    27     3    25    1
    28     6    26    1
    29    15    27    1
    30    17    28    1
    31    17    29    1
    32    10    30    1
    33    11    31    1
    34    12    32    1
    35    13    33    1
    36    19    34    1
    37    20    35    1
    38    21    36    1
    39    22    37    1
    40    23    38    1
@<TRIPOS>MOLECULE
mol35_1_28
 38 40 0 0 0
SMALL
USER_CHARGES
****
VDW energy = 4.17
@<TRIPOS>ATOM
   1 O1        3.7237    -7.3011    -7.5348  O.2     1  <O>11      -0.2733
   2 C1        2.8314    -7.0491    -6.7389  C.2     1  <O>11       0.2415
   3 C2        2.0240    -5.8040    -6.8930  C.3     1  <O>11       0.0705
   4 C3        2.4990    -5.0500    -8.0820  C.ar    1  <O>11       0.0781
   5 N1        3.5560    -5.5520    -8.8510  N.ar    1  <O>11      -0.1748
   6 N2        4.0681    -4.8289    -9.8729  N.ar    1  <O>11      -0.2425
   7 C4        3.5361    -3.6149   -10.1509  C.ar    1  <O>11       0.2725
   8 O2        4.1771    -2.8719   -11.1619  O.2     1  <O>11      -0.2658
   9 C5        2.4131    -3.0860    -9.4979  C.ar    1  <O>11       0.0496
  10 C6        1.8201    -1.8450    -9.8269  C.ar    1  <O>11      -0.0487
  11 C7        0.7230    -1.3630    -9.1140  C.ar    1  <O>11      -0.0610
  12 C8        0.2020    -2.1030    -8.0590  C.ar    1  <O>11      -0.0611
  13 C9        0.7790    -3.3260    -7.7160  C.ar    1  <O>11      -0.0521
  14 C10       1.8860    -3.8350    -8.4320  C.ar    1  <O>11       0.0108
  15 N3        2.5730    -7.9090    -5.7050  N.am    1  <O>11      -0.1939
  16 O3        3.3360    -9.0850    -5.5590  O.3     1  <O>11      -0.2752
  17 C11       2.4710   -10.1860    -5.3340  C.3     1  <O>11       0.0983
  18 C12       1.6874    -9.9520    -4.1046  C.ar    1  <O>11      -0.0197
  19 C13       0.7659   -10.9164    -3.6890  C.ar    1  <O>11      -0.0563
  20 C14       0.0110   -10.6956    -2.5308  C.ar    1  <O>11      -0.0614
  21 C15       0.1806    -9.5223    -1.7940  C.ar    1  <O>11      -0.0617
  22 C16       1.1129    -8.5680    -2.2191  C.ar    1  <O>11      -0.0614
  23 C17       1.8721    -8.7798    -3.3715  C.ar    1  <O>11      -0.0563
  24 H1        2.1350    -5.1860    -6.0020  H       1  <O>11       0.0424
  25 H2        0.9740    -6.0660    -7.0250  H       1  <O>11       0.0424
  26 H3        4.8371    -5.1899   -10.4189  H       1  <O>11       0.1921
  27 H4        1.8280    -7.6990    -5.0410  H       1  <O>11       0.1825
  28 H5        1.7943   -10.2957    -6.1810  H       1  <O>11       0.0634
  29 H6        3.0611   -11.0953    -5.2212  H       1  <O>11       0.0634
  30 H7        2.2048    -1.2880   -10.6059  H       1  <O>11       0.0625
  31 H8        0.2983    -0.4577    -9.3693  H       1  <O>11       0.0618
  32 H9       -0.6103    -1.7483    -7.5303  H       1  <O>11       0.0618
  33 H10       0.3915    -3.8673    -6.9274  H       1  <O>11       0.0624
  34 H11       0.6426   -11.7854    -4.2318  H       1  <O>11       0.0621
  35 H12      -0.6735   -11.4029    -2.2207  H       1  <O>11       0.0618
  36 H13      -0.3775    -9.3592    -0.9414  H       1  <O>11       0.0618
  37 H14       1.2401    -7.7000    -1.6756  H       1  <O>11       0.0618
  38 H15       2.5625    -8.0766    -3.6777  H       1  <O>11       0.0621
@<TRIPOS>BOND
     1     1     2    2
     2     2     3    1
     3     3     4    1
     4     4     5   ar
     5     5     6   ar
     6     6     7   ar
     7     7     8    2
     8     7     9   ar
     9     9    10   ar
    10    10    11   ar
    11    11    12   ar
    12    12    13   ar
    13    13    14   ar
    14     4    14   ar
    15     9    14   ar
    16     2    15   am
    17    15    16    1
    18    16    17    1
    19    17    18    1
    20    18    19   ar
    21    19    20   ar
    22    20    21   ar
    23    21    22   ar
    24    22    23   ar
    25    18    23   ar
    26     3    24    1
    27     3    25    1
    28     6    26    1
    29    15    27    1
    30    17    28    1
    31    17    29    1
    32    10    30    1
    33    11    31    1
    34    12    32    1
    35    13    33    1
    36    19    34    1
    37    20    35    1
    38    21    36    1
    39    22    37    1
    40    23    38    1
@<TRIPOS>MOLECULE
mol35_1_29
 38 40 0 0 0
SMALL
USER_CHARGES
****
VDW energy = 4.91
@<TRIPOS>ATOM
   1 O1        3.7237    -7.3011    -7.5348  O.2     1  <O>11      -0.2733
   2 C1        2.8314    -7.0491    -6.7389  C.2     1  <O>11       0.2415
   3 C2        2.0240    -5.8040    -6.8930  C.3     1  <O>11       0.0705
   4 C3        2.4990    -5.0500    -8.0820  C.ar    1  <O>11       0.0781
   5 N1        3.5560    -5.5520    -8.8510  N.ar    1  <O>11      -0.1748
   6 N2        4.0681    -4.8289    -9.8729  N.ar    1  <O>11      -0.2425
   7 C4        3.5361    -3.6149   -10.1509  C.ar    1  <O>11       0.2725
   8 O2        4.1771    -2.8719   -11.1619  O.2     1  <O>11      -0.2658
   9 C5        2.4131    -3.0860    -9.4979  C.ar    1  <O>11       0.0496
  10 C6        1.8201    -1.8450    -9.8269  C.ar    1  <O>11      -0.0487
  11 C7        0.7230    -1.3630    -9.1140  C.ar    1  <O>11      -0.0610
  12 C8        0.2020    -2.1030    -8.0590  C.ar    1  <O>11      -0.0611
  13 C9        0.7790    -3.3260    -7.7160  C.ar    1  <O>11      -0.0521
  14 C10       1.8860    -3.8350    -8.4320  C.ar    1  <O>11       0.0108
  15 N3        2.5730    -7.9090    -5.7050  N.am    1  <O>11      -0.1939
  16 O3        3.3360    -9.0850    -5.5590  O.3     1  <O>11      -0.2752
  17 C11       3.7485    -9.2174    -4.2087  C.3     1  <O>11       0.0983
  18 C12       2.5593    -9.2910    -3.3365  C.ar    1  <O>11      -0.0197
  19 C13       2.7325    -9.4230    -1.9565  C.ar    1  <O>11      -0.0563
  20 C14       1.6092    -9.5054    -1.1250  C.ar    1  <O>11      -0.0614
  21 C15       0.3253    -9.4517    -1.6700  C.ar    1  <O>11      -0.0617
  22 C16       0.1676    -9.3122    -3.0543  C.ar    1  <O>11      -0.0614
  23 C17       1.2813    -9.2271    -3.8919  C.ar    1  <O>11      -0.0563
  24 H1        2.1350    -5.1860    -6.0020  H       1  <O>11       0.0424
  25 H2        0.9740    -6.0660    -7.0250  H       1  <O>11       0.0424
  26 H3        4.8371    -5.1899   -10.4189  H       1  <O>11       0.1921
  27 H4        1.8280    -7.6990    -5.0410  H       1  <O>11       0.1825
  28 H5        4.3385   -10.1267    -4.0963  H       1  <O>11       0.0634
  29 H6        4.3532    -8.3556    -3.9266  H       1  <O>11       0.0634
  30 H7        2.2048    -1.2880   -10.6059  H       1  <O>11       0.0625
  31 H8        0.2983    -0.4577    -9.3693  H       1  <O>11       0.0618
  32 H9       -0.6103    -1.7483    -7.5303  H       1  <O>11       0.0618
  33 H10       0.3915    -3.8673    -6.9274  H       1  <O>11       0.0624
  34 H11       3.6816    -9.4596    -1.5530  H       1  <O>11       0.0621
  35 H12       1.7309    -9.6063    -0.1051  H       1  <O>11       0.0618
  36 H13      -0.5023    -9.5144    -1.0567  H       1  <O>11       0.0618
  37 H14      -0.7808    -9.2719    -3.4592  H       1  <O>11       0.0618
  38 H15       1.1604    -9.1181    -4.9109  H       1  <O>11       0.0621
@<TRIPOS>BOND
     1     1     2    2
     2     2     3    1
     3     3     4    1
     4     4     5   ar
     5     5     6   ar
     6     6     7   ar
     7     7     8    2
     8     7     9   ar
     9     9    10   ar
    10    10    11   ar
    11    11    12   ar
    12    12    13   ar
    13    13    14   ar
    14     4    14   ar
    15     9    14   ar
    16     2    15   am
    17    15    16    1
    18    16    17    1
    19    17    18    1
    20    18    19   ar
    21    19    20   ar
    22    20    21   ar
    23    21    22   ar
    24    22    23   ar
    25    18    23   ar
    26     3    24    1
    27     3    25    1
    28     6    26    1
    29    15    27    1
    30    17    28    1
    31    17    29    1
    32    10    30    1
    33    11    31    1
    34    12    32    1
    35    13    33    1
    36    19    34    1
    37    20    35    1
    38    21    36    1
    39    22    37    1
    40    23    38    1
@<TRIPOS>MOLECULE
mol35_1_30
 38 40 0 0 0
SMALL
USER_CHARGES
****
VDW energy = 7.47
@<TRIPOS>ATOM
   1 O1        3.7237    -7.3011    -7.5348  O.2     1  <O>11      -0.2733
   2 C1        2.8314    -7.0491    -6.7389  C.2     1  <O>11       0.2415
   3 C2        2.0240    -5.8040    -6.8930  C.3     1  <O>11       0.0705
   4 C3        2.4990    -5.0500    -8.0820  C.ar    1  <O>11       0.0781
   5 N1        3.5560    -5.5520    -8.8510  N.ar    1  <O>11      -0.1748
   6 N2        4.0680    -4.8290    -9.8730  N.ar    1  <O>11      -0.2425
   7 C4        3.5360    -3.6150   -10.1510  C.ar    1  <O>11       0.2725
   8 O2        4.1770    -2.8720   -11.1620  O.2     1  <O>11      -0.2658
   9 C5        2.4130    -3.0860    -9.4980  C.ar    1  <O>11       0.0496
  10 C6        1.8200    -1.8450    -9.8270  C.ar    1  <O>11      -0.0487
  11 C7        0.7230    -1.3630    -9.1140  C.ar    1  <O>11      -0.0610
  12 C8        0.2020    -2.1030    -8.0590  C.ar    1  <O>11      -0.0611
  13 C9        0.7790    -3.3260    -7.7160  C.ar    1  <O>11      -0.0521
  14 C10       1.8860    -3.8350    -8.4320  C.ar    1  <O>11       0.0108
  15 N3        2.5730    -7.9090    -5.7050  N.am    1  <O>11      -0.1939
  16 O3        3.3360    -9.0850    -5.5590  O.3     1  <O>11      -0.2752
  17 C11       4.3015    -9.1550    -6.5953  C.3     1  <O>11       0.0983
  18 C12       5.0996   -10.3876    -6.4410  C.ar    1  <O>11      -0.0197
  19 C13       6.1169   -10.6611    -7.3587  C.ar    1  <O>11      -0.0563
  20 C14       6.8695   -11.8340    -7.2253  C.ar    1  <O>11      -0.0614
  21 C15       6.6086   -12.7220    -6.1803  C.ar    1  <O>11      -0.0617
  22 C16       5.5905   -12.4308    -5.2642  C.ar    1  <O>11      -0.0614
  23 C17       4.8356   -11.2628    -5.3874  C.ar    1  <O>11      -0.0563
  24 H1        2.1350    -5.1860    -6.0020  H       1  <O>11       0.0424
  25 H2        0.9740    -6.0660    -7.0250  H       1  <O>11       0.0424
  26 H3        4.8370    -5.1900   -10.4190  H       1  <O>11       0.1921
  27 H4        1.8280    -7.6990    -5.0410  H       1  <O>11       0.1825
  28 H5        3.7976    -9.1668    -7.5615  H       1  <O>11       0.0634
  29 H6        4.9587    -8.2873    -6.5397  H       1  <O>11       0.0634
  30 H7        2.2047    -1.2881   -10.6060  H       1  <O>11       0.0625
  31 H8        0.2983    -0.4577    -9.3693  H       1  <O>11       0.0618
  32 H9       -0.6103    -1.7483    -7.5303  H       1  <O>11       0.0618
  33 H10       0.3915    -3.8673    -6.9274  H       1  <O>11       0.0624
  34 H11       6.3120   -10.0033    -8.1295  H       1  <O>11       0.0621
  35 H12       7.6201   -12.0430    -7.9020  H       1  <O>11       0.0618
  36 H13       7.1625   -13.5873    -6.0836  H       1  <O>11       0.0618
  37 H14       5.3962   -13.0858    -4.4907  H       1  <O>11       0.0618
  38 H15       4.0903   -11.0493    -4.7063  H       1  <O>11       0.0621
@<TRIPOS>BOND
     1     1     2    2
     2     2     3    1
     3     3     4    1
     4     4     5   ar
     5     5     6   ar
     6     6     7   ar
     7     7     8    2
     8     7     9   ar
     9     9    10   ar
    10    10    11   ar
    11    11    12   ar
    12    12    13   ar
    13    13    14   ar
    14     4    14   ar
    15     9    14   ar
    16     2    15   am
    17    15    16    1
    18    16    17    1
    19    17    18    1
    20    18    19   ar
    21    19    20   ar
    22    20    21   ar
    23    21    22   ar
    24    22    23   ar
    25    18    23   ar
    26     3    24    1
    27     3    25    1
    28     6    26    1
    29    15    27    1
    30    17    28    1
    31    17    29    1
    32    10    30    1
    33    11    31    1
    34    12    32    1
    35    13    33    1
    36    19    34    1
    37    20    35    1
    38    21    36    1
    39    22    37    1
    40    23    38    1
