@<TRIPOS>MOLECULE
mol3_1_1
 48 50 0 0 0
SMALL
USER_CHARGES
****
VDW energy = -36.18
@<TRIPOS>ATOM
   1 C1        8.4349    -7.4061    -4.6260  C.3     1  <O>11      -0.0207
   2 C2        7.6575    -6.1755    -4.3811  C.ar    1  <O>11       0.0588
   3 C3        8.3482    -5.0729    -3.9271  C.ar    1  <O>11      -0.0303
   4 C4        7.6391    -3.8908    -3.6925  C.ar    1  <O>11       0.0243
   5 C5        8.3300    -2.6830    -3.2000  C.3     1  <O>11       0.0028
   6 C6        8.3266    -2.6812    -1.7144  C.ar    1  <O>11      -0.0428
   7 C7        7.2727    -2.0771    -1.0083  C.ar    1  <O>11      -0.0564
   8 C8        7.2757    -2.0640     0.3908  C.ar    1  <O>11      -0.0351
   9 C9        8.3268    -2.6567     1.0973  C.ar    1  <O>11       0.1055
  10 S1        8.3413    -2.6418     2.8571  S.O2    1  <O>11       0.0611
  11 O1        8.3409    -1.0713     3.3972  O.2     1  <O>11      -0.1528
  12 O2        9.7054    -3.4163     3.4063  O.2     1  <O>11      -0.1528
  13 N1        6.9997    -3.4205     3.4245  N.3     1  <O>11      -0.1738
  14 C10       7.0251    -3.3987     4.9142  C.3     1  <O>11       0.0208
  15 C11       8.2051    -4.1889     5.4636  C.3     1  <O>11      -0.0385
  16 C12       8.1913    -5.6232     4.9479  C.3     1  <O>11      -0.0504
  17 C13       8.1335    -5.6546     3.4252  C.3     1  <O>11      -0.0359
  18 C14       6.9854    -4.8083     2.8836  C.3     1  <O>11       0.0291
  19 C15       5.6699    -5.4698     3.2608  C.3     1  <O>11      -0.0478
  20 C16       9.3719    -3.2657     0.3929  C.ar    1  <O>11      -0.0351
  21 C17       9.3777    -3.2836    -1.0026  C.ar    1  <O>11      -0.0564
  22 C18       6.2698    -3.8614    -3.9276  C.ar    1  <O>11       0.2682
  23 O3        5.5373    -2.6772    -3.7187  O.2     1  <O>11      -0.2661
  24 N2        5.6373    -4.9835    -4.3615  N.ar    1  <O>11      -0.2428
  25 N3        6.3348    -6.1497    -4.5969  N.ar    1  <O>11      -0.1762
  26 H1        7.7682    -8.1927    -4.9793  H       1  <O>11       0.0293
  27 H2        8.9132    -7.7240    -3.6996  H       1  <O>11       0.0293
  28 H3        9.1973    -7.2102    -5.3799  H       1  <O>11       0.0293
  29 H4        7.8152    -1.7952    -3.5664  H       1  <O>11       0.0363
  30 H5        9.3589    -2.6811    -3.5608  H       1  <O>11       0.0363
  31 H6        7.1030    -2.3660     5.2535  H       1  <O>11       0.0444
  32 H7        6.1007    -3.8363     5.2900  H       1  <O>11       0.0444
  33 H8        9.1331    -3.7064     5.1508  H       1  <O>11       0.0278
  34 H9        8.1518    -4.1999     6.5516  H       1  <O>11       0.0278
  35 H10       9.0951    -6.1307     5.2818  H       1  <O>11       0.0266
  36 H11       7.3159    -6.1362     5.3498  H       1  <O>11       0.0266
  37 H12       9.0740    -5.2692     3.0297  H       1  <O>11       0.0281
  38 H13       7.9973    -6.6854     3.0992  H       1  <O>11       0.0281
  39 H14       7.0687    -4.7565     1.7979  H       1  <O>11       0.0477
  40 H15       4.8393    -4.8747     2.8785  H       1  <O>11       0.0245
  41 H16       5.5945    -5.5426     4.3467  H       1  <O>11       0.0245
  42 H17       5.6273    -6.4708     2.8276  H       1  <O>11       0.0245
  43 H18       4.6389    -4.9447    -4.5088  H       1  <O>11       0.1921
  44 H19       9.3662    -5.1186    -3.7639  H       1  <O>11       0.0640
  45 H20       6.4926    -1.6410    -1.5242  H       1  <O>11       0.0621
  46 H21       6.4999    -1.6156     0.9028  H       1  <O>11       0.0637
  47 H22      10.1474    -3.7068     0.9117  H       1  <O>11       0.0637
  48 H23      10.1524    -3.7382    -1.5107  H       1  <O>11       0.0621
@<TRIPOS>BOND
     1     1     2    1
     2     2     3   ar
     3     3     4   ar
     4     4     5    1
     5     5     6    1
     6     6     7   ar
     7     7     8   ar
     8     8     9   ar
     9     9    10    1
    10    10    11    2
    11    10    12    2
    12    10    13    1
    13    13    14    1
    14    14    15    1
    15    15    16    1
    16    16    17    1
    17    17    18    1
    18    13    18    1
    19    18    19    1
    20     9    20   ar
    21    20    21   ar
    22     6    21   ar
    23     4    22   ar
    24    22    23    2
    25    22    24   ar
    26    24    25   ar
    27     2    25   ar
    28     1    26    1
    29     1    27    1
    30     1    28    1
    31     5    29    1
    32     5    30    1
    33    14    31    1
    34    14    32    1
    35    15    33    1
    36    15    34    1
    37    16    35    1
    38    16    36    1
    39    17    37    1
    40    17    38    1
    41    18    39    1
    42    19    40    1
    43    19    41    1
    44    19    42    1
    45    24    43    1
    46     3    44    1
    47     7    45    1
    48     8    46    1
    49    20    47    1
    50    21    48    1
@<TRIPOS>MOLECULE
mol3_1_2
 48 50 0 0 0
SMALL
USER_CHARGES
****
VDW energy = -34.92
@<TRIPOS>ATOM
   1 C1        8.4349    -7.4061    -4.6260  C.3     1  <O>11      -0.0207
   2 C2        7.6575    -6.1755    -4.3811  C.ar    1  <O>11       0.0588
   3 C3        8.3482    -5.0729    -3.9271  C.ar    1  <O>11      -0.0303
   4 C4        7.6391    -3.8908    -3.6925  C.ar    1  <O>11       0.0243
   5 C5        8.3300    -2.6830    -3.2000  C.3     1  <O>11       0.0028
   6 C6        8.3266    -2.6812    -1.7144  C.ar    1  <O>11      -0.0428
   7 C7        7.2727    -2.0771    -1.0083  C.ar    1  <O>11      -0.0564
   8 C8        7.2757    -2.0640     0.3908  C.ar    1  <O>11      -0.0351
   9 C9        8.3268    -2.6567     1.0973  C.ar    1  <O>11       0.1055
  10 S1        8.3413    -2.6418     2.8571  S.O2    1  <O>11       0.0611
  11 O1        9.1332    -3.9907     3.4153  O.2     1  <O>11      -0.1528
  12 O2        6.7790    -2.6420     3.4239  O.2     1  <O>11      -0.1528
  13 N1        9.1200    -1.2855     3.3890  N.3     1  <O>11      -0.1738
  14 C10       9.1255    -1.2875     4.8789  C.3     1  <O>11       0.0208
  15 C11       7.7148    -1.1822     5.4422  C.3     1  <O>11      -0.0385
  16 C12       7.0037     0.0564     4.9097  C.3     1  <O>11      -0.0504
  17 C13       7.0209     0.0822     3.3858  C.3     1  <O>11      -0.0359
  18 C14       8.4323    -0.0875     2.8317  C.3     1  <O>11       0.0291
  19 C15       9.2448     1.1503     3.1752  C.3     1  <O>11      -0.0478
  20 C16       9.3719    -3.2657     0.3929  C.ar    1  <O>11      -0.0351
  21 C17       9.3777    -3.2836    -1.0026  C.ar    1  <O>11      -0.0564
  22 C18       6.2698    -3.8614    -3.9276  C.ar    1  <O>11       0.2682
  23 O3        5.5373    -2.6772    -3.7187  O.2     1  <O>11      -0.2661
  24 N2        5.6373    -4.9835    -4.3615  N.ar    1  <O>11      -0.2428
  25 N3        6.3348    -6.1497    -4.5969  N.ar    1  <O>11      -0.1762
  26 H1        7.7682    -8.1927    -4.9793  H       1  <O>11       0.0293
  27 H2        8.9132    -7.7240    -3.6996  H       1  <O>11       0.0293
  28 H3        9.1973    -7.2102    -5.3799  H       1  <O>11       0.0293
  29 H4        7.8152    -1.7952    -3.5664  H       1  <O>11       0.0363
  30 H5        9.3589    -2.6811    -3.5608  H       1  <O>11       0.0363
  31 H6        9.5784    -2.2139     5.2318  H       1  <O>11       0.0444
  32 H7        9.7114    -0.4390     5.2314  H       1  <O>11       0.0444
  33 H8        7.1490    -2.0700     5.1533  H       1  <O>11       0.0278
  34 H9        7.7676    -1.1243     6.5287  H       1  <O>11       0.0278
  35 H10       5.9710     0.0508     5.2554  H       1  <O>11       0.0266
  36 H11       7.5096     0.9462     5.2883  H       1  <O>11       0.0266
  37 H12       6.3949    -0.7295     3.0135  H       1  <O>11       0.0281
  38 H13       6.6197     1.0363     3.0453  H       1  <O>11       0.0281
  39 H14       8.3739    -0.1957     1.7485  H       1  <O>11       0.0477
  40 H15      10.2574     1.0425     2.7837  H       1  <O>11       0.0245
  41 H16       9.2858     1.2726     4.2585  H       1  <O>11       0.0245
  42 H17       8.7763     2.0297     2.7297  H       1  <O>11       0.0245
  43 H18       4.6389    -4.9447    -4.5088  H       1  <O>11       0.1921
  44 H19       9.3662    -5.1186    -3.7639  H       1  <O>11       0.0640
  45 H20       6.4926    -1.6410    -1.5242  H       1  <O>11       0.0621
  46 H21       6.4999    -1.6156     0.9028  H       1  <O>11       0.0637
  47 H22      10.1474    -3.7068     0.9117  H       1  <O>11       0.0637
  48 H23      10.1524    -3.7382    -1.5107  H       1  <O>11       0.0621
@<TRIPOS>BOND
     1     1     2    1
     2     2     3   ar
     3     3     4   ar
     4     4     5    1
     5     5     6    1
     6     6     7   ar
     7     7     8   ar
     8     8     9   ar
     9     9    10    1
    10    10    11    2
    11    10    12    2
    12    10    13    1
    13    13    14    1
    14    14    15    1
    15    15    16    1
    16    16    17    1
    17    17    18    1
    18    13    18    1
    19    18    19    1
    20     9    20   ar
    21    20    21   ar
    22     6    21   ar
    23     4    22   ar
    24    22    23    2
    25    22    24   ar
    26    24    25   ar
    27     2    25   ar
    28     1    26    1
    29     1    27    1
    30     1    28    1
    31     5    29    1
    32     5    30    1
    33    14    31    1
    34    14    32    1
    35    15    33    1
    36    15    34    1
    37    16    35    1
    38    16    36    1
    39    17    37    1
    40    17    38    1
    41    18    39    1
    42    19    40    1
    43    19    41    1
    44    19    42    1
    45    24    43    1
    46     3    44    1
    47     7    45    1
    48     8    46    1
    49    20    47    1
    50    21    48    1
@<TRIPOS>MOLECULE
mol3_1_3
 48 50 0 0 0
SMALL
USER_CHARGES
****
VDW energy = -30.12
@<TRIPOS>ATOM
   1 C1        8.4349    -7.4061    -4.6260  C.3     1  <O>11      -0.0207
   2 C2        7.6575    -6.1755    -4.3811  C.ar    1  <O>11       0.0588
   3 C3        8.3482    -5.0729    -3.9271  C.ar    1  <O>11      -0.0303
   4 C4        7.6391    -3.8908    -3.6925  C.ar    1  <O>11       0.0243
   5 C5        8.3300    -2.6830    -3.2000  C.3     1  <O>11       0.0028
   6 C6        9.5105    -3.0824    -2.3914  C.ar    1  <O>11      -0.0428
   7 C7       10.7626    -3.2597    -3.0039  C.ar    1  <O>11      -0.0564
   8 C8       11.8718    -3.6484    -2.2447  C.ar    1  <O>11      -0.0351
   9 C9       11.7430    -3.8590    -0.8684  C.ar    1  <O>11       0.1055
  10 S1       13.1315    -4.3518     0.0942  S.O2    1  <O>11       0.0611
  11 O1       12.9680    -3.7681     1.6404  O.2     1  <O>11      -0.1528
  12 O2       14.5205    -3.7418    -0.5846  O.2     1  <O>11      -0.1528
  13 N1       13.2159    -6.0010     0.1332  N.3     1  <O>11      -0.1738
  14 C10      14.3941    -6.4028     0.9519  C.3     1  <O>11       0.0208
  15 C11      15.6994    -5.9534     0.3092  C.3     1  <O>11      -0.0385
  16 C12      15.8240    -6.4919    -1.1112  C.3     1  <O>11      -0.0504
  17 C13      14.6075    -6.1118    -1.9471  C.3     1  <O>11      -0.0359
  18 C14      13.3029    -6.5105    -1.2638  C.3     1  <O>11       0.0291
  19 C15      13.2062    -8.0272    -1.2412  C.3     1  <O>11      -0.0478
  20 C16      10.4971    -3.6738    -0.2579  C.ar    1  <O>11      -0.0351
  21 C17       9.3850    -3.2864    -1.0069  C.ar    1  <O>11      -0.0564
  22 C18       6.2698    -3.8614    -3.9276  C.ar    1  <O>11       0.2682
  23 O3        5.5373    -2.6772    -3.7187  O.2     1  <O>11      -0.2661
  24 N2        5.6373    -4.9835    -4.3615  N.ar    1  <O>11      -0.2428
  25 N3        6.3348    -6.1497    -4.5969  N.ar    1  <O>11      -0.1762
  26 H1        7.7682    -8.1927    -4.9793  H       1  <O>11       0.0293
  27 H2        8.9132    -7.7240    -3.6996  H       1  <O>11       0.0293
  28 H3        9.1973    -7.2102    -5.3799  H       1  <O>11       0.0293
  29 H4        7.6467    -2.0997    -2.5833  H       1  <O>11       0.0363
  30 H5        8.6576    -2.0812    -4.0481  H       1  <O>11       0.0363
  31 H6       14.3124    -5.9494     1.9396  H       1  <O>11       0.0444
  32 H7       14.4032    -7.4881     1.0496  H       1  <O>11       0.0444
  33 H8       15.7249    -4.8625     0.2806  H       1  <O>11       0.0278
  34 H9       16.5350    -6.3195     0.9047  H       1  <O>11       0.0278
  35 H10      16.7186    -6.0762    -1.5727  H       1  <O>11       0.0266
  36 H11      15.9060    -7.5794    -1.0725  H       1  <O>11       0.0266
  37 H12      14.6103    -5.0321    -2.1013  H       1  <O>11       0.0281
  38 H13      14.6706    -6.6168    -2.9106  H       1  <O>11       0.0281
  39 H14      12.4685    -6.1009    -1.8332  H       1  <O>11       0.0477
  40 H15      12.2763    -8.3265    -0.7553  H       1  <O>11       0.0245
  41 H16      14.0525    -8.4401    -0.6905  H       1  <O>11       0.0245
  42 H17      13.2193    -8.4090    -2.2636  H       1  <O>11       0.0245
  43 H18       4.6389    -4.9447    -4.5088  H       1  <O>11       0.1921
  44 H19       9.3662    -5.1186    -3.7639  H       1  <O>11       0.0640
  45 H20      10.8646    -3.1025    -4.0187  H       1  <O>11       0.0621
  46 H21      12.7876    -3.7799    -2.7019  H       1  <O>11       0.0637
  47 H22      10.3998    -3.8254     0.7583  H       1  <O>11       0.0637
  48 H23       8.4723    -3.1502    -0.5448  H       1  <O>11       0.0621
@<TRIPOS>BOND
     1     1     2    1
     2     2     3   ar
     3     3     4   ar
     4     4     5    1
     5     5     6    1
     6     6     7   ar
     7     7     8   ar
     8     8     9   ar
     9     9    10    1
    10    10    11    2
    11    10    12    2
    12    10    13    1
    13    13    14    1
    14    14    15    1
    15    15    16    1
    16    16    17    1
    17    17    18    1
    18    13    18    1
    19    18    19    1
    20     9    20   ar
    21    20    21   ar
    22     6    21   ar
    23     4    22   ar
    24    22    23    2
    25    22    24   ar
    26    24    25   ar
    27     2    25   ar
    28     1    26    1
    29     1    27    1
    30     1    28    1
    31     5    29    1
    32     5    30    1
    33    14    31    1
    34    14    32    1
    35    15    33    1
    36    15    34    1
    37    16    35    1
    38    16    36    1
    39    17    37    1
    40    17    38    1
    41    18    39    1
    42    19    40    1
    43    19    41    1
    44    19    42    1
    45    24    43    1
    46     3    44    1
    47     7    45    1
    48     8    46    1
    49    20    47    1
    50    21    48    1
@<TRIPOS>MOLECULE
mol3_1_4
 48 50 0 0 0
SMALL
USER_CHARGES
****
VDW energy = -29.96
@<TRIPOS>ATOM
   1 C1        8.4349    -7.4061    -4.6260  C.3     1  <O>11      -0.0207
   2 C2        7.6575    -6.1755    -4.3811  C.ar    1  <O>11       0.0588
   3 C3        8.3482    -5.0729    -3.9271  C.ar    1  <O>11      -0.0303
   4 C4        7.6391    -3.8908    -3.6925  C.ar    1  <O>11       0.0243
   5 C5        8.3300    -2.6830    -3.2000  C.3     1  <O>11       0.0028
   6 C6        8.7973    -1.8738    -4.3549  C.ar    1  <O>11      -0.0428
   7 C7        9.4876    -0.6684    -4.1433  C.ar    1  <O>11      -0.0564
   8 C8        9.9166     0.1004    -5.2308  C.ar    1  <O>11      -0.0351
   9 C9        9.6649    -0.3281    -6.5377  C.ar    1  <O>11       0.1055
  10 S1       10.1971     0.6340    -7.9119  S.O2    1  <O>11       0.0611
  11 O1       10.5216    -0.3678    -9.1962  O.2     1  <O>11      -0.1528
  12 O2       11.5722     1.4724    -7.5017  O.2     1  <O>11      -0.1528
  13 N1        9.0066     1.6997    -8.3308  N.3     1  <O>11      -0.1738
  14 C10       7.7817     0.9335    -8.6949  C.3     1  <O>11       0.0208
  15 C11       8.0058     0.0803    -9.9361  C.3     1  <O>11      -0.0385
  16 C12       8.4740     0.9331   -11.1094  C.3     1  <O>11      -0.0504
  17 C13       9.7088     1.7445   -10.7353  C.3     1  <O>11      -0.0359
  18 C14       9.4941     2.5464    -9.4552  C.3     1  <O>11       0.0291
  19 C15       8.4724     3.6383    -9.7277  C.3     1  <O>11      -0.0478
  20 C16       8.9846    -1.5334    -6.7474  C.ar    1  <O>11      -0.0351
  21 C17       8.5527    -2.3069    -5.6690  C.ar    1  <O>11      -0.0564
  22 C18       6.2698    -3.8614    -3.9276  C.ar    1  <O>11       0.2682
  23 O3        5.5373    -2.6772    -3.7187  O.2     1  <O>11      -0.2661
  24 N2        5.6373    -4.9835    -4.3615  N.ar    1  <O>11      -0.2428
  25 N3        6.3348    -6.1497    -4.5969  N.ar    1  <O>11      -0.1762
  26 H1        7.7682    -8.1927    -4.9793  H       1  <O>11       0.0293
  27 H2        8.9132    -7.7240    -3.6996  H       1  <O>11       0.0293
  28 H3        9.1973    -7.2102    -5.3799  H       1  <O>11       0.0293
  29 H4        9.1849    -2.9763    -2.5912  H       1  <O>11       0.0363
  30 H5        7.6407    -2.0912    -2.5972  H       1  <O>11       0.0363
  31 H6        7.5088     0.2832    -7.8640  H       1  <O>11       0.0444
  32 H7        6.9708     1.6348    -8.8894  H       1  <O>11       0.0444
  33 H8        8.7648    -0.6733    -9.7177  H       1  <O>11       0.0278
  34 H9        7.0721    -0.4132   -10.2033  H       1  <O>11       0.0278
  35 H10       8.7147     0.2827   -11.9491  H       1  <O>11       0.0266
  36 H11       7.6711     1.6148   -11.3952  H       1  <O>11       0.0266
  37 H12      10.5467     1.0619   -10.5886  H       1  <O>11       0.0281
  38 H13       9.9382     2.4320   -11.5489  H       1  <O>11       0.0281
  39 H14      10.4411     2.9991    -9.1611  H       1  <O>11       0.0477
  40 H15       8.3097     4.2207    -8.8196  H       1  <O>11       0.0245
  41 H16       7.5303     3.1880   -10.0435  H       1  <O>11       0.0245
  42 H17       8.8418     4.2950   -10.5173  H       1  <O>11       0.0245
  43 H18       4.6389    -4.9447    -4.5088  H       1  <O>11       0.1921
  44 H19       9.3662    -5.1186    -3.7639  H       1  <O>11       0.0640
  45 H20       9.6792    -0.3486    -3.1810  H       1  <O>11       0.0621
  46 H21      10.4202     0.9864    -5.0678  H       1  <O>11       0.0637
  47 H22       8.8003    -1.8538    -7.7109  H       1  <O>11       0.0637
  48 H23       8.0547    -3.1951    -5.8363  H       1  <O>11       0.0621
@<TRIPOS>BOND
     1     1     2    1
     2     2     3   ar
     3     3     4   ar
     4     4     5    1
     5     5     6    1
     6     6     7   ar
     7     7     8   ar
     8     8     9   ar
     9     9    10    1
    10    10    11    2
    11    10    12    2
    12    10    13    1
    13    13    14    1
    14    14    15    1
    15    15    16    1
    16    16    17    1
    17    17    18    1
    18    13    18    1
    19    18    19    1
    20     9    20   ar
    21    20    21   ar
    22     6    21   ar
    23     4    22   ar
    24    22    23    2
    25    22    24   ar
    26    24    25   ar
    27     2    25   ar
    28     1    26    1
    29     1    27    1
    30     1    28    1
    31     5    29    1
    32     5    30    1
    33    14    31    1
    34    14    32    1
    35    15    33    1
    36    15    34    1
    37    16    35    1
    38    16    36    1
    39    17    37    1
    40    17    38    1
    41    18    39    1
    42    19    40    1
    43    19    41    1
    44    19    42    1
    45    24    43    1
    46     3    44    1
    47     7    45    1
    48     8    46    1
    49    20    47    1
    50    21    48    1
@<TRIPOS>MOLECULE
mol3_1_5
 48 50 0 0 0
SMALL
USER_CHARGES
****
VDW energy = -29.23
@<TRIPOS>ATOM
   1 C1        8.4349    -7.4061    -4.6260  C.3     1  <O>11      -0.0207
   2 C2        7.6575    -6.1755    -4.3811  C.ar    1  <O>11       0.0588
   3 C3        8.3482    -5.0729    -3.9271  C.ar    1  <O>11      -0.0303
   4 C4        7.6391    -3.8908    -3.6925  C.ar    1  <O>11       0.0243
   5 C5        8.3300    -2.6830    -3.2000  C.3     1  <O>11       0.0028
   6 C6        8.7973    -1.8738    -4.3549  C.ar    1  <O>11      -0.0428
   7 C7        9.4876    -0.6684    -4.1433  C.ar    1  <O>11      -0.0564
   8 C8        9.9166     0.1004    -5.2308  C.ar    1  <O>11      -0.0351
   9 C9        9.6649    -0.3281    -6.5377  C.ar    1  <O>11       0.1055
  10 S1       10.1971     0.6340    -7.9119  S.O2    1  <O>11       0.0611
  11 O1       10.2072     2.2407    -7.4917  O.2     1  <O>11      -0.1528
  12 O2        9.1569     0.4011    -9.1871  O.2     1  <O>11      -0.1528
  13 N1       11.7200     0.1692    -8.3515  N.3     1  <O>11      -0.1738
  14 C10      12.6395     0.3834    -7.1987  C.3     1  <O>11       0.0208
  15 C11      12.7605     1.8603    -6.8485  C.3     1  <O>11      -0.0385
  16 C12      13.2140     2.6737    -8.0552  C.3     1  <O>11      -0.0504
  17 C13      12.2966     2.4362    -9.2489  C.3     1  <O>11      -0.0359
  18 C14      12.1326     0.9497    -9.5512  C.3     1  <O>11       0.0291
  19 C15      13.4572     0.4052   -10.0607  C.3     1  <O>11      -0.0478
  20 C16       8.9846    -1.5334    -6.7474  C.ar    1  <O>11      -0.0351
  21 C17       8.5527    -2.3069    -5.6690  C.ar    1  <O>11      -0.0564
  22 C18       6.2698    -3.8614    -3.9276  C.ar    1  <O>11       0.2682
  23 O3        5.5373    -2.6772    -3.7187  O.2     1  <O>11      -0.2661
  24 N2        5.6373    -4.9835    -4.3615  N.ar    1  <O>11      -0.2428
  25 N3        6.3348    -6.1497    -4.5969  N.ar    1  <O>11      -0.1762
  26 H1        7.7682    -8.1927    -4.9793  H       1  <O>11       0.0293
  27 H2        8.9132    -7.7240    -3.6996  H       1  <O>11       0.0293
  28 H3        9.1973    -7.2102    -5.3799  H       1  <O>11       0.0293
  29 H4        9.1849    -2.9763    -2.5912  H       1  <O>11       0.0363
  30 H5        7.6407    -2.0912    -2.5972  H       1  <O>11       0.0363
  31 H6       12.2551    -0.1547    -6.3324  H       1  <O>11       0.0444
  32 H7       13.6259    -0.0008    -7.4572  H       1  <O>11       0.0444
  33 H8       11.7880     2.2279    -6.5157  H       1  <O>11       0.0278
  34 H9       13.4864     1.9783    -6.0449  H       1  <O>11       0.0278
  35 H10      13.1988     3.7318    -7.7978  H       1  <O>11       0.0266
  36 H11      14.2304     2.3781    -8.3206  H       1  <O>11       0.0266
  37 H12      11.3170     2.8626    -9.0297  H       1  <O>11       0.0281
  38 H13      12.7207     2.9300   -10.1227  H       1  <O>11       0.0281
  39 H14      11.3696     0.8296   -10.3204  H       1  <O>11       0.0477
  40 H15      13.3538    -0.6581   -10.2818  H       1  <O>11       0.0245
  41 H16      14.2272     0.5446    -9.3007  H       1  <O>11       0.0245
  42 H17      13.7453     0.9374   -10.9691  H       1  <O>11       0.0245
  43 H18       4.6389    -4.9447    -4.5088  H       1  <O>11       0.1921
  44 H19       9.3662    -5.1186    -3.7639  H       1  <O>11       0.0640
  45 H20       9.6792    -0.3486    -3.1810  H       1  <O>11       0.0621
  46 H21      10.4202     0.9864    -5.0678  H       1  <O>11       0.0637
  47 H22       8.8003    -1.8538    -7.7109  H       1  <O>11       0.0637
  48 H23       8.0547    -3.1951    -5.8363  H       1  <O>11       0.0621
@<TRIPOS>BOND
     1     1     2    1
     2     2     3   ar
     3     3     4   ar
     4     4     5    1
     5     5     6    1
     6     6     7   ar
     7     7     8   ar
     8     8     9   ar
     9     9    10    1
    10    10    11    2
    11    10    12    2
    12    10    13    1
    13    13    14    1
    14    14    15    1
    15    15    16    1
    16    16    17    1
    17    17    18    1
    18    13    18    1
    19    18    19    1
    20     9    20   ar
    21    20    21   ar
    22     6    21   ar
    23     4    22   ar
    24    22    23    2
    25    22    24   ar
    26    24    25   ar
    27     2    25   ar
    28     1    26    1
    29     1    27    1
    30     1    28    1
    31     5    29    1
    32     5    30    1
    33    14    31    1
    34    14    32    1
    35    15    33    1
    36    15    34    1
    37    16    35    1
    38    16    36    1
    39    17    37    1
    40    17    38    1
    41    18    39    1
    42    19    40    1
    43    19    41    1
    44    19    42    1
    45    24    43    1
    46     3    44    1
    47     7    45    1
    48     8    46    1
    49    20    47    1
    50    21    48    1
@<TRIPOS>MOLECULE
mol3_1_6
 48 50 0 0 0
SMALL
USER_CHARGES
****
VDW energy = -27.12
@<TRIPOS>ATOM
   1 C1        8.4349    -7.4061    -4.6260  C.3     1  <O>11      -0.0207
   2 C2        7.6575    -6.1755    -4.3811  C.ar    1  <O>11       0.0588
   3 C3        8.3482    -5.0729    -3.9271  C.ar    1  <O>11      -0.0303
   4 C4        7.6391    -3.8908    -3.6925  C.ar    1  <O>11       0.0243
   5 C5        8.3300    -2.6830    -3.2000  C.3     1  <O>11       0.0028
   6 C6        7.7506    -2.2789    -1.8931  C.ar    1  <O>11      -0.0428
   7 C7        6.6647    -1.3887    -1.8436  C.ar    1  <O>11      -0.0564
   8 C8        6.1271    -0.9979    -0.6123  C.ar    1  <O>11      -0.0351
   9 C9        6.6646    -1.4945     0.5791  C.ar    1  <O>11       0.1055
  10 S1        5.9977    -1.0057     2.1327  S.O2    1  <O>11       0.0611
  11 O1        6.1303     0.6414     2.2982  O.2     1  <O>11      -0.1528
  12 O2        6.8369    -1.7550     3.3560  O.2     1  <O>11      -0.1528
  13 N1        4.4062    -1.4415     2.2093  N.3     1  <O>11      -0.1738
  14 C10       3.8555    -1.0205     3.5283  C.3     1  <O>11       0.0208
  15 C11       4.5264    -1.7633     4.6757  C.3     1  <O>11      -0.0385
  16 C12       4.4013    -3.2720     4.4987  C.3     1  <O>11      -0.0504
  17 C13       4.9338    -3.7075     3.1386  C.3     1  <O>11      -0.0359
  18 C14       4.3007    -2.9126     2.0007  C.3     1  <O>11       0.0291
  19 C15       2.8321    -3.2908     1.8978  C.3     1  <O>11      -0.0478
  20 C16       7.7409    -2.3879     0.5283  C.ar    1  <O>11      -0.0351
  21 C17       8.2840    -2.7834    -0.6951  C.ar    1  <O>11      -0.0564
  22 C18       6.2698    -3.8614    -3.9276  C.ar    1  <O>11       0.2682
  23 O3        5.5373    -2.6772    -3.7187  O.2     1  <O>11      -0.2661
  24 N2        5.6373    -4.9835    -4.3615  N.ar    1  <O>11      -0.2428
  25 N3        6.3348    -6.1497    -4.5969  N.ar    1  <O>11      -0.1762
  26 H1        7.7682    -8.1927    -4.9793  H       1  <O>11       0.0293
  27 H2        8.9132    -7.7240    -3.6996  H       1  <O>11       0.0293
  28 H3        9.1973    -7.2102    -5.3799  H       1  <O>11       0.0293
  29 H4        8.2050    -1.8742    -3.9194  H       1  <O>11       0.0363
  30 H5        9.3917    -2.8977    -3.0757  H       1  <O>11       0.0363
  31 H6        4.0187     0.0494     3.6568  H       1  <O>11       0.0444
  32 H7        2.7864    -1.2302     3.5482  H       1  <O>11       0.0444
  33 H8        5.5839    -1.4940     4.7040  H       1  <O>11       0.0278
  34 H9        4.0539    -1.4732     5.6135  H       1  <O>11       0.0278
  35 H10       4.9702    -3.7711     5.2818  H       1  <O>11       0.0266
  36 H11       3.3496    -3.5525     4.5777  H       1  <O>11       0.0266
  37 H12       6.0136    -3.5548     3.1187  H       1  <O>11       0.0281
  38 H13       4.7136    -4.7651     2.9965  H       1  <O>11       0.0281
  39 H14       4.8081    -3.1665     1.0698  H       1  <O>11       0.0477
  40 H15       2.3666    -2.7295     1.0863  H       1  <O>11       0.0245
  41 H16       2.3272    -3.0578     2.8364  H       1  <O>11       0.0245
  42 H17       2.7438    -4.3597     1.6956  H       1  <O>11       0.0245
  43 H18       4.6389    -4.9447    -4.5088  H       1  <O>11       0.1921
  44 H19       9.3662    -5.1186    -3.7639  H       1  <O>11       0.0640
  45 H20       6.2616    -1.0213    -2.7197  H       1  <O>11       0.0621
  46 H21       5.3315    -0.3411    -0.5835  H       1  <O>11       0.0637
  47 H22       8.1377    -2.7587     1.4059  H       1  <O>11       0.0637
  48 H23       9.0757    -3.4449    -0.7197  H       1  <O>11       0.0621
@<TRIPOS>BOND
     1     1     2    1
     2     2     3   ar
     3     3     4   ar
     4     4     5    1
     5     5     6    1
     6     6     7   ar
     7     7     8   ar
     8     8     9   ar
     9     9    10    1
    10    10    11    2
    11    10    12    2
    12    10    13    1
    13    13    14    1
    14    14    15    1
    15    15    16    1
    16    16    17    1
    17    17    18    1
    18    13    18    1
    19    18    19    1
    20     9    20   ar
    21    20    21   ar
    22     6    21   ar
    23     4    22   ar
    24    22    23    2
    25    22    24   ar
    26    24    25   ar
    27     2    25   ar
    28     1    26    1
    29     1    27    1
    30     1    28    1
    31     5    29    1
    32     5    30    1
    33    14    31    1
    34    14    32    1
    35    15    33    1
    36    15    34    1
    37    16    35    1
    38    16    36    1
    39    17    37    1
    40    17    38    1
    41    18    39    1
    42    19    40    1
    43    19    41    1
    44    19    42    1
    45    24    43    1
    46     3    44    1
    47     7    45    1
    48     8    46    1
    49    20    47    1
    50    21    48    1
@<TRIPOS>MOLECULE
mol3_1_7
 48 50 0 0 0
SMALL
USER_CHARGES
****
VDW energy = -25.48
@<TRIPOS>ATOM
   1 C1        8.4349    -7.4061    -4.6260  C.3     1  <O>11      -0.0207
   2 C2        7.6575    -6.1755    -4.3811  C.ar    1  <O>11       0.0588
   3 C3        8.3482    -5.0729    -3.9271  C.ar    1  <O>11      -0.0303
   4 C4        7.6391    -3.8908    -3.6925  C.ar    1  <O>11       0.0243
   5 C5        8.3300    -2.6830    -3.2000  C.3     1  <O>11       0.0028
   6 C6        8.1583    -1.5796    -4.1798  C.ar    1  <O>11      -0.0428
   7 C7        9.0895    -1.4004    -5.2166  C.ar    1  <O>11      -0.0564
   8 C8        8.9350    -0.3534    -6.1319  C.ar    1  <O>11      -0.0351
   9 C9        7.8489     0.5205    -6.0238  C.ar    1  <O>11       0.1055
  10 S1        7.6482     1.8426    -7.1680  S.O2    1  <O>11       0.0611
  11 O1        9.1389     2.3422    -7.7031  O.2     1  <O>11      -0.1528
  12 O2        6.8746     3.1094    -6.4204  O.2     1  <O>11      -0.1528
  13 N1        6.7459     1.3265    -8.4517  N.3     1  <O>11      -0.1738
  14 C10       6.5846     2.4553    -9.4108  C.3     1  <O>11       0.0208
  15 C11       5.7864     3.5982    -8.7981  C.3     1  <O>11      -0.0385
  16 C12       4.4277     3.1144    -8.3052  C.3     1  <O>11      -0.0504
  17 C13       4.5820     1.9388    -7.3474  C.3     1  <O>11      -0.0359
  18 C14       5.4363     0.8264    -7.9478  C.3     1  <O>11       0.0291
  19 C15       4.6749     0.1933    -9.1010  C.3     1  <O>11      -0.0478
  20 C16       6.9171     0.3358    -4.9957  C.ar    1  <O>11      -0.0351
  21 C17       7.0630    -0.7055    -4.0779  C.ar    1  <O>11      -0.0564
  22 C18       6.2698    -3.8614    -3.9276  C.ar    1  <O>11       0.2682
  23 O3        5.5373    -2.6772    -3.7187  O.2     1  <O>11      -0.2661
  24 N2        5.6373    -4.9835    -4.3615  N.ar    1  <O>11      -0.2428
  25 N3        6.3348    -6.1497    -4.5969  N.ar    1  <O>11      -0.1762
  26 H1        7.7682    -8.1927    -4.9793  H       1  <O>11       0.0293
  27 H2        8.9132    -7.7240    -3.6996  H       1  <O>11       0.0293
  28 H3        9.1973    -7.2102    -5.3799  H       1  <O>11       0.0293
  29 H4        9.3911    -2.8970    -3.0749  H       1  <O>11       0.0363
  30 H5        7.9037    -2.3868    -2.2412  H       1  <O>11       0.0363
  31 H6        7.5700     2.8249    -9.6941  H       1  <O>11       0.0444
  32 H7        6.0629     2.0946   -10.2968  H       1  <O>11       0.0444
  33 H8        6.3450     4.0110    -7.9559  H       1  <O>11       0.0278
  34 H9        5.6388     4.3732    -9.5492  H       1  <O>11       0.0278
  35 H10       3.9239     3.9311    -7.7902  H       1  <O>11       0.0266
  36 H11       3.8301     2.8010    -9.1629  H       1  <O>11       0.0266
  37 H12       5.0552     2.2923    -6.4305  H       1  <O>11       0.0281
  38 H13       3.5944     1.5407    -7.1166  H       1  <O>11       0.0281
  39 H14       5.6256     0.0756    -7.1806  H       1  <O>11       0.0477
  40 H15       5.2748    -0.6054    -9.5396  H       1  <O>11       0.0245
  41 H16       4.4652     0.9483    -9.8600  H       1  <O>11       0.0245
  42 H17       3.7342    -0.2209    -8.7335  H       1  <O>11       0.0245
  43 H18       4.6389    -4.9447    -4.5088  H       1  <O>11       0.1921
  44 H19       9.3662    -5.1186    -3.7639  H       1  <O>11       0.0640
  45 H20       9.8914    -2.0442    -5.3034  H       1  <O>11       0.0621
  46 H21       9.6248    -0.2259    -6.8889  H       1  <O>11       0.0637
  47 H22       6.1127     0.9773    -4.9154  H       1  <O>11       0.0637
  48 H23       6.3678    -0.8331    -3.3260  H       1  <O>11       0.0621
@<TRIPOS>BOND
     1     1     2    1
     2     2     3   ar
     3     3     4   ar
     4     4     5    1
     5     5     6    1
     6     6     7   ar
     7     7     8   ar
     8     8     9   ar
     9     9    10    1
    10    10    11    2
    11    10    12    2
    12    10    13    1
    13    13    14    1
    14    14    15    1
    15    15    16    1
    16    16    17    1
    17    17    18    1
    18    13    18    1
    19    18    19    1
    20     9    20   ar
    21    20    21   ar
    22     6    21   ar
    23     4    22   ar
    24    22    23    2
    25    22    24   ar
    26    24    25   ar
    27     2    25   ar
    28     1    26    1
    29     1    27    1
    30     1    28    1
    31     5    29    1
    32     5    30    1
    33    14    31    1
    34    14    32    1
    35    15    33    1
    36    15    34    1
    37    16    35    1
    38    16    36    1
    39    17    37    1
    40    17    38    1
    41    18    39    1
    42    19    40    1
    43    19    41    1
    44    19    42    1
    45    24    43    1
    46     3    44    1
    47     7    45    1
    48     8    46    1
    49    20    47    1
    50    21    48    1
@<TRIPOS>MOLECULE
mol3_1_8
 48 50 0 0 0
SMALL
USER_CHARGES
****
VDW energy = -25.39
@<TRIPOS>ATOM
   1 C1        8.4349    -7.4061    -4.6260  C.3     1  <O>11      -0.0207
   2 C2        7.6575    -6.1755    -4.3811  C.ar    1  <O>11       0.0588
   3 C3        8.3482    -5.0729    -3.9271  C.ar    1  <O>11      -0.0303
   4 C4        7.6391    -3.8908    -3.6925  C.ar    1  <O>11       0.0243
   5 C5        8.3300    -2.6830    -3.2000  C.3     1  <O>11       0.0028
   6 C6        8.1583    -1.5796    -4.1798  C.ar    1  <O>11      -0.0428
   7 C7        9.0895    -1.4004    -5.2166  C.ar    1  <O>11      -0.0564
   8 C8        8.9350    -0.3534    -6.1319  C.ar    1  <O>11      -0.0351
   9 C9        7.8489     0.5205    -6.0238  C.ar    1  <O>11       0.1055
  10 S1        7.6482     1.8426    -7.1680  S.O2    1  <O>11       0.0611
  11 O1        9.1389     2.3422    -7.7031  O.2     1  <O>11      -0.1528
  12 O2        6.8746     3.1094    -6.4204  O.2     1  <O>11      -0.1528
  13 N1        6.7459     1.3265    -8.4517  N.3     1  <O>11      -0.1738
  14 C10       7.4519     0.1915    -9.1102  C.3     1  <O>11       0.0208
  15 C11       8.7798     0.6333    -9.7102  C.3     1  <O>11      -0.0385
  16 C12       8.5820     1.7837   -10.6903  C.3     1  <O>11      -0.0504
  17 C13       7.8325     2.9369   -10.0336  C.3     1  <O>11      -0.0359
  18 C14       6.5344     2.4712    -9.3810  C.3     1  <O>11       0.0291
  19 C15       5.5638     2.0470   -10.4711  C.3     1  <O>11      -0.0478
  20 C16       6.9171     0.3358    -4.9957  C.ar    1  <O>11      -0.0351
  21 C17       7.0630    -0.7055    -4.0779  C.ar    1  <O>11      -0.0564
  22 C18       6.2698    -3.8614    -3.9276  C.ar    1  <O>11       0.2682
  23 O3        5.5373    -2.6772    -3.7187  O.2     1  <O>11      -0.2661
  24 N2        5.6373    -4.9835    -4.3615  N.ar    1  <O>11      -0.2428
  25 N3        6.3348    -6.1497    -4.5969  N.ar    1  <O>11      -0.1762
  26 H1        7.7682    -8.1927    -4.9793  H       1  <O>11       0.0293
  27 H2        8.9132    -7.7240    -3.6996  H       1  <O>11       0.0293
  28 H3        9.1973    -7.2102    -5.3799  H       1  <O>11       0.0293
  29 H4        9.3911    -2.8970    -3.0749  H       1  <O>11       0.0363
  30 H5        7.9037    -2.3868    -2.2412  H       1  <O>11       0.0363
  31 H6        7.6398    -0.5873    -8.3713  H       1  <O>11       0.0444
  32 H7        6.8196    -0.2053    -9.9040  H       1  <O>11       0.0444
  33 H8        9.4425     0.9596    -8.9064  H       1  <O>11       0.0278
  34 H9        9.2326    -0.2081   -10.2334  H       1  <O>11       0.0278
  35 H10       9.5558     2.1362   -11.0274  H       1  <O>11       0.0266
  36 H11       8.0081     1.4255   -11.5466  H       1  <O>11       0.0266
  37 H12       8.4719     3.3824    -9.2705  H       1  <O>11       0.0281
  38 H13       7.5989     3.6828   -10.7928  H       1  <O>11       0.0281
  39 H14       6.1079     3.3002    -8.8161  H       1  <O>11       0.0477
  40 H15       4.6297     1.7119   -10.0179  H       1  <O>11       0.0245
  41 H16       5.9982     1.2320   -11.0517  H       1  <O>11       0.0245
  42 H17       5.3629     2.8933   -11.1304  H       1  <O>11       0.0245
  43 H18       4.6389    -4.9447    -4.5088  H       1  <O>11       0.1921
  44 H19       9.3662    -5.1186    -3.7639  H       1  <O>11       0.0640
  45 H20       9.8914    -2.0442    -5.3034  H       1  <O>11       0.0621
  46 H21       9.6248    -0.2259    -6.8889  H       1  <O>11       0.0637
  47 H22       6.1127     0.9773    -4.9154  H       1  <O>11       0.0637
  48 H23       6.3678    -0.8331    -3.3260  H       1  <O>11       0.0621
@<TRIPOS>BOND
     1     1     2    1
     2     2     3   ar
     3     3     4   ar
     4     4     5    1
     5     5     6    1
     6     6     7   ar
     7     7     8   ar
     8     8     9   ar
     9     9    10    1
    10    10    11    2
    11    10    12    2
    12    10    13    1
    13    13    14    1
    14    14    15    1
    15    15    16    1
    16    16    17    1
    17    17    18    1
    18    13    18    1
    19    18    19    1
    20     9    20   ar
    21    20    21   ar
    22     6    21   ar
    23     4    22   ar
    24    22    23    2
    25    22    24   ar
    26    24    25   ar
    27     2    25   ar
    28     1    26    1
    29     1    27    1
    30     1    28    1
    31     5    29    1
    32     5    30    1
    33    14    31    1
    34    14    32    1
    35    15    33    1
    36    15    34    1
    37    16    35    1
    38    16    36    1
    39    17    37    1
    40    17    38    1
    41    18    39    1
    42    19    40    1
    43    19    41    1
    44    19    42    1
    45    24    43    1
    46     3    44    1
    47     7    45    1
    48     8    46    1
    49    20    47    1
    50    21    48    1
@<TRIPOS>MOLECULE
mol3_1_9
 48 50 0 0 0
SMALL
USER_CHARGES
****
VDW energy = -25.35
@<TRIPOS>ATOM
   1 C1        8.4349    -7.4061    -4.6260  C.3     1  <O>11      -0.0207
   2 C2        7.6575    -6.1755    -4.3811  C.ar    1  <O>11       0.0588
   3 C3        8.3482    -5.0729    -3.9271  C.ar    1  <O>11      -0.0303
   4 C4        7.6391    -3.8908    -3.6925  C.ar    1  <O>11       0.0243
   5 C5        8.3300    -2.6830    -3.2000  C.3     1  <O>11       0.0028
   6 C6        8.7973    -1.8738    -4.3549  C.ar    1  <O>11      -0.0428
   7 C7       10.0727    -2.0906    -4.9031  C.ar    1  <O>11      -0.0564
   8 C8       10.5181    -1.3199    -5.9826  C.ar    1  <O>11      -0.0351
   9 C9        9.6943    -0.3300    -6.5271  C.ar    1  <O>11       0.1055
  10 S1       10.2472     0.6472    -7.8824  S.O2    1  <O>11       0.0611
  11 O1       10.3253    -0.2946    -9.2480  O.2     1  <O>11      -0.1528
  12 O2       11.7548     1.2599    -7.5447  O.2     1  <O>11      -0.1528
  13 N1        9.1897     1.8917    -8.1303  N.3     1  <O>11      -0.1738
  14 C10       9.6698     2.7085    -9.2803  C.3     1  <O>11       0.0208
  15 C11      11.0034     3.3758    -8.9725  C.3     1  <O>11      -0.0385
  16 C12      10.9116     4.2266    -7.7111  C.3     1  <O>11      -0.0504
  17 C13      10.3913     3.4061    -6.5367  C.3     1  <O>11      -0.0359
  18 C14       9.0872     2.6913    -6.8778  C.3     1  <O>11       0.0291
  19 C15       7.9898     3.7296    -7.0454  C.3     1  <O>11      -0.0478
  20 C16       8.4206    -0.1206    -5.9857  C.ar    1  <O>11      -0.0351
  21 C17       7.9677    -0.8842    -4.9088  C.ar    1  <O>11      -0.0564
  22 C18       6.2698    -3.8614    -3.9276  C.ar    1  <O>11       0.2682
  23 O3        5.5373    -2.6772    -3.7187  O.2     1  <O>11      -0.2661
  24 N2        5.6373    -4.9835    -4.3615  N.ar    1  <O>11      -0.2428
  25 N3        6.3348    -6.1497    -4.5969  N.ar    1  <O>11      -0.1762
  26 H1        7.7682    -8.1927    -4.9793  H       1  <O>11       0.0293
  27 H2        8.9132    -7.7240    -3.6996  H       1  <O>11       0.0293
  28 H3        9.1973    -7.2102    -5.3799  H       1  <O>11       0.0293
  29 H4        9.1849    -2.9763    -2.5912  H       1  <O>11       0.0363
  30 H5        7.6407    -2.0912    -2.5972  H       1  <O>11       0.0363
  31 H6        9.7905     2.0625   -10.1497  H       1  <O>11       0.0444
  32 H7        8.9310     3.4789    -9.4995  H       1  <O>11       0.0444
  33 H8       11.7623     2.6046    -8.8281  H       1  <O>11       0.0278
  34 H9       11.2871     4.0102    -9.8114  H       1  <O>11       0.0278
  35 H10      11.9010     4.6112    -7.4678  H       1  <O>11       0.0266
  36 H11      10.2317     5.0603    -7.8942  H       1  <O>11       0.0266
  37 H12      11.1422     2.6624    -6.2674  H       1  <O>11       0.0281
  38 H13      10.2191     4.0715    -5.6912  H       1  <O>11       0.0281
  39 H14       8.8304     2.0190    -6.0591  H       1  <O>11       0.0477
  40 H15       7.0502     3.2314    -7.2891  H       1  <O>11       0.0245
  41 H16       8.2554     4.4168    -7.8499  H       1  <O>11       0.0245
  42 H17       7.8720     4.2894    -6.1159  H       1  <O>11       0.0245
  43 H18       4.6389    -4.9447    -4.5088  H       1  <O>11       0.1921
  44 H19       9.3662    -5.1186    -3.7639  H       1  <O>11       0.0640
  45 H20      10.6839    -2.8220    -4.5076  H       1  <O>11       0.0621
  46 H21      11.4574    -1.4825    -6.3781  H       1  <O>11       0.0637
  47 H22       7.8091     0.6072    -6.3876  H       1  <O>11       0.0637
  48 H23       7.0255    -0.7224    -4.5201  H       1  <O>11       0.0621
@<TRIPOS>BOND
     1     1     2    1
     2     2     3   ar
     3     3     4   ar
     4     4     5    1
     5     5     6    1
     6     6     7   ar
     7     7     8   ar
     8     8     9   ar
     9     9    10    1
    10    10    11    2
    11    10    12    2
    12    10    13    1
    13    13    14    1
    14    14    15    1
    15    15    16    1
    16    16    17    1
    17    17    18    1
    18    13    18    1
    19    18    19    1
    20     9    20   ar
    21    20    21   ar
    22     6    21   ar
    23     4    22   ar
    24    22    23    2
    25    22    24   ar
    26    24    25   ar
    27     2    25   ar
    28     1    26    1
    29     1    27    1
    30     1    28    1
    31     5    29    1
    32     5    30    1
    33    14    31    1
    34    14    32    1
    35    15    33    1
    36    15    34    1
    37    16    35    1
    38    16    36    1
    39    17    37    1
    40    17    38    1
    41    18    39    1
    42    19    40    1
    43    19    41    1
    44    19    42    1
    45    24    43    1
    46     3    44    1
    47     7    45    1
    48     8    46    1
    49    20    47    1
    50    21    48    1
@<TRIPOS>MOLECULE
mol3_1_10
 48 50 0 0 0
SMALL
USER_CHARGES
****
VDW energy = -24.68
@<TRIPOS>ATOM
   1 C1        8.4349    -7.4061    -4.6260  C.3     1  <O>11      -0.0207
   2 C2        7.6575    -6.1755    -4.3811  C.ar    1  <O>11       0.0588
   3 C3        8.3482    -5.0729    -3.9271  C.ar    1  <O>11      -0.0303
   4 C4        7.6391    -3.8908    -3.6925  C.ar    1  <O>11       0.0243
   5 C5        8.3300    -2.6830    -3.2000  C.3     1  <O>11       0.0028
   6 C6        8.7973    -1.8738    -4.3549  C.ar    1  <O>11      -0.0428
   7 C7        7.9681    -0.8842    -4.9093  C.ar    1  <O>11      -0.0564
   8 C8        8.4029    -0.1307    -6.0052  C.ar    1  <O>11      -0.0351
   9 C9        9.6693    -0.3543    -6.5543  C.ar    1  <O>11       0.1055
  10 S1       10.2235     0.5857    -7.9351  S.O2    1  <O>11       0.0611
  11 O1       10.5060     2.1520    -7.4606  O.2     1  <O>11      -0.1528
  12 O2        9.0591     0.5673    -9.1209  O.2     1  <O>11      -0.1528
  13 N1       11.6194    -0.0726    -8.5236  N.3     1  <O>11      -0.1738
  14 C10      12.0768     0.7338    -9.6901  C.3     1  <O>11       0.0208
  15 C11      11.0852     0.6587   -10.8433  C.3     1  <O>11      -0.0385
  16 C12      10.8334    -0.7868   -11.2557  C.3     1  <O>11      -0.0504
  17 C13      10.3952    -1.6262   -10.0613  C.3     1  <O>11      -0.0359
  18 C14      11.3631    -1.4937    -8.8894  C.3     1  <O>11       0.0291
  19 C15      12.6811    -2.1499    -9.2669  C.3     1  <O>11      -0.0478
  20 C16      10.4979    -1.3345    -5.9957  C.ar    1  <O>11      -0.0351
  21 C17      10.0727    -2.0912    -4.9028  C.ar    1  <O>11      -0.0564
  22 C18       6.2698    -3.8614    -3.9276  C.ar    1  <O>11       0.2682
  23 O3        5.5373    -2.6772    -3.7187  O.2     1  <O>11      -0.2661
  24 N2        5.6373    -4.9835    -4.3615  N.ar    1  <O>11      -0.2428
  25 N3        6.3348    -6.1497    -4.5969  N.ar    1  <O>11      -0.1762
  26 H1        7.7682    -8.1927    -4.9793  H       1  <O>11       0.0293
  27 H2        8.9132    -7.7240    -3.6996  H       1  <O>11       0.0293
  28 H3        9.1973    -7.2102    -5.3799  H       1  <O>11       0.0293
  29 H4        9.1849    -2.9763    -2.5912  H       1  <O>11       0.0363
  30 H5        7.6407    -2.0912    -2.5972  H       1  <O>11       0.0363
  31 H6       12.1837     1.7741    -9.3834  H       1  <O>11       0.0444
  32 H7       13.0406     0.3530   -10.0270  H       1  <O>11       0.0444
  33 H8       10.1415     1.1101   -10.5311  H       1  <O>11       0.0278
  34 H9       11.4853     1.2086   -11.6944  H       1  <O>11       0.0278
  35 H10      10.0526    -0.8102   -12.0146  H       1  <O>11       0.0266
  36 H11      11.7541    -1.2038   -11.6675  H       1  <O>11       0.0266
  37 H12       9.4064    -1.2946    -9.7425  H       1  <O>11       0.0281
  38 H13      10.3479    -2.6718   -10.3642  H       1  <O>11       0.0281
  39 H14      10.9383    -2.0017    -8.0235  H       1  <O>11       0.0477
  40 H15      13.3832    -2.0630    -8.4364  H       1  <O>11       0.0245
  41 H16      13.0971    -1.6569   -10.1467  H       1  <O>11       0.0245
  42 H17      12.5129    -3.2051    -9.4895  H       1  <O>11       0.0245
  43 H18       4.6389    -4.9447    -4.5088  H       1  <O>11       0.1921
  44 H19       9.3662    -5.1186    -3.7639  H       1  <O>11       0.0640
  45 H20       7.0338    -0.7123    -4.5063  H       1  <O>11       0.0621
  46 H21       7.7872     0.5923    -6.4094  H       1  <O>11       0.0637
  47 H22      11.4343    -1.4996    -6.3969  H       1  <O>11       0.0637
  48 H23      10.6939    -2.8091    -4.4979  H       1  <O>11       0.0621
@<TRIPOS>BOND
     1     1     2    1
     2     2     3   ar
     3     3     4   ar
     4     4     5    1
     5     5     6    1
     6     6     7   ar
     7     7     8   ar
     8     8     9   ar
     9     9    10    1
    10    10    11    2
    11    10    12    2
    12    10    13    1
    13    13    14    1
    14    14    15    1
    15    15    16    1
    16    16    17    1
    17    17    18    1
    18    13    18    1
    19    18    19    1
    20     9    20   ar
    21    20    21   ar
    22     6    21   ar
    23     4    22   ar
    24    22    23    2
    25    22    24   ar
    26    24    25   ar
    27     2    25   ar
    28     1    26    1
    29     1    27    1
    30     1    28    1
    31     5    29    1
    32     5    30    1
    33    14    31    1
    34    14    32    1
    35    15    33    1
    36    15    34    1
    37    16    35    1
    38    16    36    1
    39    17    37    1
    40    17    38    1
    41    18    39    1
    42    19    40    1
    43    19    41    1
    44    19    42    1
    45    24    43    1
    46     3    44    1
    47     7    45    1
    48     8    46    1
    49    20    47    1
    50    21    48    1
@<TRIPOS>MOLECULE
mol3_1_11
 48 50 0 0 0
SMALL
USER_CHARGES
****
VDW energy = -24.28
@<TRIPOS>ATOM
   1 C1        8.4349    -7.4061    -4.6260  C.3     1  <O>11      -0.0207
   2 C2        7.6575    -6.1755    -4.3811  C.ar    1  <O>11       0.0588
   3 C3        8.3482    -5.0729    -3.9271  C.ar    1  <O>11      -0.0303
   4 C4        7.6391    -3.8908    -3.6925  C.ar    1  <O>11       0.0243
   5 C5        8.3300    -2.6830    -3.2000  C.3     1  <O>11       0.0028
   6 C6        8.1583    -1.5796    -4.1798  C.ar    1  <O>11      -0.0428
   7 C7        8.6278    -1.7208    -5.4965  C.ar    1  <O>11      -0.0564
   8 C8        8.4777    -0.6769    -6.4160  C.ar    1  <O>11      -0.0351
   9 C9        7.8545     0.5143    -6.0317  C.ar    1  <O>11       0.1055
  10 S1        7.6646     1.8345    -7.1800  S.O2    1  <O>11       0.0611
  11 O1        6.5469     1.4090    -8.3323  O.2     1  <O>11      -0.1528
  12 O2        9.1239     2.1463    -7.9117  O.2     1  <O>11      -0.1528
  13 N1        7.1481     3.1861    -6.3831  N.3     1  <O>11      -0.1738
  14 C10       6.9907     4.2937    -7.3673  C.3     1  <O>11       0.0208
  15 C11       8.3261     4.6836    -7.9866  C.3     1  <O>11      -0.0385
  16 C12       9.3388     5.0606    -6.9117  C.3     1  <O>11      -0.0504
  17 C13       9.4827     3.9452    -5.8829  C.3     1  <O>11      -0.0359
  18 C14       8.1320     3.5193    -5.3155  C.3     1  <O>11       0.0291
  19 C15       7.5762     4.6545    -4.4713  C.3     1  <O>11      -0.0478
  20 C16       7.3794     0.6507    -4.7221  C.ar    1  <O>11      -0.0351
  21 C17       7.5248    -0.3850    -3.7980  C.ar    1  <O>11      -0.0564
  22 C18       6.2698    -3.8614    -3.9276  C.ar    1  <O>11       0.2682
  23 O3        5.5373    -2.6772    -3.7187  O.2     1  <O>11      -0.2661
  24 N2        5.6373    -4.9835    -4.3615  N.ar    1  <O>11      -0.2428
  25 N3        6.3348    -6.1497    -4.5969  N.ar    1  <O>11      -0.1762
  26 H1        7.7682    -8.1927    -4.9793  H       1  <O>11       0.0293
  27 H2        8.9132    -7.7240    -3.6996  H       1  <O>11       0.0293
  28 H3        9.1973    -7.2102    -5.3799  H       1  <O>11       0.0293
  29 H4        9.3911    -2.8970    -3.0749  H       1  <O>11       0.0363
  30 H5        7.9037    -2.3868    -2.2412  H       1  <O>11       0.0363
  31 H6        6.3145     3.9724    -8.1593  H       1  <O>11       0.0444
  32 H7        6.5698     5.1609    -6.8592  H       1  <O>11       0.0444
  33 H8        8.7125     3.8390    -8.5602  H       1  <O>11       0.0278
  34 H9        8.1767     5.5341    -8.6507  H       1  <O>11       0.0278
  35 H10      10.3052     5.2414    -7.3802  H       1  <O>11       0.0266
  36 H11       9.0018     5.9691    -6.4097  H       1  <O>11       0.0266
  37 H12       9.9527     3.0848    -6.3607  H       1  <O>11       0.0281
  38 H13      10.1135     4.2977    -5.0673  H       1  <O>11       0.0281
  39 H14       8.2754     2.6375    -4.6909  H       1  <O>11       0.0477
  40 H15       6.6095     4.3627    -4.0582  H       1  <O>11       0.0245
  41 H16       7.4526     5.5446    -5.0898  H       1  <O>11       0.0245
  42 H17       8.2668     4.8745    -3.6552  H       1  <O>11       0.0245
  43 H18       4.6389    -4.9447    -4.5088  H       1  <O>11       0.1921
  44 H19       9.3662    -5.1186    -3.7639  H       1  <O>11       0.0640
  45 H20       9.0857    -2.5989    -5.7869  H       1  <O>11       0.0621
  46 H21       8.8280    -0.7865    -7.3806  H       1  <O>11       0.0637
  47 H22       6.9162     1.5276    -4.4366  H       1  <O>11       0.0637
  48 H23       7.1678    -0.2736    -2.8361  H       1  <O>11       0.0621
@<TRIPOS>BOND
     1     1     2    1
     2     2     3   ar
     3     3     4   ar
     4     4     5    1
     5     5     6    1
     6     6     7   ar
     7     7     8   ar
     8     8     9   ar
     9     9    10    1
    10    10    11    2
    11    10    12    2
    12    10    13    1
    13    13    14    1
    14    14    15    1
    15    15    16    1
    16    16    17    1
    17    17    18    1
    18    13    18    1
    19    18    19    1
    20     9    20   ar
    21    20    21   ar
    22     6    21   ar
    23     4    22   ar
    24    22    23    2
    25    22    24   ar
    26    24    25   ar
    27     2    25   ar
    28     1    26    1
    29     1    27    1
    30     1    28    1
    31     5    29    1
    32     5    30    1
    33    14    31    1
    34    14    32    1
    35    15    33    1
    36    15    34    1
    37    16    35    1
    38    16    36    1
    39    17    37    1
    40    17    38    1
    41    18    39    1
    42    19    40    1
    43    19    41    1
    44    19    42    1
    45    24    43    1
    46     3    44    1
    47     7    45    1
    48     8    46    1
    49    20    47    1
    50    21    48    1
@<TRIPOS>MOLECULE
mol3_1_12
 48 50 0 0 0
SMALL
USER_CHARGES
****
VDW energy = -24.05
@<TRIPOS>ATOM
   1 C1        8.4349    -7.4061    -4.6260  C.3     1  <O>11      -0.0207
   2 C2        7.6575    -6.1755    -4.3811  C.ar    1  <O>11       0.0588
   3 C3        8.3482    -5.0729    -3.9271  C.ar    1  <O>11      -0.0303
   4 C4        7.6391    -3.8908    -3.6925  C.ar    1  <O>11       0.0243
   5 C5        8.3300    -2.6830    -3.2000  C.3     1  <O>11       0.0028
   6 C6        8.7973    -1.8738    -4.3549  C.ar    1  <O>11      -0.0428
   7 C7        9.6981    -2.4193    -5.2850  C.ar    1  <O>11      -0.0564
   8 C8       10.1484    -1.6531    -6.3657  C.ar    1  <O>11      -0.0351
   9 C9        9.7011    -0.3386    -6.5304  C.ar    1  <O>11       0.1055
  10 S1       10.2648     0.6343    -7.8843  S.O2    1  <O>11       0.0611
  11 O1        9.6185     0.0450    -9.2961  O.2     1  <O>11      -0.1528
  12 O2       11.9234     0.5657    -7.9630  O.2     1  <O>11      -0.1528
  13 N1        9.7878     2.2014    -7.6713  N.3     1  <O>11      -0.1738
  14 C10      10.2706     3.0118    -8.8247  C.3     1  <O>11       0.0208
  15 C11      11.7917     3.0626    -8.8730  C.3     1  <O>11      -0.0385
  16 C12      12.3634     3.5968    -7.5649  C.3     1  <O>11      -0.0504
  17 C13      11.8496     2.7926    -6.3765  C.3     1  <O>11      -0.0359
  18 C14      10.3270     2.6951    -6.3735  C.3     1  <O>11       0.0291
  19 C15       9.7492     4.0728    -6.0930  C.3     1  <O>11      -0.0478
  20 C16       8.7970     0.2010    -5.6080  C.ar    1  <O>11      -0.0351
  21 C17       8.3425    -0.5555    -4.5268  C.ar    1  <O>11      -0.0564
  22 C18       6.2698    -3.8614    -3.9276  C.ar    1  <O>11       0.2682
  23 O3        5.5373    -2.6772    -3.7187  O.2     1  <O>11      -0.2661
  24 N2        5.6373    -4.9835    -4.3615  N.ar    1  <O>11      -0.2428
  25 N3        6.3348    -6.1497    -4.5969  N.ar    1  <O>11      -0.1762
  26 H1        7.7682    -8.1927    -4.9793  H       1  <O>11       0.0293
  27 H2        8.9132    -7.7240    -3.6996  H       1  <O>11       0.0293
  28 H3        9.1973    -7.2102    -5.3799  H       1  <O>11       0.0293
  29 H4        9.1849    -2.9763    -2.5912  H       1  <O>11       0.0363
  30 H5        7.6407    -2.0912    -2.5972  H       1  <O>11       0.0363
  31 H6        9.9025     2.5685    -9.7498  H       1  <O>11       0.0444
  32 H7        9.8856     4.0267    -8.7294  H       1  <O>11       0.0444
  33 H8       12.1761     2.0555    -9.0453  H       1  <O>11       0.0278
  34 H9       12.1013     3.7130    -9.6902  H       1  <O>11       0.0278
  35 H10      13.4500     3.5312    -7.5978  H       1  <O>11       0.0266
  36 H11      12.0650     4.6398    -7.4470  H       1  <O>11       0.0266
  37 H12      12.2682     1.7867    -6.4254  H       1  <O>11       0.0281
  38 H13      12.1747     3.2773    -5.4564  H       1  <O>11       0.0281
  39 H14      10.0205     2.0048    -5.5874  H       1  <O>11       0.0477
  40 H15       8.6597     4.0173    -6.0872  H       1  <O>11       0.0245
  41 H16      10.0729     4.7703    -6.8668  H       1  <O>11       0.0245
  42 H17      10.0988     4.4240    -5.1205  H       1  <O>11       0.0245
  43 H18       4.6389    -4.9447    -4.5088  H       1  <O>11       0.1921
  44 H19       9.3662    -5.1186    -3.7639  H       1  <O>11       0.0640
  45 H20      10.0293    -3.3900    -5.1705  H       1  <O>11       0.0621
  46 H21      10.8126    -2.0593    -7.0431  H       1  <O>11       0.0637
  47 H22       8.4627     1.1699    -5.7288  H       1  <O>11       0.0637
  48 H23       7.6737    -0.1475    -3.8550  H       1  <O>11       0.0621
@<TRIPOS>BOND
     1     1     2    1
     2     2     3   ar
     3     3     4   ar
     4     4     5    1
     5     5     6    1
     6     6     7   ar
     7     7     8   ar
     8     8     9   ar
     9     9    10    1
    10    10    11    2
    11    10    12    2
    12    10    13    1
    13    13    14    1
    14    14    15    1
    15    15    16    1
    16    16    17    1
    17    17    18    1
    18    13    18    1
    19    18    19    1
    20     9    20   ar
    21    20    21   ar
    22     6    21   ar
    23     4    22   ar
    24    22    23    2
    25    22    24   ar
    26    24    25   ar
    27     2    25   ar
    28     1    26    1
    29     1    27    1
    30     1    28    1
    31     5    29    1
    32     5    30    1
    33    14    31    1
    34    14    32    1
    35    15    33    1
    36    15    34    1
    37    16    35    1
    38    16    36    1
    39    17    37    1
    40    17    38    1
    41    18    39    1
    42    19    40    1
    43    19    41    1
    44    19    42    1
    45    24    43    1
    46     3    44    1
    47     7    45    1
    48     8    46    1
    49    20    47    1
    50    21    48    1
@<TRIPOS>MOLECULE
mol3_1_13
 48 50 0 0 0
SMALL
USER_CHARGES
****
VDW energy = -22.04
@<TRIPOS>ATOM
   1 C1        8.4349    -7.4061    -4.6260  C.3     1  <O>11      -0.0207
   2 C2        7.6575    -6.1755    -4.3811  C.ar    1  <O>11       0.0588
   3 C3        8.3482    -5.0729    -3.9271  C.ar    1  <O>11      -0.0303
   4 C4        7.6391    -3.8908    -3.6925  C.ar    1  <O>11       0.0243
   5 C5        8.3300    -2.6830    -3.2000  C.3     1  <O>11       0.0028
   6 C6        8.3266    -2.6812    -1.7144  C.ar    1  <O>11      -0.0428
   7 C7        7.1121    -2.6841    -1.0079  C.ar    1  <O>11      -0.0564
   8 C8        7.1086    -2.6694     0.3912  C.ar    1  <O>11      -0.0351
   9 C9        8.3153    -2.6562     1.0973  C.ar    1  <O>11       0.1055
  10 S1        8.3210    -2.6338     2.8571  S.O2    1  <O>11       0.0611
  11 O1        7.7916    -4.0996     3.4308  O.2     1  <O>11      -0.1528
  12 O2        7.3120    -1.4294     3.3988  O.2     1  <O>11      -0.1528
  13 N1        9.8559    -2.3514     3.3983  N.3     1  <O>11      -0.1738
  14 C10       9.8452    -2.3365     4.8881  C.3     1  <O>11       0.0208
  15 C11       9.0145    -1.1804     5.4285  C.3     1  <O>11      -0.0385
  16 C12       9.5111     0.1530     4.8820  C.3     1  <O>11      -0.0504
  17 C13       9.5549     0.1355     3.3586  C.3     1  <O>11      -0.0359
  18 C14      10.3366    -1.0622     2.8274  C.3     1  <O>11       0.0291
  19 C15      11.8042    -0.8844     3.1811  C.3     1  <O>11      -0.0478
  20 C16       9.5247    -2.6620     0.3925  C.ar    1  <O>11      -0.0351
  21 C17       9.5383    -2.6764    -1.0030  C.ar    1  <O>11      -0.0564
  22 C18       6.2698    -3.8614    -3.9276  C.ar    1  <O>11       0.2682
  23 O3        5.5373    -2.6772    -3.7187  O.2     1  <O>11      -0.2661
  24 N2        5.6373    -4.9835    -4.3615  N.ar    1  <O>11      -0.2428
  25 N3        6.3348    -6.1497    -4.5969  N.ar    1  <O>11      -0.1762
  26 H1        7.7682    -8.1927    -4.9793  H       1  <O>11       0.0293
  27 H2        8.9132    -7.7240    -3.6996  H       1  <O>11       0.0293
  28 H3        9.1973    -7.2102    -5.3799  H       1  <O>11       0.0293
  29 H4        7.8152    -1.7952    -3.5664  H       1  <O>11       0.0363
  30 H5        9.3589    -2.6811    -3.5608  H       1  <O>11       0.0363
  31 H6        9.4235    -3.2740     5.2502  H       1  <O>11       0.0444
  32 H7       10.8687    -2.2352     5.2480  H       1  <O>11       0.0444
  33 H8        7.9732    -1.3216     5.1327  H       1  <O>11       0.0278
  34 H9        9.0835    -1.1689     6.5157  H       1  <O>11       0.0278
  35 H10       8.8401     0.9451     5.2112  H       1  <O>11       0.0266
  36 H11      10.5146     0.3425     5.2667  H       1  <O>11       0.0266
  37 H12       8.5339     0.0884     2.9781  H       1  <O>11       0.0281
  38 H13      10.0310     1.0514     3.0096  H       1  <O>11       0.0281
  39 H14      10.2255    -1.1018     1.7437  H       1  <O>11       0.0477
  40 H15      12.3756    -1.7347     2.8060  H       1  <O>11       0.0245
  41 H16      11.9149    -0.8224     4.2647  H       1  <O>11       0.0245
  42 H17      12.1806     0.0336     2.7262  H       1  <O>11       0.0245
  43 H18       4.6389    -4.9447    -4.5088  H       1  <O>11       0.1921
  44 H19       9.3662    -5.1186    -3.7639  H       1  <O>11       0.0640
  45 H20       6.2183    -2.6971    -1.5235  H       1  <O>11       0.0621
  46 H21       6.2126    -2.6683     0.9035  H       1  <O>11       0.0637
  47 H22      10.4170    -2.6556     0.9111  H       1  <O>11       0.0637
  48 H23      10.4364    -2.6835    -1.5113  H       1  <O>11       0.0621
@<TRIPOS>BOND
     1     1     2    1
     2     2     3   ar
     3     3     4   ar
     4     4     5    1
     5     5     6    1
     6     6     7   ar
     7     7     8   ar
     8     8     9   ar
     9     9    10    1
    10    10    11    2
    11    10    12    2
    12    10    13    1
    13    13    14    1
    14    14    15    1
    15    15    16    1
    16    16    17    1
    17    17    18    1
    18    13    18    1
    19    18    19    1
    20     9    20   ar
    21    20    21   ar
    22     6    21   ar
    23     4    22   ar
    24    22    23    2
    25    22    24   ar
    26    24    25   ar
    27     2    25   ar
    28     1    26    1
    29     1    27    1
    30     1    28    1
    31     5    29    1
    32     5    30    1
    33    14    31    1
    34    14    32    1
    35    15    33    1
    36    15    34    1
    37    16    35    1
    38    16    36    1
    39    17    37    1
    40    17    38    1
    41    18    39    1
    42    19    40    1
    43    19    41    1
    44    19    42    1
    45    24    43    1
    46     3    44    1
    47     7    45    1
    48     8    46    1
    49    20    47    1
    50    21    48    1
@<TRIPOS>MOLECULE
mol3_1_14
 48 50 0 0 0
SMALL
USER_CHARGES
****
VDW energy = -21.57
@<TRIPOS>ATOM
   1 C1        8.4349    -7.4061    -4.6260  C.3     1  <O>11      -0.0207
   2 C2        7.6575    -6.1755    -4.3811  C.ar    1  <O>11       0.0588
   3 C3        8.3482    -5.0729    -3.9271  C.ar    1  <O>11      -0.0303
   4 C4        7.6391    -3.8908    -3.6925  C.ar    1  <O>11       0.0243
   5 C5        8.3300    -2.6830    -3.2000  C.3     1  <O>11       0.0028
   6 C6        8.7973    -1.8738    -4.3549  C.ar    1  <O>11      -0.0428
   7 C7        7.8755    -1.3745    -5.2904  C.ar    1  <O>11      -0.0564
   8 C8        8.3166    -0.6232    -6.3852  C.ar    1  <O>11      -0.0351
   9 C9        9.6794    -0.3597    -6.5540  C.ar    1  <O>11       0.1055
  10 S1       10.2442     0.5811    -7.9299  S.O2    1  <O>11       0.0611
  11 O1        9.7750     2.1638    -7.7481  O.2     1  <O>11      -0.1528
  12 O2        9.5889    -0.0341    -9.3279  O.2     1  <O>11      -0.1528
  13 N1       11.8920     0.5002    -8.0119  N.3     1  <O>11      -0.1738
  14 C10      12.3551     1.3016    -9.1796  C.3     1  <O>11       0.0208
  15 C11      11.8625     0.7095   -10.4931  C.3     1  <O>11      -0.0385
  16 C12      12.2957    -0.7450   -10.6346  C.3     1  <O>11      -0.0504
  17 C13      11.8530    -1.5655    -9.4289  C.3     1  <O>11      -0.0359
  18 C14      12.2979    -0.9292    -8.1156  C.3     1  <O>11       0.0291
  19 C15      13.8121    -1.0190    -8.0168  C.3     1  <O>11      -0.0478
  20 C16      10.5960    -0.8503    -5.6167  C.ar    1  <O>11      -0.0351
  21 C17      10.1655    -1.6008    -4.5216  C.ar    1  <O>11      -0.0564
  22 C18       6.2698    -3.8614    -3.9276  C.ar    1  <O>11       0.2682
  23 O3        5.5373    -2.6772    -3.7187  O.2     1  <O>11      -0.2661
  24 N2        5.6373    -4.9835    -4.3615  N.ar    1  <O>11      -0.2428
  25 N3        6.3348    -6.1497    -4.5969  N.ar    1  <O>11      -0.1762
  26 H1        7.7682    -8.1927    -4.9793  H       1  <O>11       0.0293
  27 H2        8.9132    -7.7240    -3.6996  H       1  <O>11       0.0293
  28 H3        9.1973    -7.2102    -5.3799  H       1  <O>11       0.0293
  29 H4        9.1849    -2.9763    -2.5912  H       1  <O>11       0.0363
  30 H5        7.6407    -2.0912    -2.5972  H       1  <O>11       0.0363
  31 H6       11.9751     2.3188    -9.0862  H       1  <O>11       0.0444
  32 H7       13.4446     1.3196    -9.1862  H       1  <O>11       0.0444
  33 H8       10.7725     0.7613   -10.5202  H       1  <O>11       0.0278
  34 H9       12.2729     1.2867   -11.3209  H       1  <O>11       0.0278
  35 H10      11.8492    -1.1638   -11.5354  H       1  <O>11       0.0266
  36 H11      13.3833    -0.7850   -10.7148  H       1  <O>11       0.0266
  37 H12      10.7649    -1.6402    -9.4349  H       1  <O>11       0.0281
  38 H13      12.2861    -2.5626    -9.5034  H       1  <O>11       0.0281
  39 H14      11.8460    -1.4772    -7.2887  H       1  <O>11       0.0477
  40 H15      14.1442    -0.5677    -7.0807  H       1  <O>11       0.0245
  41 H16      14.2659    -0.4897    -8.8559  H       1  <O>11       0.0245
  42 H17      14.1180    -2.0664    -8.0421  H       1  <O>11       0.0245
  43 H18       4.6389    -4.9447    -4.5088  H       1  <O>11       0.1921
  44 H19       9.3662    -5.1186    -3.7639  H       1  <O>11       0.0640
  45 H20       6.8681    -1.5630    -5.1694  H       1  <O>11       0.0621
  46 H21       7.6341    -0.2625    -7.0702  H       1  <O>11       0.0637
  47 H22      11.6022    -0.6546    -5.7369  H       1  <O>11       0.0637
  48 H23      10.8507    -1.9546    -3.8357  H       1  <O>11       0.0621
@<TRIPOS>BOND
     1     1     2    1
     2     2     3   ar
     3     3     4   ar
     4     4     5    1
     5     5     6    1
     6     6     7   ar
     7     7     8   ar
     8     8     9   ar
     9     9    10    1
    10    10    11    2
    11    10    12    2
    12    10    13    1
    13    13    14    1
    14    14    15    1
    15    15    16    1
    16    16    17    1
    17    17    18    1
    18    13    18    1
    19    18    19    1
    20     9    20   ar
    21    20    21   ar
    22     6    21   ar
    23     4    22   ar
    24    22    23    2
    25    22    24   ar
    26    24    25   ar
    27     2    25   ar
    28     1    26    1
    29     1    27    1
    30     1    28    1
    31     5    29    1
    32     5    30    1
    33    14    31    1
    34    14    32    1
    35    15    33    1
    36    15    34    1
    37    16    35    1
    38    16    36    1
    39    17    37    1
    40    17    38    1
    41    18    39    1
    42    19    40    1
    43    19    41    1
    44    19    42    1
    45    24    43    1
    46     3    44    1
    47     7    45    1
    48     8    46    1
    49    20    47    1
    50    21    48    1
@<TRIPOS>MOLECULE
mol3_1_15
 48 50 0 0 0
SMALL
USER_CHARGES
****
VDW energy = -20.58
@<TRIPOS>ATOM
   1 C1        8.4349    -7.4061    -4.6260  C.3     1  <O>11      -0.0207
   2 C2        7.6575    -6.1755    -4.3811  C.ar    1  <O>11       0.0588
   3 C3        8.3482    -5.0729    -3.9271  C.ar    1  <O>11      -0.0303
   4 C4        7.6391    -3.8908    -3.6925  C.ar    1  <O>11       0.0243
   5 C5        8.3300    -2.6830    -3.2000  C.3     1  <O>11       0.0028
   6 C6        9.5105    -3.0824    -2.3914  C.ar    1  <O>11      -0.0428
   7 C7       10.7626    -3.2597    -3.0039  C.ar    1  <O>11      -0.0564
   8 C8       11.8718    -3.6484    -2.2447  C.ar    1  <O>11      -0.0351
   9 C9       11.7430    -3.8590    -0.8684  C.ar    1  <O>11       0.1055
  10 S1       13.1315    -4.3518     0.0942  S.O2    1  <O>11       0.0611
  11 O1       14.2047    -3.0892     0.2040  O.2     1  <O>11      -0.1528
  12 O2       13.8750    -5.6497    -0.6302  O.2     1  <O>11      -0.1528
  13 N1       12.6270    -4.7802     1.6076  N.3     1  <O>11      -0.1738
  14 C10      13.8123    -5.1932     2.4105  C.3     1  <O>11       0.0208
  15 C11      14.4638    -6.4456     1.8397  C.3     1  <O>11      -0.0385
  16 C12      13.4594    -7.5877     1.7386  C.3     1  <O>11      -0.0504
  17 C13      12.2292    -7.1634     0.9451  C.3     1  <O>11      -0.0359
  18 C14      11.6220    -5.8730     1.4872  C.3     1  <O>11       0.0291
  19 C15      11.0296    -6.1499     2.8594  C.3     1  <O>11      -0.0478
  20 C16      10.4971    -3.6738    -0.2579  C.ar    1  <O>11      -0.0351
  21 C17       9.3850    -3.2864    -1.0069  C.ar    1  <O>11      -0.0564
  22 C18       6.2698    -3.8614    -3.9276  C.ar    1  <O>11       0.2682
  23 O3        5.5373    -2.6772    -3.7187  O.2     1  <O>11      -0.2661
  24 N2        5.6373    -4.9835    -4.3615  N.ar    1  <O>11      -0.2428
  25 N3        6.3348    -6.1497    -4.5969  N.ar    1  <O>11      -0.1762
  26 H1        7.7682    -8.1927    -4.9793  H       1  <O>11       0.0293
  27 H2        8.9132    -7.7240    -3.6996  H       1  <O>11       0.0293
  28 H3        9.1973    -7.2102    -5.3799  H       1  <O>11       0.0293
  29 H4        7.6467    -2.0997    -2.5833  H       1  <O>11       0.0363
  30 H5        8.6576    -2.0812    -4.0481  H       1  <O>11       0.0363
  31 H6       14.5421    -4.3838     2.4097  H       1  <O>11       0.0444
  32 H7       13.4939    -5.3948     3.4329  H       1  <O>11       0.0444
  33 H8       14.8517    -6.2226     0.8439  H       1  <O>11       0.0278
  34 H9       15.2848    -6.7482     2.4886  H       1  <O>11       0.0278
  35 H10      13.9310    -8.4340     1.2414  H       1  <O>11       0.0266
  36 H11      13.1530    -7.8807     2.7442  H       1  <O>11       0.0266
  37 H12      12.5181    -7.0085    -0.0951  H       1  <O>11       0.0281
  38 H13      11.4835    -7.9559     1.0012  H       1  <O>11       0.0281
  39 H14      10.8337    -5.5439     0.8100  H       1  <O>11       0.0477
  40 H15      10.5907    -5.2345     3.2590  H       1  <O>11       0.0245
  41 H16      11.8131    -6.5005     3.5327  H       1  <O>11       0.0245
  42 H17      10.2561    -6.9153     2.7753  H       1  <O>11       0.0245
  43 H18       4.6389    -4.9447    -4.5088  H       1  <O>11       0.1921
  44 H19       9.3662    -5.1186    -3.7639  H       1  <O>11       0.0640
  45 H20      10.8646    -3.1025    -4.0187  H       1  <O>11       0.0621
  46 H21      12.7876    -3.7799    -2.7019  H       1  <O>11       0.0637
  47 H22      10.3998    -3.8254     0.7583  H       1  <O>11       0.0637
  48 H23       8.4723    -3.1502    -0.5448  H       1  <O>11       0.0621
@<TRIPOS>BOND
     1     1     2    1
     2     2     3   ar
     3     3     4   ar
     4     4     5    1
     5     5     6    1
     6     6     7   ar
     7     7     8   ar
     8     8     9   ar
     9     9    10    1
    10    10    11    2
    11    10    12    2
    12    10    13    1
    13    13    14    1
    14    14    15    1
    15    15    16    1
    16    16    17    1
    17    17    18    1
    18    13    18    1
    19    18    19    1
    20     9    20   ar
    21    20    21   ar
    22     6    21   ar
    23     4    22   ar
    24    22    23    2
    25    22    24   ar
    26    24    25   ar
    27     2    25   ar
    28     1    26    1
    29     1    27    1
    30     1    28    1
    31     5    29    1
    32     5    30    1
    33    14    31    1
    34    14    32    1
    35    15    33    1
    36    15    34    1
    37    16    35    1
    38    16    36    1
    39    17    37    1
    40    17    38    1
    41    18    39    1
    42    19    40    1
    43    19    41    1
    44    19    42    1
    45    24    43    1
    46     3    44    1
    47     7    45    1
    48     8    46    1
    49    20    47    1
    50    21    48    1
@<TRIPOS>MOLECULE
mol3_1_16
 48 50 0 0 0
SMALL
USER_CHARGES
****
VDW energy = -20.53
@<TRIPOS>ATOM
   1 C1        8.4349    -7.4061    -4.6260  C.3     1  <O>11      -0.0207
   2 C2        7.6575    -6.1755    -4.3811  C.ar    1  <O>11       0.0588
   3 C3        8.3482    -5.0729    -3.9271  C.ar    1  <O>11      -0.0303
   4 C4        7.6391    -3.8908    -3.6925  C.ar    1  <O>11       0.0243
   5 C5        8.3300    -2.6830    -3.2000  C.3     1  <O>11       0.0028
   6 C6        9.5105    -3.0824    -2.3914  C.ar    1  <O>11      -0.0428
   7 C7        9.3857    -3.2864    -1.0069  C.ar    1  <O>11      -0.0564
   8 C8       10.5001    -3.6500    -0.2429  C.ar    1  <O>11      -0.0351
   9 C9       11.7468    -3.8175    -0.8535  C.ar    1  <O>11       0.1055
  10 S1       13.1551    -4.2710     0.0996  S.O2    1  <O>11       0.0611
  11 O1       12.9928    -5.8418     0.6137  O.2     1  <O>11      -0.1528
  12 O2       13.2786    -3.2664     1.4178  O.2     1  <O>11      -0.1528
  13 N1       14.5147    -4.1319    -0.8282  N.3     1  <O>11      -0.1738
  14 C10      15.6973    -4.5200    -0.0091  C.3     1  <O>11       0.0208
  15 C11      15.9100    -3.5599     1.1536  C.3     1  <O>11      -0.0385
  16 C12      16.0465    -2.1243     0.6602  C.3     1  <O>11      -0.0504
  17 C13      14.8553    -1.7294    -0.2049  C.3     1  <O>11      -0.0359
  18 C14      14.6132    -2.7324    -1.3287  C.3     1  <O>11       0.0291
  19 C15      15.7628    -2.6440    -2.3192  C.3     1  <O>11      -0.0478
  20 C16      11.8682    -3.6224    -2.2343  C.ar    1  <O>11      -0.0351
  21 C17      10.7624    -3.2594    -3.0044  C.ar    1  <O>11      -0.0564
  22 C18       6.2698    -3.8614    -3.9276  C.ar    1  <O>11       0.2682
  23 O3        5.5373    -2.6772    -3.7187  O.2     1  <O>11      -0.2661
  24 N2        5.6373    -4.9835    -4.3615  N.ar    1  <O>11      -0.2428
  25 N3        6.3348    -6.1497    -4.5969  N.ar    1  <O>11      -0.1762
  26 H1        7.7682    -8.1927    -4.9793  H       1  <O>11       0.0293
  27 H2        8.9132    -7.7240    -3.6996  H       1  <O>11       0.0293
  28 H3        9.1973    -7.2102    -5.3799  H       1  <O>11       0.0293
  29 H4        7.6467    -2.0997    -2.5833  H       1  <O>11       0.0363
  30 H5        8.6576    -2.0812    -4.0481  H       1  <O>11       0.0363
  31 H6       15.5427    -5.5240     0.3857  H       1  <O>11       0.0444
  32 H7       16.5842    -4.5107    -0.6422  H       1  <O>11       0.0444
  33 H8       15.0553    -3.6250     1.8296  H       1  <O>11       0.0278
  34 H9       16.8164    -3.8418     1.6880  H       1  <O>11       0.0278
  35 H10      16.1019    -1.4562     1.5185  H       1  <O>11       0.0266
  36 H11      16.9610    -2.0370     0.0711  H       1  <O>11       0.0266
  37 H12      13.9652    -1.6808     0.4236  H       1  <O>11       0.0281
  38 H13      15.0463    -0.7492    -0.6408  H       1  <O>11       0.0281
  39 H14      13.6795    -2.4789    -1.8310  H       1  <O>11       0.0477
  40 H15      15.6019    -3.3565    -3.1296  H       1  <O>11       0.0245
  41 H16      16.7010    -2.8759    -1.8132  H       1  <O>11       0.0245
  42 H17      15.8137    -1.6341    -2.7301  H       1  <O>11       0.0245
  43 H18       4.6389    -4.9447    -4.5088  H       1  <O>11       0.1921
  44 H19       9.3662    -5.1186    -3.7639  H       1  <O>11       0.0640
  45 H20       8.4675    -3.1674    -0.5511  H       1  <O>11       0.0621
  46 H21      10.4016    -3.7950     0.7741  H       1  <O>11       0.0637
  47 H22      12.7865    -3.7485    -2.6882  H       1  <O>11       0.0637
  48 H23      10.8639    -3.1212    -4.0221  H       1  <O>11       0.0621
@<TRIPOS>BOND
     1     1     2    1
     2     2     3   ar
     3     3     4   ar
     4     4     5    1
     5     5     6    1
     6     6     7   ar
     7     7     8   ar
     8     8     9   ar
     9     9    10    1
    10    10    11    2
    11    10    12    2
    12    10    13    1
    13    13    14    1
    14    14    15    1
    15    15    16    1
    16    16    17    1
    17    17    18    1
    18    13    18    1
    19    18    19    1
    20     9    20   ar
    21    20    21   ar
    22     6    21   ar
    23     4    22   ar
    24    22    23    2
    25    22    24   ar
    26    24    25   ar
    27     2    25   ar
    28     1    26    1
    29     1    27    1
    30     1    28    1
    31     5    29    1
    32     5    30    1
    33    14    31    1
    34    14    32    1
    35    15    33    1
    36    15    34    1
    37    16    35    1
    38    16    36    1
    39    17    37    1
    40    17    38    1
    41    18    39    1
    42    19    40    1
    43    19    41    1
    44    19    42    1
    45    24    43    1
    46     3    44    1
    47     7    45    1
    48     8    46    1
    49    20    47    1
    50    21    48    1
@<TRIPOS>MOLECULE
mol3_1_17
 48 50 0 0 0
SMALL
USER_CHARGES
****
VDW energy = -19.62
@<TRIPOS>ATOM
   1 C1        8.4349    -7.4061    -4.6260  C.3     1  <O>11      -0.0207
   2 C2        7.6575    -6.1755    -4.3811  C.ar    1  <O>11       0.0588
   3 C3        8.3482    -5.0729    -3.9271  C.ar    1  <O>11      -0.0303
   4 C4        7.6391    -3.8908    -3.6925  C.ar    1  <O>11       0.0243
   5 C5        8.3300    -2.6830    -3.2000  C.3     1  <O>11       0.0028
   6 C6        8.7973    -1.8738    -4.3549  C.ar    1  <O>11      -0.0428
   7 C7        9.4876    -0.6684    -4.1433  C.ar    1  <O>11      -0.0564
   8 C8        9.9166     0.1004    -5.2308  C.ar    1  <O>11      -0.0351
   9 C9        9.6649    -0.3281    -6.5377  C.ar    1  <O>11       0.1055
  10 S1       10.1971     0.6340    -7.9119  S.O2    1  <O>11       0.0611
  11 O1       11.8535     0.5773    -8.0187  O.2     1  <O>11      -0.1528
  12 O2        9.7085     2.2093    -7.7075  O.2     1  <O>11      -0.1528
  13 N1        9.5340     0.0270    -9.2977  N.3     1  <O>11      -0.1738
  14 C10       9.9941     0.8500   -10.4514  C.3     1  <O>11       0.0208
  15 C11       9.4786     2.2797   -10.3575  C.3     1  <O>11      -0.0385
  16 C12       7.9584     2.3077   -10.2506  C.3     1  <O>11      -0.0504
  17 C13       7.4773     1.4428    -9.0916  C.3     1  <O>11      -0.0359
  18 C14       8.0506     0.0306    -9.1617  C.3     1  <O>11       0.0291
  19 C15       7.4451    -0.6843   -10.3586  C.3     1  <O>11      -0.0478
  20 C16       8.9846    -1.5334    -6.7474  C.ar    1  <O>11      -0.0351
  21 C17       8.5527    -2.3069    -5.6690  C.ar    1  <O>11      -0.0564
  22 C18       6.2698    -3.8614    -3.9276  C.ar    1  <O>11       0.2682
  23 O3        5.5373    -2.6772    -3.7187  O.2     1  <O>11      -0.2661
  24 N2        5.6373    -4.9835    -4.3615  N.ar    1  <O>11      -0.2428
  25 N3        6.3348    -6.1497    -4.5969  N.ar    1  <O>11      -0.1762
  26 H1        7.7682    -8.1927    -4.9793  H       1  <O>11       0.0293
  27 H2        8.9132    -7.7240    -3.6996  H       1  <O>11       0.0293
  28 H3        9.1973    -7.2102    -5.3799  H       1  <O>11       0.0293
  29 H4        9.1849    -2.9763    -2.5912  H       1  <O>11       0.0363
  30 H5        7.6407    -2.0912    -2.5972  H       1  <O>11       0.0363
  31 H6       11.0837     0.8675   -10.4637  H       1  <O>11       0.0444
  32 H7        9.6271     0.4016   -11.3742  H       1  <O>11       0.0444
  33 H8        9.9072     2.7552    -9.4732  H       1  <O>11       0.0278
  34 H9        9.7844     2.8285   -11.2475  H       1  <O>11       0.0278
  35 H10       7.6313     3.3341   -10.0904  H       1  <O>11       0.0266
  36 H11       7.5304     1.9300   -11.1807  H       1  <O>11       0.0266
  37 H12       7.7898     1.9052    -8.1545  H       1  <O>11       0.0281
  38 H13       6.3897     1.3848    -9.1234  H       1  <O>11       0.0281
  39 H14       7.7865    -0.5017    -8.2478  H       1  <O>11       0.0477
  40 H15       7.8464    -1.6969   -10.4203  H       1  <O>11       0.0245
  41 H16       7.6899    -0.1407   -11.2723  H       1  <O>11       0.0245
  42 H17       6.3605    -0.7311   -10.2454  H       1  <O>11       0.0245
  43 H18       4.6389    -4.9447    -4.5088  H       1  <O>11       0.1921
  44 H19       9.3662    -5.1186    -3.7639  H       1  <O>11       0.0640
  45 H20       9.6792    -0.3486    -3.1810  H       1  <O>11       0.0621
  46 H21      10.4202     0.9864    -5.0678  H       1  <O>11       0.0637
  47 H22       8.8003    -1.8538    -7.7109  H       1  <O>11       0.0637
  48 H23       8.0547    -3.1951    -5.8363  H       1  <O>11       0.0621
@<TRIPOS>BOND
     1     1     2    1
     2     2     3   ar
     3     3     4   ar
     4     4     5    1
     5     5     6    1
     6     6     7   ar
     7     7     8   ar
     8     8     9   ar
     9     9    10    1
    10    10    11    2
    11    10    12    2
    12    10    13    1
    13    13    14    1
    14    14    15    1
    15    15    16    1
    16    16    17    1
    17    17    18    1
    18    13    18    1
    19    18    19    1
    20     9    20   ar
    21    20    21   ar
    22     6    21   ar
    23     4    22   ar
    24    22    23    2
    25    22    24   ar
    26    24    25   ar
    27     2    25   ar
    28     1    26    1
    29     1    27    1
    30     1    28    1
    31     5    29    1
    32     5    30    1
    33    14    31    1
    34    14    32    1
    35    15    33    1
    36    15    34    1
    37    16    35    1
    38    16    36    1
    39    17    37    1
    40    17    38    1
    41    18    39    1
    42    19    40    1
    43    19    41    1
    44    19    42    1
    45    24    43    1
    46     3    44    1
    47     7    45    1
    48     8    46    1
    49    20    47    1
    50    21    48    1
@<TRIPOS>MOLECULE
mol3_1_18
 48 50 0 0 0
SMALL
USER_CHARGES
****
VDW energy = -17.69
@<TRIPOS>ATOM
   1 C1        8.4349    -7.4061    -4.6260  C.3     1  <O>11      -0.0207
   2 C2        7.6575    -6.1755    -4.3811  C.ar    1  <O>11       0.0588
   3 C3        8.3482    -5.0729    -3.9271  C.ar    1  <O>11      -0.0303
   4 C4        7.6391    -3.8908    -3.6925  C.ar    1  <O>11       0.0243
   5 C5        8.3300    -2.6830    -3.2000  C.3     1  <O>11       0.0028
   6 C6        8.1583    -1.5796    -4.1798  C.ar    1  <O>11      -0.0428
   7 C7        8.7281    -0.3188    -3.9352  C.ar    1  <O>11      -0.0564
   8 C8        8.5557     0.7243    -4.8517  C.ar    1  <O>11      -0.0351
   9 C9        7.8178     0.5179    -6.0213  C.ar    1  <O>11       0.1055
  10 S1        7.5922     1.8249    -7.1781  S.O2    1  <O>11       0.0611
  11 O1        7.4462     1.1918    -8.7066  O.2     1  <O>11      -0.1528
  12 O2        8.9030     2.8451    -7.1237  O.2     1  <O>11      -0.1528
  13 N1        6.2230     2.6665    -6.7966  N.3     1  <O>11      -0.1738
  14 C10       5.0582     1.7388    -6.8492  C.3     1  <O>11       0.0208
  15 C11       4.8236     1.2174    -8.2605  C.3     1  <O>11      -0.0385
  16 C12       4.6397     2.3663    -9.2451  C.3     1  <O>11      -0.0504
  17 C13       5.8125     3.3372    -9.1753  C.3     1  <O>11      -0.0359
  18 C14       6.0781     3.8040    -7.7472  C.3     1  <O>11       0.0291
  19 C15       4.9200     4.6785    -7.2951  C.3     1  <O>11      -0.0478
  20 C16       7.2578    -0.7410    -6.2681  C.ar    1  <O>11      -0.0351
  21 C17       7.4242    -1.7874    -5.3597  C.ar    1  <O>11      -0.0564
  22 C18       6.2698    -3.8614    -3.9276  C.ar    1  <O>11       0.2682
  23 O3        5.5373    -2.6772    -3.7187  O.2     1  <O>11      -0.2661
  24 N2        5.6373    -4.9835    -4.3615  N.ar    1  <O>11      -0.2428
  25 N3        6.3348    -6.1497    -4.5969  N.ar    1  <O>11      -0.1762
  26 H1        7.7682    -8.1927    -4.9793  H       1  <O>11       0.0293
  27 H2        8.9132    -7.7240    -3.6996  H       1  <O>11       0.0293
  28 H3        9.1973    -7.2102    -5.3799  H       1  <O>11       0.0293
  29 H4        9.3911    -2.8970    -3.0749  H       1  <O>11       0.0363
  30 H5        7.9037    -2.3868    -2.2412  H       1  <O>11       0.0363
  31 H6        5.2463     0.8937    -6.1872  H       1  <O>11       0.0444
  32 H7        4.1674     2.2706    -6.5159  H       1  <O>11       0.0444
  33 H8        5.6842     0.6196    -8.5666  H       1  <O>11       0.0278
  34 H9        3.9297     0.5948    -8.2669  H       1  <O>11       0.0278
  35 H10       4.5692     1.9629   -10.2542  H       1  <O>11       0.0266
  36 H11       3.7191     2.8990    -9.0007  H       1  <O>11       0.0266
  37 H12       6.7046     2.8387    -9.5561  H       1  <O>11       0.0281
  38 H13       5.5885     4.2050    -9.7950  H       1  <O>11       0.0281
  39 H14       7.0003     4.3852    -7.7332  H       1  <O>11       0.0477
  40 H15       5.0975     5.0203    -6.2744  H       1  <O>11       0.0245
  41 H16       3.9926     4.1050    -7.3295  H       1  <O>11       0.0245
  42 H17       4.8353     5.5426    -7.9565  H       1  <O>11       0.0245
  43 H18       4.6389    -4.9447    -4.5088  H       1  <O>11       0.1921
  44 H19       9.3662    -5.1186    -3.7639  H       1  <O>11       0.0640
  45 H20       9.2766    -0.1614    -3.0753  H       1  <O>11       0.0621
  46 H21       8.9744     1.6487    -4.6638  H       1  <O>11       0.0637
  47 H22       6.7153    -0.8972    -7.1320  H       1  <O>11       0.0637
  48 H23       7.0088    -2.7119    -5.5542  H       1  <O>11       0.0621
@<TRIPOS>BOND
     1     1     2    1
     2     2     3   ar
     3     3     4   ar
     4     4     5    1
     5     5     6    1
     6     6     7   ar
     7     7     8   ar
     8     8     9   ar
     9     9    10    1
    10    10    11    2
    11    10    12    2
    12    10    13    1
    13    13    14    1
    14    14    15    1
    15    15    16    1
    16    16    17    1
    17    17    18    1
    18    13    18    1
    19    18    19    1
    20     9    20   ar
    21    20    21   ar
    22     6    21   ar
    23     4    22   ar
    24    22    23    2
    25    22    24   ar
    26    24    25   ar
    27     2    25   ar
    28     1    26    1
    29     1    27    1
    30     1    28    1
    31     5    29    1
    32     5    30    1
    33    14    31    1
    34    14    32    1
    35    15    33    1
    36    15    34    1
    37    16    35    1
    38    16    36    1
    39    17    37    1
    40    17    38    1
    41    18    39    1
    42    19    40    1
    43    19    41    1
    44    19    42    1
    45    24    43    1
    46     3    44    1
    47     7    45    1
    48     8    46    1
    49    20    47    1
    50    21    48    1
@<TRIPOS>MOLECULE
mol3_1_19
 48 50 0 0 0
SMALL
USER_CHARGES
****
VDW energy = -16.84
@<TRIPOS>ATOM
   1 C1        8.4349    -7.4061    -4.6260  C.3     1  <O>11      -0.0207
   2 C2        7.6575    -6.1755    -4.3811  C.ar    1  <O>11       0.0588
   3 C3        8.3482    -5.0729    -3.9271  C.ar    1  <O>11      -0.0303
   4 C4        7.6391    -3.8908    -3.6925  C.ar    1  <O>11       0.0243
   5 C5        8.3300    -2.6830    -3.2000  C.3     1  <O>11       0.0028
   6 C6        7.7506    -2.2789    -1.8931  C.ar    1  <O>11      -0.0428
   7 C7        8.2834    -2.7832    -0.6948  C.ar    1  <O>11      -0.0564
   8 C8        7.7298    -2.4128     0.5357  C.ar    1  <O>11      -0.0351
   9 C9        6.6436    -1.5334     0.5818  C.ar    1  <O>11       0.1055
  10 S1        5.9379    -1.0648     2.1245  S.O2    1  <O>11       0.0611
  11 O1        6.9993    -0.0845     2.9434  O.2     1  <O>11      -0.1528
  12 O2        5.6295    -2.4249     3.0284  O.2     1  <O>11      -0.1528
  13 N1        4.5267    -0.2487     1.8581  N.3     1  <O>11      -0.1738
  14 C10       3.9422     0.1423     3.1717  C.3     1  <O>11       0.0208
  15 C11       3.5466    -1.0782     3.9918  C.3     1  <O>11      -0.0385
  16 C12       2.5807    -1.9679     3.2181  C.3     1  <O>11      -0.0504
  17 C13       3.1579    -2.3471     1.8593  C.3     1  <O>11      -0.0359
  18 C14       3.6091    -1.1202     1.0725  C.3     1  <O>11       0.0291
  19 C15       2.3825    -0.3139     0.6779  C.3     1  <O>11      -0.0478
  20 C16       6.1191    -1.0249    -0.6122  C.ar    1  <O>11      -0.0351
  21 C17       6.6645    -1.3888    -1.8442  C.ar    1  <O>11      -0.0564
  22 C18       6.2698    -3.8614    -3.9276  C.ar    1  <O>11       0.2682
  23 O3        5.5373    -2.6772    -3.7187  O.2     1  <O>11      -0.2661
  24 N2        5.6373    -4.9835    -4.3615  N.ar    1  <O>11      -0.2428
  25 N3        6.3348    -6.1497    -4.5969  N.ar    1  <O>11      -0.1762
  26 H1        7.7682    -8.1927    -4.9793  H       1  <O>11       0.0293
  27 H2        8.9132    -7.7240    -3.6996  H       1  <O>11       0.0293
  28 H3        9.1973    -7.2102    -5.3799  H       1  <O>11       0.0293
  29 H4        8.2050    -1.8742    -3.9194  H       1  <O>11       0.0363
  30 H5        9.3917    -2.8977    -3.0757  H       1  <O>11       0.0363
  31 H6        4.6782     0.7200     3.7307  H       1  <O>11       0.0444
  32 H7        3.0570     0.7532     2.9970  H       1  <O>11       0.0444
  33 H8        4.4440    -1.6510     4.2329  H       1  <O>11       0.0278
  34 H9        3.0686    -0.7490     4.9137  H       1  <O>11       0.0278
  35 H10       2.3933    -2.8742     3.7922  H       1  <O>11       0.0266
  36 H11       1.6429    -1.4296     3.0708  H       1  <O>11       0.0266
  37 H12       4.0151    -3.0039     2.0124  H       1  <O>11       0.0281
  38 H13       2.3945    -2.8732     1.2869  H       1  <O>11       0.0281
  39 H14       4.1316    -1.4510     0.1748  H       1  <O>11       0.0477
  40 H15       2.6910     0.5671     0.1132  H       1  <O>11       0.0245
  41 H16       1.8461    -0.0006     1.5747  H       1  <O>11       0.0245
  42 H17       1.7253    -0.9281     0.0597  H       1  <O>11       0.0245
  43 H18       4.6389    -4.9447    -4.5088  H       1  <O>11       0.1921
  44 H19       9.3662    -5.1186    -3.7639  H       1  <O>11       0.0640
  45 H20       9.0871    -3.4299    -0.7223  H       1  <O>11       0.0621
  46 H21       8.1242    -2.7897     1.4117  H       1  <O>11       0.0637
  47 H22       5.3195    -0.3732    -0.5810  H       1  <O>11       0.0637
  48 H23       6.2709    -1.0050    -2.7176  H       1  <O>11       0.0621
@<TRIPOS>BOND
     1     1     2    1
     2     2     3   ar
     3     3     4   ar
     4     4     5    1
     5     5     6    1
     6     6     7   ar
     7     7     8   ar
     8     8     9   ar
     9     9    10    1
    10    10    11    2
    11    10    12    2
    12    10    13    1
    13    13    14    1
    14    14    15    1
    15    15    16    1
    16    16    17    1
    17    17    18    1
    18    13    18    1
    19    18    19    1
    20     9    20   ar
    21    20    21   ar
    22     6    21   ar
    23     4    22   ar
    24    22    23    2
    25    22    24   ar
    26    24    25   ar
    27     2    25   ar
    28     1    26    1
    29     1    27    1
    30     1    28    1
    31     5    29    1
    32     5    30    1
    33    14    31    1
    34    14    32    1
    35    15    33    1
    36    15    34    1
    37    16    35    1
    38    16    36    1
    39    17    37    1
    40    17    38    1
    41    18    39    1
    42    19    40    1
    43    19    41    1
    44    19    42    1
    45    24    43    1
    46     3    44    1
    47     7    45    1
    48     8    46    1
    49    20    47    1
    50    21    48    1
@<TRIPOS>MOLECULE
mol3_1_20
 48 50 0 0 0
SMALL
USER_CHARGES
****
VDW energy = -16.78
@<TRIPOS>ATOM
   1 C1        8.4349    -7.4061    -4.6260  C.3     1  <O>11      -0.0207
   2 C2        7.6575    -6.1755    -4.3811  C.ar    1  <O>11       0.0588
   3 C3        8.3482    -5.0729    -3.9271  C.ar    1  <O>11      -0.0303
   4 C4        7.6391    -3.8908    -3.6925  C.ar    1  <O>11       0.0243
   5 C5        8.3300    -2.6830    -3.2000  C.3     1  <O>11       0.0028
   6 C6        8.1583    -1.5796    -4.1798  C.ar    1  <O>11      -0.0428
   7 C7        8.7281    -0.3188    -3.9352  C.ar    1  <O>11      -0.0564
   8 C8        8.5557     0.7243    -4.8517  C.ar    1  <O>11      -0.0351
   9 C9        7.8178     0.5179    -6.0213  C.ar    1  <O>11       0.1055
  10 S1        7.5922     1.8249    -7.1781  S.O2    1  <O>11       0.0611
  11 O1        7.4462     1.1918    -8.7066  O.2     1  <O>11      -0.1528
  12 O2        8.9030     2.8451    -7.1237  O.2     1  <O>11      -0.1528
  13 N1        6.2230     2.6665    -6.7966  N.3     1  <O>11      -0.1738
  14 C10       6.0453     3.7684    -7.7835  C.3     1  <O>11       0.0208
  15 C11       7.1749     4.7856    -7.6933  C.3     1  <O>11      -0.0385
  16 C12       7.2966     5.3448    -6.2806  C.3     1  <O>11      -0.0504
  17 C13       7.4472     4.2220    -5.2609  C.3     1  <O>11      -0.0359
  18 C14       6.3456     3.1760    -5.4022  C.3     1  <O>11       0.0291
  19 C15       5.0227     3.7998    -4.9883  C.3     1  <O>11      -0.0478
  20 C16       7.2578    -0.7410    -6.2681  C.ar    1  <O>11      -0.0351
  21 C17       7.4242    -1.7874    -5.3597  C.ar    1  <O>11      -0.0564
  22 C18       6.2698    -3.8614    -3.9276  C.ar    1  <O>11       0.2682
  23 O3        5.5373    -2.6772    -3.7187  O.2     1  <O>11      -0.2661
  24 N2        5.6373    -4.9835    -4.3615  N.ar    1  <O>11      -0.2428
  25 N3        6.3348    -6.1497    -4.5969  N.ar    1  <O>11      -0.1762
  26 H1        7.7682    -8.1927    -4.9793  H       1  <O>11       0.0293
  27 H2        8.9132    -7.7240    -3.6996  H       1  <O>11       0.0293
  28 H3        9.1973    -7.2102    -5.3799  H       1  <O>11       0.0293
  29 H4        9.3911    -2.8970    -3.0749  H       1  <O>11       0.0363
  30 H5        7.9037    -2.3868    -2.2412  H       1  <O>11       0.0363
  31 H6        6.0292     3.3468    -8.7884  H       1  <O>11       0.0444
  32 H7        5.0994     4.2717    -7.5850  H       1  <O>11       0.0444
  33 H8        8.1136     4.3002    -7.9669  H       1  <O>11       0.0278
  34 H9        6.9752     5.6031    -8.3852  H       1  <O>11       0.0278
  35 H10       8.1691     5.9944    -6.2284  H       1  <O>11       0.0266
  36 H11       6.3993     5.9209    -6.0486  H       1  <O>11       0.0266
  37 H12       8.4141     3.7397    -5.4095  H       1  <O>11       0.0281
  38 H13       7.4037     4.6482    -4.2590  H       1  <O>11       0.0281
  39 H14       6.5728     2.3355    -4.7463  H       1  <O>11       0.0477
  40 H15       4.2253     3.0615    -5.0839  H       1  <O>11       0.0245
  41 H16       4.8044     4.6548    -5.6297  H       1  <O>11       0.0245
  42 H17       5.0851     4.1328    -3.9507  H       1  <O>11       0.0245
  43 H18       4.6389    -4.9447    -4.5088  H       1  <O>11       0.1921
  44 H19       9.3662    -5.1186    -3.7639  H       1  <O>11       0.0640
  45 H20       9.2766    -0.1614    -3.0753  H       1  <O>11       0.0621
  46 H21       8.9744     1.6487    -4.6638  H       1  <O>11       0.0637
  47 H22       6.7153    -0.8972    -7.1320  H       1  <O>11       0.0637
  48 H23       7.0088    -2.7119    -5.5542  H       1  <O>11       0.0621
@<TRIPOS>BOND
     1     1     2    1
     2     2     3   ar
     3     3     4   ar
     4     4     5    1
     5     5     6    1
     6     6     7   ar
     7     7     8   ar
     8     8     9   ar
     9     9    10    1
    10    10    11    2
    11    10    12    2
    12    10    13    1
    13    13    14    1
    14    14    15    1
    15    15    16    1
    16    16    17    1
    17    17    18    1
    18    13    18    1
    19    18    19    1
    20     9    20   ar
    21    20    21   ar
    22     6    21   ar
    23     4    22   ar
    24    22    23    2
    25    22    24   ar
    26    24    25   ar
    27     2    25   ar
    28     1    26    1
    29     1    27    1
    30     1    28    1
    31     5    29    1
    32     5    30    1
    33    14    31    1
    34    14    32    1
    35    15    33    1
    36    15    34    1
    37    16    35    1
    38    16    36    1
    39    17    37    1
    40    17    38    1
    41    18    39    1
    42    19    40    1
    43    19    41    1
    44    19    42    1
    45    24    43    1
    46     3    44    1
    47     7    45    1
    48     8    46    1
    49    20    47    1
    50    21    48    1
@<TRIPOS>MOLECULE
mol3_1_21
 48 50 0 0 0
SMALL
USER_CHARGES
****
VDW energy = -16.34
@<TRIPOS>ATOM
   1 C1        8.4349    -7.4061    -4.6260  C.3     1  <O>11      -0.0207
   2 C2        7.6575    -6.1755    -4.3811  C.ar    1  <O>11       0.0588
   3 C3        8.3482    -5.0729    -3.9271  C.ar    1  <O>11      -0.0303
   4 C4        7.6391    -3.8908    -3.6925  C.ar    1  <O>11       0.0243
   5 C5        8.3300    -2.6830    -3.2000  C.3     1  <O>11       0.0028
   6 C6        8.1583    -1.5796    -4.1798  C.ar    1  <O>11      -0.0428
   7 C7        8.7281    -0.3188    -3.9352  C.ar    1  <O>11      -0.0564
   8 C8        8.5557     0.7243    -4.8517  C.ar    1  <O>11      -0.0351
   9 C9        7.8178     0.5179    -6.0213  C.ar    1  <O>11       0.1055
  10 S1        7.5922     1.8249    -7.1781  S.O2    1  <O>11       0.0611
  11 O1        7.5963     3.2797    -6.3771  O.2     1  <O>11      -0.1528
  12 O2        6.1393     1.6272    -7.9606  O.2     1  <O>11      -0.1528
  13 N1        8.8204     1.7997    -8.2824  N.3     1  <O>11      -0.1738
  14 C10      10.1147     1.9773    -7.5658  C.3     1  <O>11       0.0208
  15 C11      10.2030     3.3461    -6.9046  C.3     1  <O>11      -0.0385
  16 C12       9.9962     4.4607    -7.9235  C.3     1  <O>11      -0.0504
  17 C13       8.6888     4.2693    -8.6833  C.3     1  <O>11      -0.0359
  18 C14       8.5837     2.8726    -9.2882  C.3     1  <O>11       0.0291
  19 C15       9.6135     2.7417   -10.3986  C.3     1  <O>11      -0.0478
  20 C16       7.2578    -0.7410    -6.2681  C.ar    1  <O>11      -0.0351
  21 C17       7.4242    -1.7874    -5.3597  C.ar    1  <O>11      -0.0564
  22 C18       6.2698    -3.8614    -3.9276  C.ar    1  <O>11       0.2682
  23 O3        5.5373    -2.6772    -3.7187  O.2     1  <O>11      -0.2661
  24 N2        5.6373    -4.9835    -4.3615  N.ar    1  <O>11      -0.2428
  25 N3        6.3348    -6.1497    -4.5969  N.ar    1  <O>11      -0.1762
  26 H1        7.7682    -8.1927    -4.9793  H       1  <O>11       0.0293
  27 H2        8.9132    -7.7240    -3.6996  H       1  <O>11       0.0293
  28 H3        9.1973    -7.2102    -5.3799  H       1  <O>11       0.0293
  29 H4        9.3911    -2.8970    -3.0749  H       1  <O>11       0.0363
  30 H5        7.9037    -2.3868    -2.2412  H       1  <O>11       0.0363
  31 H6       10.2053     1.2082    -6.7990  H       1  <O>11       0.0444
  32 H7       10.9311     1.8763    -8.2804  H       1  <O>11       0.0444
  33 H8        9.4330     3.4196    -6.1344  H       1  <O>11       0.0278
  34 H9       11.1850     3.4585    -6.4465  H       1  <O>11       0.0278
  35 H10       9.9711     5.4178    -7.4045  H       1  <O>11       0.0266
  36 H11      10.8263     4.4523    -8.6319  H       1  <O>11       0.0266
  37 H12       7.8567     4.4198    -7.9944  H       1  <O>11       0.0281
  38 H13       8.6358     5.0063    -9.4840  H       1  <O>11       0.0281
  39 H14       7.5836     2.7432    -9.7021  H       1  <O>11       0.0477
  40 H15       9.5487     1.7466   -10.8410  H       1  <O>11       0.0245
  41 H16      10.6137     2.8928    -9.9902  H       1  <O>11       0.0245
  42 H17       9.4194     3.4925   -11.1667  H       1  <O>11       0.0245
  43 H18       4.6389    -4.9447    -4.5088  H       1  <O>11       0.1921
  44 H19       9.3662    -5.1186    -3.7639  H       1  <O>11       0.0640
  45 H20       9.2766    -0.1614    -3.0753  H       1  <O>11       0.0621
  46 H21       8.9744     1.6487    -4.6638  H       1  <O>11       0.0637
  47 H22       6.7153    -0.8972    -7.1320  H       1  <O>11       0.0637
  48 H23       7.0088    -2.7119    -5.5542  H       1  <O>11       0.0621
@<TRIPOS>BOND
     1     1     2    1
     2     2     3   ar
     3     3     4   ar
     4     4     5    1
     5     5     6    1
     6     6     7   ar
     7     7     8   ar
     8     8     9   ar
     9     9    10    1
    10    10    11    2
    11    10    12    2
    12    10    13    1
    13    13    14    1
    14    14    15    1
    15    15    16    1
    16    16    17    1
    17    17    18    1
    18    13    18    1
    19    18    19    1
    20     9    20   ar
    21    20    21   ar
    22     6    21   ar
    23     4    22   ar
    24    22    23    2
    25    22    24   ar
    26    24    25   ar
    27     2    25   ar
    28     1    26    1
    29     1    27    1
    30     1    28    1
    31     5    29    1
    32     5    30    1
    33    14    31    1
    34    14    32    1
    35    15    33    1
    36    15    34    1
    37    16    35    1
    38    16    36    1
    39    17    37    1
    40    17    38    1
    41    18    39    1
    42    19    40    1
    43    19    41    1
    44    19    42    1
    45    24    43    1
    46     3    44    1
    47     7    45    1
    48     8    46    1
    49    20    47    1
    50    21    48    1
@<TRIPOS>MOLECULE
mol3_1_22
 48 50 0 0 0
SMALL
USER_CHARGES
****
VDW energy = -15.61
@<TRIPOS>ATOM
   1 C1        8.4349    -7.4061    -4.6260  C.3     1  <O>11      -0.0207
   2 C2        7.6575    -6.1755    -4.3811  C.ar    1  <O>11       0.0588
   3 C3        8.3482    -5.0729    -3.9271  C.ar    1  <O>11      -0.0303
   4 C4        7.6391    -3.8908    -3.6925  C.ar    1  <O>11       0.0243
   5 C5        8.3300    -2.6830    -3.2000  C.3     1  <O>11       0.0028
   6 C6        8.1583    -1.5796    -4.1798  C.ar    1  <O>11      -0.0428
   7 C7        9.0895    -1.4004    -5.2166  C.ar    1  <O>11      -0.0564
   8 C8        8.9350    -0.3534    -6.1319  C.ar    1  <O>11      -0.0351
   9 C9        7.8489     0.5205    -6.0238  C.ar    1  <O>11       0.1055
  10 S1        7.6482     1.8426    -7.1680  S.O2    1  <O>11       0.0611
  11 O1        7.2396     1.2292    -8.6562  O.2     1  <O>11      -0.1528
  12 O2        9.0725     2.6904    -7.2900  O.2     1  <O>11      -0.1528
  13 N1        6.4510     2.8503    -6.6391  N.3     1  <O>11      -0.1738
  14 C10       6.2919     3.9627    -7.6175  C.3     1  <O>11       0.0208
  15 C11       7.5413     4.8307    -7.6834  C.3     1  <O>11      -0.0385
  16 C12       7.9033     5.3746    -6.3064  C.3     1  <O>11      -0.0504
  17 C13       8.0373     4.2451    -5.2918  C.3     1  <O>11      -0.0359
  18 C14       6.8055     3.3448    -5.2795  C.3     1  <O>11       0.0291
  19 C15       5.6308     4.1308    -4.7201  C.3     1  <O>11      -0.0478
  20 C16       6.9171     0.3358    -4.9957  C.ar    1  <O>11      -0.0351
  21 C17       7.0630    -0.7055    -4.0779  C.ar    1  <O>11      -0.0564
  22 C18       6.2698    -3.8614    -3.9276  C.ar    1  <O>11       0.2682
  23 O3        5.5373    -2.6772    -3.7187  O.2     1  <O>11      -0.2661
  24 N2        5.6373    -4.9835    -4.3615  N.ar    1  <O>11      -0.2428
  25 N3        6.3348    -6.1497    -4.5969  N.ar    1  <O>11      -0.1762
  26 H1        7.7682    -8.1927    -4.9793  H       1  <O>11       0.0293
  27 H2        8.9132    -7.7240    -3.6996  H       1  <O>11       0.0293
  28 H3        9.1973    -7.2102    -5.3799  H       1  <O>11       0.0293
  29 H4        9.3911    -2.8970    -3.0749  H       1  <O>11       0.0363
  30 H5        7.9037    -2.3868    -2.2412  H       1  <O>11       0.0363
  31 H6        6.1007     3.5433    -8.6051  H       1  <O>11       0.0444
  32 H7        5.4471     4.5811    -7.3153  H       1  <O>11       0.0444
  33 H8        8.3720     4.2306    -8.0595  H       1  <O>11       0.0278
  34 H9        7.3612     5.6645    -8.3609  H       1  <O>11       0.0278
  35 H10       8.8494     5.9100    -6.3721  H       1  <O>11       0.0266
  36 H11       7.1195     6.0593    -5.9781  H       1  <O>11       0.0266
  37 H12       8.9113     3.6449    -5.5474  H       1  <O>11       0.0281
  38 H13       8.1699     4.6765    -4.3001  H       1  <O>11       0.0281
  39 H14       7.0053     2.4846    -4.6405  H       1  <O>11       0.0477
  40 H15       4.7424     3.4979    -4.7049  H       1  <O>11       0.0245
  41 H16       5.4433     5.0044    -5.3460  H       1  <O>11       0.0245
  42 H17       5.8604     4.4566    -3.7040  H       1  <O>11       0.0245
  43 H18       4.6389    -4.9447    -4.5088  H       1  <O>11       0.1921
  44 H19       9.3662    -5.1186    -3.7639  H       1  <O>11       0.0640
  45 H20       9.8914    -2.0442    -5.3034  H       1  <O>11       0.0621
  46 H21       9.6248    -0.2259    -6.8889  H       1  <O>11       0.0637
  47 H22       6.1127     0.9773    -4.9154  H       1  <O>11       0.0637
  48 H23       6.3678    -0.8331    -3.3260  H       1  <O>11       0.0621
@<TRIPOS>BOND
     1     1     2    1
     2     2     3   ar
     3     3     4   ar
     4     4     5    1
     5     5     6    1
     6     6     7   ar
     7     7     8   ar
     8     8     9   ar
     9     9    10    1
    10    10    11    2
    11    10    12    2
    12    10    13    1
    13    13    14    1
    14    14    15    1
    15    15    16    1
    16    16    17    1
    17    17    18    1
    18    13    18    1
    19    18    19    1
    20     9    20   ar
    21    20    21   ar
    22     6    21   ar
    23     4    22   ar
    24    22    23    2
    25    22    24   ar
    26    24    25   ar
    27     2    25   ar
    28     1    26    1
    29     1    27    1
    30     1    28    1
    31     5    29    1
    32     5    30    1
    33    14    31    1
    34    14    32    1
    35    15    33    1
    36    15    34    1
    37    16    35    1
    38    16    36    1
    39    17    37    1
    40    17    38    1
    41    18    39    1
    42    19    40    1
    43    19    41    1
    44    19    42    1
    45    24    43    1
    46     3    44    1
    47     7    45    1
    48     8    46    1
    49    20    47    1
    50    21    48    1
@<TRIPOS>MOLECULE
mol3_1_23
 48 50 0 0 0
SMALL
USER_CHARGES
****
VDW energy = -15.25
@<TRIPOS>ATOM
   1 C1        8.4349    -7.4061    -4.6260  C.3     1  <O>11      -0.0207
   2 C2        7.6575    -6.1755    -4.3811  C.ar    1  <O>11       0.0588
   3 C3        8.3482    -5.0729    -3.9271  C.ar    1  <O>11      -0.0303
   4 C4        7.6391    -3.8908    -3.6925  C.ar    1  <O>11       0.0243
   5 C5        8.3300    -2.6830    -3.2000  C.3     1  <O>11       0.0028
   6 C6        7.7506    -2.2789    -1.8931  C.ar    1  <O>11      -0.0428
   7 C7        6.6647    -1.3887    -1.8436  C.ar    1  <O>11      -0.0564
   8 C8        6.1271    -0.9979    -0.6123  C.ar    1  <O>11      -0.0351
   9 C9        6.6646    -1.4945     0.5791  C.ar    1  <O>11       0.1055
  10 S1        5.9977    -1.0057     2.1327  S.O2    1  <O>11       0.0611
  11 O1        4.4892    -1.6742     2.3223  O.2     1  <O>11      -0.1528
  12 O2        5.8807     0.6512     2.1886  O.2     1  <O>11      -0.1528
  13 N1        6.9893    -1.5291     3.3457  N.3     1  <O>11      -0.1738
  14 C10       6.4117    -1.1095     4.6535  C.3     1  <O>11       0.0208
  15 C11       6.3833     0.4068     4.7901  C.3     1  <O>11      -0.0385
  16 C12       7.7750     0.9995     4.6031  C.3     1  <O>11      -0.0504
  17 C13       8.3861     0.5497     3.2812  C.3     1  <O>11      -0.0359
  18 C14       8.3518    -0.9679     3.1278  C.3     1  <O>11       0.0291
  19 C15       9.3049    -1.5835     4.1392  C.3     1  <O>11      -0.0478
  20 C16       7.7409    -2.3879     0.5283  C.ar    1  <O>11      -0.0351
  21 C17       8.2840    -2.7834    -0.6951  C.ar    1  <O>11      -0.0564
  22 C18       6.2698    -3.8614    -3.9276  C.ar    1  <O>11       0.2682
  23 O3        5.5373    -2.6772    -3.7187  O.2     1  <O>11      -0.2661
  24 N2        5.6373    -4.9835    -4.3615  N.ar    1  <O>11      -0.2428
  25 N3        6.3348    -6.1497    -4.5969  N.ar    1  <O>11      -0.1762
  26 H1        7.7682    -8.1927    -4.9793  H       1  <O>11       0.0293
  27 H2        8.9132    -7.7240    -3.6996  H       1  <O>11       0.0293
  28 H3        9.1973    -7.2102    -5.3799  H       1  <O>11       0.0293
  29 H4        8.2050    -1.8742    -3.9194  H       1  <O>11       0.0363
  30 H5        9.3917    -2.8977    -3.0757  H       1  <O>11       0.0363
  31 H6        5.3934    -1.4903     4.7313  H       1  <O>11       0.0444
  32 H7        7.0180    -1.5258     5.4576  H       1  <O>11       0.0444
  33 H8        5.7149     0.8199     4.0323  H       1  <O>11       0.0278
  34 H9        6.0134     0.6691     5.7806  H       1  <O>11       0.0278
  35 H10       7.7038     2.0862     4.6124  H       1  <O>11       0.0266
  36 H11       8.4144     0.6694     5.4236  H       1  <O>11       0.0266
  37 H12       7.8240     1.0007     2.4626  H       1  <O>11       0.0281
  38 H13       9.4217     0.8859     3.2396  H       1  <O>11       0.0281
  39 H14       8.6744    -1.2266     2.1192  H       1  <O>11       0.0477
  40 H15       9.2908    -2.6698     4.0399  H       1  <O>11       0.0245
  41 H16       8.9964    -1.3074     5.1485  H       1  <O>11       0.0245
  42 H17      10.3167    -1.2166     3.9575  H       1  <O>11       0.0245
  43 H18       4.6389    -4.9447    -4.5088  H       1  <O>11       0.1921
  44 H19       9.3662    -5.1186    -3.7639  H       1  <O>11       0.0640
  45 H20       6.2616    -1.0213    -2.7197  H       1  <O>11       0.0621
  46 H21       5.3315    -0.3411    -0.5835  H       1  <O>11       0.0637
  47 H22       8.1377    -2.7587     1.4059  H       1  <O>11       0.0637
  48 H23       9.0757    -3.4449    -0.7197  H       1  <O>11       0.0621
@<TRIPOS>BOND
     1     1     2    1
     2     2     3   ar
     3     3     4   ar
     4     4     5    1
     5     5     6    1
     6     6     7   ar
     7     7     8   ar
     8     8     9   ar
     9     9    10    1
    10    10    11    2
    11    10    12    2
    12    10    13    1
    13    13    14    1
    14    14    15    1
    15    15    16    1
    16    16    17    1
    17    17    18    1
    18    13    18    1
    19    18    19    1
    20     9    20   ar
    21    20    21   ar
    22     6    21   ar
    23     4    22   ar
    24    22    23    2
    25    22    24   ar
    26    24    25   ar
    27     2    25   ar
    28     1    26    1
    29     1    27    1
    30     1    28    1
    31     5    29    1
    32     5    30    1
    33    14    31    1
    34    14    32    1
    35    15    33    1
    36    15    34    1
    37    16    35    1
    38    16    36    1
    39    17    37    1
    40    17    38    1
    41    18    39    1
    42    19    40    1
    43    19    41    1
    44    19    42    1
    45    24    43    1
    46     3    44    1
    47     7    45    1
    48     8    46    1
    49    20    47    1
    50    21    48    1
@<TRIPOS>MOLECULE
mol3_1_24
 48 50 0 0 0
SMALL
USER_CHARGES
****
VDW energy = -15.12
@<TRIPOS>ATOM
   1 C1        8.4349    -7.4061    -4.6260  C.3     1  <O>11      -0.0207
   2 C2        7.6575    -6.1755    -4.3811  C.ar    1  <O>11       0.0588
   3 C3        8.3482    -5.0729    -3.9271  C.ar    1  <O>11      -0.0303
   4 C4        7.6391    -3.8908    -3.6925  C.ar    1  <O>11       0.0243
   5 C5        8.3300    -2.6830    -3.2000  C.3     1  <O>11       0.0028
   6 C6        8.1583    -1.5796    -4.1798  C.ar    1  <O>11      -0.0428
   7 C7        7.0631    -0.7053    -4.0786  C.ar    1  <O>11      -0.0564
   8 C8        6.8941     0.3261    -5.0088  C.ar    1  <O>11      -0.0351
   9 C9        7.8176     0.4971    -6.0447  C.ar    1  <O>11       0.1055
  10 S1        7.6114     1.7891    -7.2218  S.O2    1  <O>11       0.0611
  11 O1        7.8875     3.2539    -6.4896  O.2     1  <O>11      -0.1528
  12 O2        6.0610     1.7516    -7.8194  O.2     1  <O>11      -0.1528
  13 N1        8.6843     1.5806    -8.4604  N.3     1  <O>11      -0.1738
  14 C10       8.4989     2.6814    -9.4473  C.3     1  <O>11       0.0208
  15 C11       7.1238     2.6211   -10.0985  C.3     1  <O>11      -0.0385
  16 C12       6.8880     1.2660   -10.7553  C.3     1  <O>11      -0.0504
  17 C13       7.1063     0.1324    -9.7602  C.3     1  <O>11      -0.0359
  18 C14       8.4616     0.2388    -9.0676  C.3     1  <O>11       0.0291
  19 C15       9.5552    -0.0264   -10.0895  C.3     1  <O>11      -0.0478
  20 C16       8.9129    -0.3692    -6.1395  C.ar    1  <O>11      -0.0351
  21 C17       9.0897    -1.4010    -5.2165  C.ar    1  <O>11      -0.0564
  22 C18       6.2698    -3.8614    -3.9276  C.ar    1  <O>11       0.2682
  23 O3        5.5373    -2.6772    -3.7187  O.2     1  <O>11      -0.2661
  24 N2        5.6373    -4.9835    -4.3615  N.ar    1  <O>11      -0.2428
  25 N3        6.3348    -6.1497    -4.5969  N.ar    1  <O>11      -0.1762
  26 H1        7.7682    -8.1927    -4.9793  H       1  <O>11       0.0293
  27 H2        8.9132    -7.7240    -3.6996  H       1  <O>11       0.0293
  28 H3        9.1973    -7.2102    -5.3799  H       1  <O>11       0.0293
  29 H4        9.3911    -2.8970    -3.0749  H       1  <O>11       0.0363
  30 H5        7.9037    -2.3868    -2.2412  H       1  <O>11       0.0363
  31 H6        8.6064     3.6384    -8.9371  H       1  <O>11       0.0444
  32 H7        9.2610     2.5943   -10.2213  H       1  <O>11       0.0444
  33 H8        6.3610     2.7850    -9.3351  H       1  <O>11       0.0278
  34 H9        7.0526     3.4019   -10.8548  H       1  <O>11       0.0278
  35 H10       5.8653     1.2233   -11.1270  H       1  <O>11       0.0266
  36 H11       7.5834     1.1497   -11.5883  H       1  <O>11       0.0266
  37 H12       6.3197     0.1706    -9.0057  H       1  <O>11       0.0281
  38 H13       7.0544    -0.8175   -10.2916  H       1  <O>11       0.0281
  39 H14       8.5123    -0.5104    -8.2774  H       1  <O>11       0.0477
  40 H15      10.5310     0.0459    -9.6069  H       1  <O>11       0.0245
  41 H16       9.4923     0.7093   -10.8926  H       1  <O>11       0.0245
  42 H17       9.4307    -1.0276   -10.5058  H       1  <O>11       0.0245
  43 H18       4.6389    -4.9447    -4.5088  H       1  <O>11       0.1921
  44 H19       9.3662    -5.1186    -3.7639  H       1  <O>11       0.0640
  45 H20       6.3799    -0.8244    -3.3143  H       1  <O>11       0.0621
  46 H21       6.0854     0.9626    -4.9302  H       1  <O>11       0.0637
  47 H22       9.5980    -0.2435    -6.9011  H       1  <O>11       0.0637
  48 H23       9.9029    -2.0315    -5.2952  H       1  <O>11       0.0621
@<TRIPOS>BOND
     1     1     2    1
     2     2     3   ar
     3     3     4   ar
     4     4     5    1
     5     5     6    1
     6     6     7   ar
     7     7     8   ar
     8     8     9   ar
     9     9    10    1
    10    10    11    2
    11    10    12    2
    12    10    13    1
    13    13    14    1
    14    14    15    1
    15    15    16    1
    16    16    17    1
    17    17    18    1
    18    13    18    1
    19    18    19    1
    20     9    20   ar
    21    20    21   ar
    22     6    21   ar
    23     4    22   ar
    24    22    23    2
    25    22    24   ar
    26    24    25   ar
    27     2    25   ar
    28     1    26    1
    29     1    27    1
    30     1    28    1
    31     5    29    1
    32     5    30    1
    33    14    31    1
    34    14    32    1
    35    15    33    1
    36    15    34    1
    37    16    35    1
    38    16    36    1
    39    17    37    1
    40    17    38    1
    41    18    39    1
    42    19    40    1
    43    19    41    1
    44    19    42    1
    45    24    43    1
    46     3    44    1
    47     7    45    1
    48     8    46    1
    49    20    47    1
    50    21    48    1
@<TRIPOS>MOLECULE
mol3_1_25
 48 50 0 0 0
SMALL
USER_CHARGES
****
VDW energy = -13.99
@<TRIPOS>ATOM
   1 C1        8.4349    -7.4061    -4.6260  C.3     1  <O>11      -0.0207
   2 C2        7.6575    -6.1755    -4.3811  C.ar    1  <O>11       0.0588
   3 C3        8.3482    -5.0729    -3.9271  C.ar    1  <O>11      -0.0303
   4 C4        7.6391    -3.8908    -3.6925  C.ar    1  <O>11       0.0243
   5 C5        8.3300    -2.6830    -3.2000  C.3     1  <O>11       0.0028
   6 C6        8.3266    -2.6812    -1.7144  C.ar    1  <O>11      -0.0428
   7 C7        7.1121    -2.6841    -1.0079  C.ar    1  <O>11      -0.0564
   8 C8        7.1086    -2.6694     0.3912  C.ar    1  <O>11      -0.0351
   9 C9        8.3153    -2.6562     1.0973  C.ar    1  <O>11       0.1055
  10 S1        8.3210    -2.6338     2.8571  S.O2    1  <O>11       0.0611
  11 O1        9.8887    -2.6218     3.4052  O.2     1  <O>11      -0.1528
  12 O2        7.5436    -3.9861     3.4307  O.2     1  <O>11      -0.1528
  13 N1        7.5393    -1.2805     3.3921  N.3     1  <O>11      -0.1738
  14 C10       7.5533    -1.2747     4.8820  C.3     1  <O>11       0.0208
  15 C11       6.7603    -2.4430     5.4519  C.3     1  <O>11      -0.0385
  16 C12       5.3287    -2.4401     4.9286  C.3     1  <O>11      -0.0504
  17 C13       5.3052    -2.4144     3.4049  C.3     1  <O>11      -0.0359
  18 C14       6.1544    -1.2778     2.8437  C.3     1  <O>11       0.0291
  19 C15       5.4909     0.0453     3.1897  C.3     1  <O>11      -0.0478
  20 C16       9.5247    -2.6620     0.3925  C.ar    1  <O>11      -0.0351
  21 C17       9.5383    -2.6764    -1.0030  C.ar    1  <O>11      -0.0564
  22 C18       6.2698    -3.8614    -3.9276  C.ar    1  <O>11       0.2682
  23 O3        5.5373    -2.6772    -3.7187  O.2     1  <O>11      -0.2661
  24 N2        5.6373    -4.9835    -4.3615  N.ar    1  <O>11      -0.2428
  25 N3        6.3348    -6.1497    -4.5969  N.ar    1  <O>11      -0.1762
  26 H1        7.7682    -8.1927    -4.9793  H       1  <O>11       0.0293
  27 H2        8.9132    -7.7240    -3.6996  H       1  <O>11       0.0293
  28 H3        9.1973    -7.2102    -5.3799  H       1  <O>11       0.0293
  29 H4        7.8152    -1.7952    -3.5664  H       1  <O>11       0.0363
  30 H5        9.3589    -2.6811    -3.5608  H       1  <O>11       0.0363
  31 H6        8.5843    -1.3453     5.2283  H       1  <O>11       0.0444
  32 H7        7.1138    -0.3426     5.2360  H       1  <O>11       0.0444
  33 H8        7.2444    -3.3772     5.1613  H       1  <O>11       0.0278
  34 H9        6.7436    -2.3668     6.5385  H       1  <O>11       0.0278
  35 H10       4.8195    -3.3368     5.2788  H       1  <O>11       0.0266
  36 H11       4.8136    -1.5566     5.3094  H       1  <O>11       0.0266
  37 H12       5.6927    -3.3630     3.0313  H       1  <O>11       0.0281
  38 H13       4.2762    -2.2852     3.0707  H       1  <O>11       0.0281
  39 H14       6.2119    -1.3839     1.7603  H       1  <O>11       0.0477
  40 H15       6.0880     0.8677     2.7932  H       1  <O>11       0.0245
  41 H16       5.4124     0.1434     4.2734  H       1  <O>11       0.0245
  42 H17       4.4922     0.0786     2.7505  H       1  <O>11       0.0245
  43 H18       4.6389    -4.9447    -4.5088  H       1  <O>11       0.1921
  44 H19       9.3662    -5.1186    -3.7639  H       1  <O>11       0.0640
  45 H20       6.2183    -2.6971    -1.5235  H       1  <O>11       0.0621
  46 H21       6.2126    -2.6683     0.9035  H       1  <O>11       0.0637
  47 H22      10.4170    -2.6556     0.9111  H       1  <O>11       0.0637
  48 H23      10.4364    -2.6835    -1.5113  H       1  <O>11       0.0621
@<TRIPOS>BOND
     1     1     2    1
     2     2     3   ar
     3     3     4   ar
     4     4     5    1
     5     5     6    1
     6     6     7   ar
     7     7     8   ar
     8     8     9   ar
     9     9    10    1
    10    10    11    2
    11    10    12    2
    12    10    13    1
    13    13    14    1
    14    14    15    1
    15    15    16    1
    16    16    17    1
    17    17    18    1
    18    13    18    1
    19    18    19    1
    20     9    20   ar
    21    20    21   ar
    22     6    21   ar
    23     4    22   ar
    24    22    23    2
    25    22    24   ar
    26    24    25   ar
    27     2    25   ar
    28     1    26    1
    29     1    27    1
    30     1    28    1
    31     5    29    1
    32     5    30    1
    33    14    31    1
    34    14    32    1
    35    15    33    1
    36    15    34    1
    37    16    35    1
    38    16    36    1
    39    17    37    1
    40    17    38    1
    41    18    39    1
    42    19    40    1
    43    19    41    1
    44    19    42    1
    45    24    43    1
    46     3    44    1
    47     7    45    1
    48     8    46    1
    49    20    47    1
    50    21    48    1
@<TRIPOS>MOLECULE
mol3_1_26
 48 50 0 0 0
SMALL
USER_CHARGES
****
VDW energy = -10.36
@<TRIPOS>ATOM
   1 C1        8.4349    -7.4061    -4.6260  C.3     1  <O>11      -0.0207
   2 C2        7.6575    -6.1755    -4.3811  C.ar    1  <O>11       0.0588
   3 C3        8.3482    -5.0729    -3.9271  C.ar    1  <O>11      -0.0303
   4 C4        7.6391    -3.8908    -3.6925  C.ar    1  <O>11       0.0243
   5 C5        8.3300    -2.6830    -3.2000  C.3     1  <O>11       0.0028
   6 C6        9.7770    -2.9740    -3.0310  C.ar    1  <O>11      -0.0428
   7 C7       10.1992    -3.9841    -2.1504  C.ar    1  <O>11      -0.0564
   8 C8       11.5625    -4.2497    -1.9814  C.ar    1  <O>11      -0.0351
   9 C9       12.5156    -3.5138    -2.6920  C.ar    1  <O>11       0.1055
  10 S1       14.2328    -3.8379    -2.4832  S.O2    1  <O>11       0.0611
  11 O1       14.6036    -5.3107    -3.1552  O.2     1  <O>11      -0.1528
  12 O2       14.5991    -3.8603    -0.8623  O.2     1  <O>11      -0.1528
  13 N1       15.1104    -2.6543    -3.2299  N.3     1  <O>11      -0.1738
  14 C10      16.5606    -2.9427    -3.0460  C.3     1  <O>11       0.0208
  15 C11      16.9623    -2.8694    -1.5790  C.3     1  <O>11      -0.0385
  16 C12      16.6043    -1.5141    -0.9804  C.3     1  <O>11      -0.0504
  17 C13      15.1285    -1.1972    -1.1920  C.3     1  <O>11      -0.0359
  18 C14      14.7231    -1.3353    -2.6564  C.3     1  <O>11       0.0291
  19 C15      15.3981    -0.2335    -3.4568  C.3     1  <O>11      -0.0478
  20 C16      12.0936    -2.5135    -3.5755  C.ar    1  <O>11      -0.0351
  21 C17      10.7360    -2.2412    -3.7505  C.ar    1  <O>11      -0.0564
  22 C18       6.2698    -3.8614    -3.9276  C.ar    1  <O>11       0.2682
  23 O3        5.5373    -2.6772    -3.7187  O.2     1  <O>11      -0.2661
  24 N2        5.6373    -4.9835    -4.3615  N.ar    1  <O>11      -0.2428
  25 N3        6.3348    -6.1497    -4.5969  N.ar    1  <O>11      -0.1762
  26 H1        7.7682    -8.1927    -4.9793  H       1  <O>11       0.0293
  27 H2        8.9132    -7.7240    -3.6996  H       1  <O>11       0.0293
  28 H3        9.1973    -7.2102    -5.3799  H       1  <O>11       0.0293
  29 H4        7.9040    -2.3860    -2.2420  H       1  <O>11       0.0363
  30 H5        8.2040    -1.8740    -3.9200  H       1  <O>11       0.0363
  31 H6       16.7748    -3.9432    -3.4212  H       1  <O>11       0.0444
  32 H7       17.1405    -2.2115    -3.6085  H       1  <O>11       0.0444
  33 H8       16.4388    -3.6524    -1.0272  H       1  <O>11       0.0278
  34 H9       18.0373    -3.0243    -1.4951  H       1  <O>11       0.0278
  35 H10      16.8171    -1.5287     0.0875  H       1  <O>11       0.0266
  36 H11      17.2084    -0.7430    -1.4616  H       1  <O>11       0.0266
  37 H12      14.5317    -1.8863    -0.5933  H       1  <O>11       0.0281
  38 H13      14.9379    -0.1747    -0.8673  H       1  <O>11       0.0281
  39 H14      13.6408    -1.2301    -2.7328  H       1  <O>11       0.0477
  40 H15      15.1158    -0.3201    -4.5071  H       1  <O>11       0.0245
  41 H16      16.4812    -0.3239    -3.3636  H       1  <O>11       0.0245
  42 H17      15.0825     0.7397    -3.0764  H       1  <O>11       0.0245
  43 H18       4.6389    -4.9447    -4.5088  H       1  <O>11       0.1921
  44 H19       9.3662    -5.1186    -3.7639  H       1  <O>11       0.0640
  45 H20       9.5003    -4.5329    -1.6256  H       1  <O>11       0.0621
  46 H21      11.8654    -4.9910    -1.3303  H       1  <O>11       0.0637
  47 H22      12.7947    -1.9708    -4.1038  H       1  <O>11       0.0637
  48 H23      10.4370    -1.5031    -4.4070  H       1  <O>11       0.0621
@<TRIPOS>BOND
     1     1     2    1
     2     2     3   ar
     3     3     4   ar
     4     4     5    1
     5     5     6    1
     6     6     7   ar
     7     7     8   ar
     8     8     9   ar
     9     9    10    1
    10    10    11    2
    11    10    12    2
    12    10    13    1
    13    13    14    1
    14    14    15    1
    15    15    16    1
    16    16    17    1
    17    17    18    1
    18    13    18    1
    19    18    19    1
    20     9    20   ar
    21    20    21   ar
    22     6    21   ar
    23     4    22   ar
    24    22    23    2
    25    22    24   ar
    26    24    25   ar
    27     2    25   ar
    28     1    26    1
    29     1    27    1
    30     1    28    1
    31     5    29    1
    32     5    30    1
    33    14    31    1
    34    14    32    1
    35    15    33    1
    36    15    34    1
    37    16    35    1
    38    16    36    1
    39    17    37    1
    40    17    38    1
    41    18    39    1
    42    19    40    1
    43    19    41    1
    44    19    42    1
    45    24    43    1
    46     3    44    1
    47     7    45    1
    48     8    46    1
    49    20    47    1
    50    21    48    1
@<TRIPOS>MOLECULE
mol3_1_27
 48 50 0 0 0
SMALL
USER_CHARGES
****
VDW energy = -10.10
@<TRIPOS>ATOM
   1 C1        8.4349    -7.4061    -4.6260  C.3     1  <O>11      -0.0207
   2 C2        7.6575    -6.1755    -4.3811  C.ar    1  <O>11       0.0588
   3 C3        8.3482    -5.0729    -3.9271  C.ar    1  <O>11      -0.0303
   4 C4        7.6391    -3.8908    -3.6925  C.ar    1  <O>11       0.0243
   5 C5        8.3300    -2.6830    -3.2000  C.3     1  <O>11       0.0028
   6 C6        7.7506    -2.2789    -1.8931  C.ar    1  <O>11      -0.0428
   7 C7        6.6647    -1.3887    -1.8436  C.ar    1  <O>11      -0.0564
   8 C8        6.1271    -0.9979    -0.6123  C.ar    1  <O>11      -0.0351
   9 C9        6.6646    -1.4945     0.5791  C.ar    1  <O>11       0.1055
  10 S1        5.9977    -1.0057     2.1327  S.O2    1  <O>11       0.0611
  11 O1        6.1303     0.6414     2.2982  O.2     1  <O>11      -0.1528
  12 O2        6.8369    -1.7550     3.3560  O.2     1  <O>11      -0.1528
  13 N1        4.4062    -1.4415     2.2093  N.3     1  <O>11      -0.1738
  14 C10       3.6684    -0.7628     1.1070  C.3     1  <O>11       0.0208
  15 C11       3.6748     0.7500     1.2801  C.3     1  <O>11      -0.0385
  16 C12       3.1012     1.1485     2.6349  C.3     1  <O>11      -0.0504
  17 C13       3.8301     0.4343     3.7670  C.3     1  <O>11      -0.0359
  18 C14       3.8723    -1.0755     3.5509  C.3     1  <O>11       0.0291
  19 C15       2.4632    -1.6287     3.6873  C.3     1  <O>11      -0.0478
  20 C16       7.7409    -2.3879     0.5283  C.ar    1  <O>11      -0.0351
  21 C17       8.2840    -2.7834    -0.6951  C.ar    1  <O>11      -0.0564
  22 C18       6.2698    -3.8614    -3.9276  C.ar    1  <O>11       0.2682
  23 O3        5.5373    -2.6772    -3.7187  O.2     1  <O>11      -0.2661
  24 N2        5.6373    -4.9835    -4.3615  N.ar    1  <O>11      -0.2428
  25 N3        6.3348    -6.1497    -4.5969  N.ar    1  <O>11      -0.1762
  26 H1        7.7682    -8.1927    -4.9793  H       1  <O>11       0.0293
  27 H2        8.9132    -7.7240    -3.6996  H       1  <O>11       0.0293
  28 H3        9.1973    -7.2102    -5.3799  H       1  <O>11       0.0293
  29 H4        8.2050    -1.8742    -3.9194  H       1  <O>11       0.0363
  30 H5        9.3917    -2.8977    -3.0757  H       1  <O>11       0.0363
  31 H6        4.1407    -1.0115     0.1569  H       1  <O>11       0.0444
  32 H7        2.6369    -1.1141     1.1034  H       1  <O>11       0.0444
  33 H8        4.7020     1.1122     1.2072  H       1  <O>11       0.0278
  34 H9        3.0748     1.2021     0.4912  H       1  <O>11       0.0278
  35 H10       3.2074     2.2246     2.7643  H       1  <O>11       0.0266
  36 H11       2.0437     0.8807     2.6651  H       1  <O>11       0.0266
  37 H12       4.8516     0.8125     3.8212  H       1  <O>11       0.0281
  38 H13       3.3151     0.6430     4.7043  H       1  <O>11       0.0281
  39 H14       4.5137    -1.5215     4.3111  H       1  <O>11       0.0477
  40 H15       2.4789    -2.7090     3.5356  H       1  <O>11       0.0245
  41 H16       1.8146    -1.1670     2.9414  H       1  <O>11       0.0245
  42 H17       2.0798    -1.4090     4.6853  H       1  <O>11       0.0245
  43 H18       4.6389    -4.9447    -4.5088  H       1  <O>11       0.1921
  44 H19       9.3662    -5.1186    -3.7639  H       1  <O>11       0.0640
  45 H20       6.2616    -1.0213    -2.7197  H       1  <O>11       0.0621
  46 H21       5.3315    -0.3411    -0.5835  H       1  <O>11       0.0637
  47 H22       8.1377    -2.7587     1.4059  H       1  <O>11       0.0637
  48 H23       9.0757    -3.4449    -0.7197  H       1  <O>11       0.0621
@<TRIPOS>BOND
     1     1     2    1
     2     2     3   ar
     3     3     4   ar
     4     4     5    1
     5     5     6    1
     6     6     7   ar
     7     7     8   ar
     8     8     9   ar
     9     9    10    1
    10    10    11    2
    11    10    12    2
    12    10    13    1
    13    13    14    1
    14    14    15    1
    15    15    16    1
    16    16    17    1
    17    17    18    1
    18    13    18    1
    19    18    19    1
    20     9    20   ar
    21    20    21   ar
    22     6    21   ar
    23     4    22   ar
    24    22    23    2
    25    22    24   ar
    26    24    25   ar
    27     2    25   ar
    28     1    26    1
    29     1    27    1
    30     1    28    1
    31     5    29    1
    32     5    30    1
    33    14    31    1
    34    14    32    1
    35    15    33    1
    36    15    34    1
    37    16    35    1
    38    16    36    1
    39    17    37    1
    40    17    38    1
    41    18    39    1
    42    19    40    1
    43    19    41    1
    44    19    42    1
    45    24    43    1
    46     3    44    1
    47     7    45    1
    48     8    46    1
    49    20    47    1
    50    21    48    1
@<TRIPOS>MOLECULE
mol3_1_28
 48 50 0 0 0
SMALL
USER_CHARGES
****
VDW energy = -7.41
@<TRIPOS>ATOM
   1 C1        8.4349    -7.4061    -4.6260  C.3     1  <O>11      -0.0207
   2 C2        7.6575    -6.1755    -4.3811  C.ar    1  <O>11       0.0588
   3 C3        8.3482    -5.0729    -3.9271  C.ar    1  <O>11      -0.0303
   4 C4        7.6391    -3.8908    -3.6925  C.ar    1  <O>11       0.0243
   5 C5        8.3300    -2.6830    -3.2000  C.3     1  <O>11       0.0028
   6 C6        8.1583    -1.5796    -4.1798  C.ar    1  <O>11      -0.0428
   7 C7        8.7281    -0.3188    -3.9352  C.ar    1  <O>11      -0.0564
   8 C8        8.5557     0.7243    -4.8517  C.ar    1  <O>11      -0.0351
   9 C9        7.8178     0.5179    -6.0213  C.ar    1  <O>11       0.1055
  10 S1        7.5922     1.8249    -7.1781  S.O2    1  <O>11       0.0611
  11 O1        9.0359     2.1531    -7.9305  O.2     1  <O>11      -0.1528
  12 O2        7.0606     3.1835    -6.3821  O.2     1  <O>11      -0.1528
  13 N1        6.4726     1.3737    -8.3057  N.3     1  <O>11      -0.1738
  14 C10       6.2933     2.4885    -9.2780  C.3     1  <O>11       0.0208
  15 C11       5.7070     3.7239    -8.6083  C.3     1  <O>11      -0.0385
  16 C12       4.3886     3.3980    -7.9164  C.3     1  <O>11      -0.0504
  17 C13       4.5562     2.2374    -6.9426  C.3     1  <O>11      -0.0359
  18 C14       5.2025     1.0267    -7.6091  C.3     1  <O>11       0.0291
  19 C15       4.2282     0.4477    -8.6219  C.3     1  <O>11      -0.0478
  20 C16       7.2578    -0.7410    -6.2681  C.ar    1  <O>11      -0.0351
  21 C17       7.4242    -1.7874    -5.3597  C.ar    1  <O>11      -0.0564
  22 C18       6.2698    -3.8614    -3.9276  C.ar    1  <O>11       0.2682
  23 O3        5.5373    -2.6772    -3.7187  O.2     1  <O>11      -0.2661
  24 N2        5.6373    -4.9835    -4.3615  N.ar    1  <O>11      -0.2428
  25 N3        6.3348    -6.1497    -4.5969  N.ar    1  <O>11      -0.1762
  26 H1        7.7682    -8.1927    -4.9793  H       1  <O>11       0.0293
  27 H2        8.9132    -7.7240    -3.6996  H       1  <O>11       0.0293
  28 H3        9.1973    -7.2102    -5.3799  H       1  <O>11       0.0293
  29 H4        9.3911    -2.8970    -3.0749  H       1  <O>11       0.0363
  30 H5        7.9037    -2.3868    -2.2412  H       1  <O>11       0.0363
  31 H6        7.2616     2.7454    -9.7071  H       1  <O>11       0.0444
  32 H7        5.6197     2.1620   -10.0698  H       1  <O>11       0.0444
  33 H8        6.4161     4.0972    -7.8669  H       1  <O>11       0.0278
  34 H9        5.5346     4.4909    -9.3625  H       1  <O>11       0.0278
  35 H10       4.0460     4.2759    -7.3705  H       1  <O>11       0.0266
  36 H11       3.6490     3.1273    -8.6717  H       1  <O>11       0.0266
  37 H12       5.1855     2.5625    -6.1133  H       1  <O>11       0.0281
  38 H13       3.5754     1.9511    -6.5641  H       1  <O>11       0.0281
  39 H14       5.4205     0.2799    -6.8455  H       1  <O>11       0.0477
  40 H15       4.6779    -0.4203    -9.1060  H       1  <O>11       0.0245
  41 H16       3.9916     1.2010    -9.3747  H       1  <O>11       0.0245
  42 H17       3.3111     0.1440    -8.1138  H       1  <O>11       0.0245
  43 H18       4.6389    -4.9447    -4.5088  H       1  <O>11       0.1921
  44 H19       9.3662    -5.1186    -3.7639  H       1  <O>11       0.0640
  45 H20       9.2766    -0.1614    -3.0753  H       1  <O>11       0.0621
  46 H21       8.9744     1.6487    -4.6638  H       1  <O>11       0.0637
  47 H22       6.7153    -0.8972    -7.1320  H       1  <O>11       0.0637
  48 H23       7.0088    -2.7119    -5.5542  H       1  <O>11       0.0621
@<TRIPOS>BOND
     1     1     2    1
     2     2     3   ar
     3     3     4   ar
     4     4     5    1
     5     5     6    1
     6     6     7   ar
     7     7     8   ar
     8     8     9   ar
     9     9    10    1
    10    10    11    2
    11    10    12    2
    12    10    13    1
    13    13    14    1
    14    14    15    1
    15    15    16    1
    16    16    17    1
    17    17    18    1
    18    13    18    1
    19    18    19    1
    20     9    20   ar
    21    20    21   ar
    22     6    21   ar
    23     4    22   ar
    24    22    23    2
    25    22    24   ar
    26    24    25   ar
    27     2    25   ar
    28     1    26    1
    29     1    27    1
    30     1    28    1
    31     5    29    1
    32     5    30    1
    33    14    31    1
    34    14    32    1
    35    15    33    1
    36    15    34    1
    37    16    35    1
    38    16    36    1
    39    17    37    1
    40    17    38    1
    41    18    39    1
    42    19    40    1
    43    19    41    1
    44    19    42    1
    45    24    43    1
    46     3    44    1
    47     7    45    1
    48     8    46    1
    49    20    47    1
    50    21    48    1
@<TRIPOS>MOLECULE
mol3_1_29
 48 50 0 0 0
SMALL
USER_CHARGES
****
VDW energy = 12.89
@<TRIPOS>ATOM
   1 C1        8.4349    -7.4061    -4.6260  C.3     1  <O>11      -0.0207
   2 C2        7.6575    -6.1755    -4.3811  C.ar    1  <O>11       0.0588
   3 C3        8.3482    -5.0729    -3.9271  C.ar    1  <O>11      -0.0303
   4 C4        7.6391    -3.8908    -3.6925  C.ar    1  <O>11       0.0243
   5 C5        8.3300    -2.6830    -3.2000  C.3     1  <O>11       0.0028
   6 C6        8.7973    -1.8738    -4.3549  C.ar    1  <O>11      -0.0428
   7 C7       10.0727    -2.0906    -4.9031  C.ar    1  <O>11      -0.0564
   8 C8       10.5181    -1.3199    -5.9826  C.ar    1  <O>11      -0.0351
   9 C9        9.6943    -0.3300    -6.5271  C.ar    1  <O>11       0.1055
  10 S1       10.2472     0.6472    -7.8824  S.O2    1  <O>11       0.0611
  11 O1       10.3253    -0.2946    -9.2480  O.2     1  <O>11      -0.1528
  12 O2       11.7548     1.2599    -7.5447  O.2     1  <O>11      -0.1528
  13 N1        9.1897     1.8917    -8.1303  N.3     1  <O>11      -0.1738
  14 C10       7.8443     1.3266    -8.4309  C.3     1  <O>11       0.0208
  15 C11       7.8476     0.5421    -9.7361  C.3     1  <O>11      -0.0385
  16 C12       8.3377     1.4055   -10.8926  C.3     1  <O>11      -0.0504
  17 C13       9.7001     2.0132   -10.5801  C.3     1  <O>11      -0.0359
  18 C14       9.7019     2.7429    -9.2403  C.3     1  <O>11       0.0291
  19 C15       8.8262     3.9799    -9.3559  C.3     1  <O>11      -0.0478
  20 C16       8.4206    -0.1206    -5.9857  C.ar    1  <O>11      -0.0351
  21 C17       7.9677    -0.8842    -4.9088  C.ar    1  <O>11      -0.0564
  22 C18       6.2698    -3.8614    -3.9276  C.ar    1  <O>11       0.2682
  23 O3        5.5373    -2.6772    -3.7187  O.2     1  <O>11      -0.2661
  24 N2        5.6373    -4.9835    -4.3615  N.ar    1  <O>11      -0.2428
  25 N3        6.3348    -6.1497    -4.5969  N.ar    1  <O>11      -0.1762
  26 H1        7.7682    -8.1927    -4.9793  H       1  <O>11       0.0293
  27 H2        8.9132    -7.7240    -3.6996  H       1  <O>11       0.0293
  28 H3        9.1973    -7.2102    -5.3799  H       1  <O>11       0.0293
  29 H4        9.1849    -2.9763    -2.5912  H       1  <O>11       0.0363
  30 H5        7.6407    -2.0912    -2.5972  H       1  <O>11       0.0363
  31 H6        7.5485     0.6614    -7.6199  H       1  <O>11       0.0444
  32 H7        7.1276     2.1434    -8.5111  H       1  <O>11       0.0444
  33 H8        8.5075    -0.3211    -9.6308  H       1  <O>11       0.0278
  34 H9        6.8355     0.2001    -9.9495  H       1  <O>11       0.0278
  35 H10       8.4175     0.7904   -11.7877  H       1  <O>11       0.0266
  36 H11       7.6190     2.2084   -11.0653  H       1  <O>11       0.0266
  37 H12      10.4423     1.2146   -10.5489  H       1  <O>11       0.0281
  38 H13       9.9595     2.7198   -11.3680  H       1  <O>11       0.0281
  39 H14      10.7234     3.0409    -9.0037  H       1  <O>11       0.0477
  40 H15       8.8191     4.5124    -8.4037  H       1  <O>11       0.0245
  41 H16       7.8081     3.6852    -9.6144  H       1  <O>11       0.0245
  42 H17       9.2213     4.6354   -10.1340  H       1  <O>11       0.0245
  43 H18       4.6389    -4.9447    -4.5088  H       1  <O>11       0.1921
  44 H19       9.3662    -5.1186    -3.7639  H       1  <O>11       0.0640
  45 H20      10.6839    -2.8220    -4.5076  H       1  <O>11       0.0621
  46 H21      11.4574    -1.4825    -6.3781  H       1  <O>11       0.0637
  47 H22       7.8091     0.6072    -6.3876  H       1  <O>11       0.0637
  48 H23       7.0255    -0.7224    -4.5201  H       1  <O>11       0.0621
@<TRIPOS>BOND
     1     1     2    1
     2     2     3   ar
     3     3     4   ar
     4     4     5    1
     5     5     6    1
     6     6     7   ar
     7     7     8   ar
     8     8     9   ar
     9     9    10    1
    10    10    11    2
    11    10    12    2
    12    10    13    1
    13    13    14    1
    14    14    15    1
    15    15    16    1
    16    16    17    1
    17    17    18    1
    18    13    18    1
    19    18    19    1
    20     9    20   ar
    21    20    21   ar
    22     6    21   ar
    23     4    22   ar
    24    22    23    2
    25    22    24   ar
    26    24    25   ar
    27     2    25   ar
    28     1    26    1
    29     1    27    1
    30     1    28    1
    31     5    29    1
    32     5    30    1
    33    14    31    1
    34    14    32    1
    35    15    33    1
    36    15    34    1
    37    16    35    1
    38    16    36    1
    39    17    37    1
    40    17    38    1
    41    18    39    1
    42    19    40    1
    43    19    41    1
    44    19    42    1
    45    24    43    1
    46     3    44    1
    47     7    45    1
    48     8    46    1
    49    20    47    1
    50    21    48    1
@<TRIPOS>MOLECULE
mol3_1_30
 48 50 0 0 0
SMALL
USER_CHARGES
****
VDW energy = 13.67
@<TRIPOS>ATOM
   1 C1        8.4349    -7.4061    -4.6260  C.3     1  <O>11      -0.0207
   2 C2        7.6575    -6.1755    -4.3811  C.ar    1  <O>11       0.0588
   3 C3        8.3482    -5.0729    -3.9271  C.ar    1  <O>11      -0.0303
   4 C4        7.6391    -3.8908    -3.6925  C.ar    1  <O>11       0.0243
   5 C5        8.3300    -2.6830    -3.2000  C.3     1  <O>11       0.0028
   6 C6        8.3266    -2.6812    -1.7144  C.ar    1  <O>11      -0.0428
   7 C7        7.2727    -2.0771    -1.0083  C.ar    1  <O>11      -0.0564
   8 C8        7.2757    -2.0640     0.3908  C.ar    1  <O>11      -0.0351
   9 C9        8.3268    -2.6567     1.0973  C.ar    1  <O>11       0.1055
  10 S1        8.3413    -2.6418     2.8571  S.O2    1  <O>11       0.0611
  11 O1        7.1494    -3.6471     3.4288  O.2     1  <O>11      -0.1528
  12 O2        8.0692    -1.0948     3.4002  O.2     1  <O>11      -0.1528
  13 N1        9.8113    -3.1652     3.3991  N.3     1  <O>11      -0.1738
  14 C10      10.0404    -4.5517     2.9039  C.3     1  <O>11       0.0208
  15 C11       9.0300    -5.5279     3.4911  C.3     1  <O>11      -0.0385
  16 C12       9.0548    -5.4911     5.0147  C.3     1  <O>11      -0.0504
  17 C13       8.8524    -4.0707     5.5292  C.3     1  <O>11      -0.0359
  18 C14       9.8290    -3.0903     4.8867  C.3     1  <O>11       0.0291
  19 C15      11.2324    -3.4047     5.3785  C.3     1  <O>11      -0.0478
  20 C16       9.3719    -3.2657     0.3929  C.ar    1  <O>11      -0.0351
  21 C17       9.3777    -3.2836    -1.0026  C.ar    1  <O>11      -0.0564
  22 C18       6.2698    -3.8614    -3.9276  C.ar    1  <O>11       0.2682
  23 O3        5.5373    -2.6772    -3.7187  O.2     1  <O>11      -0.2661
  24 N2        5.6373    -4.9835    -4.3615  N.ar    1  <O>11      -0.2428
  25 N3        6.3348    -6.1497    -4.5969  N.ar    1  <O>11      -0.1762
  26 H1        7.7682    -8.1927    -4.9793  H       1  <O>11       0.0293
  27 H2        8.9132    -7.7240    -3.6996  H       1  <O>11       0.0293
  28 H3        9.1973    -7.2102    -5.3799  H       1  <O>11       0.0293
  29 H4        7.8152    -1.7952    -3.5664  H       1  <O>11       0.0363
  30 H5        9.3589    -2.6811    -3.5608  H       1  <O>11       0.0363
  31 H6        9.9504    -4.5609     1.8178  H       1  <O>11       0.0444
  32 H7       11.0438    -4.8674     3.1884  H       1  <O>11       0.0444
  33 H8        8.0309    -5.2576     3.1441  H       1  <O>11       0.0278
  34 H9        9.2699    -6.5356     3.1541  H       1  <O>11       0.0278
  35 H10       8.2591    -6.1274     5.3995  H       1  <O>11       0.0266
  36 H11      10.0196    -5.8637     5.3629  H       1  <O>11       0.0266
  37 H12       7.8335    -3.7560     5.3007  H       1  <O>11       0.0281
  38 H13       9.0019    -4.0626     6.6085  H       1  <O>11       0.0281
  39 H14       9.5572    -2.0775     5.1846  H       1  <O>11       0.0477
  40 H15      11.9417    -2.7096     4.9268  H       1  <O>11       0.0245
  41 H16      11.4978    -4.4257     5.1005  H       1  <O>11       0.0245
  42 H17      11.2695    -3.3046     6.4647  H       1  <O>11       0.0245
  43 H18       4.6389    -4.9447    -4.5088  H       1  <O>11       0.1921
  44 H19       9.3662    -5.1186    -3.7639  H       1  <O>11       0.0640
  45 H20       6.4926    -1.6410    -1.5242  H       1  <O>11       0.0621
  46 H21       6.4999    -1.6156     0.9028  H       1  <O>11       0.0637
  47 H22      10.1474    -3.7068     0.9117  H       1  <O>11       0.0637
  48 H23      10.1524    -3.7382    -1.5107  H       1  <O>11       0.0621
@<TRIPOS>BOND
     1     1     2    1
     2     2     3   ar
     3     3     4   ar
     4     4     5    1
     5     5     6    1
     6     6     7   ar
     7     7     8   ar
     8     8     9   ar
     9     9    10    1
    10    10    11    2
    11    10    12    2
    12    10    13    1
    13    13    14    1
    14    14    15    1
    15    15    16    1
    16    16    17    1
    17    17    18    1
    18    13    18    1
    19    18    19    1
    20     9    20   ar
    21    20    21   ar
    22     6    21   ar
    23     4    22   ar
    24    22    23    2
    25    22    24   ar
    26    24    25   ar
    27     2    25   ar
    28     1    26    1
    29     1    27    1
    30     1    28    1
    31     5    29    1
    32     5    30    1
    33    14    31    1
    34    14    32    1
    35    15    33    1
    36    15    34    1
    37    16    35    1
    38    16    36    1
    39    17    37    1
    40    17    38    1
    41    18    39    1
    42    19    40    1
    43    19    41    1
    44    19    42    1
    45    24    43    1
    46     3    44    1
    47     7    45    1
    48     8    46    1
    49    20    47    1
    50    21    48    1
