@<TRIPOS>MOLECULE
mol36_1_1
 37 39 0 0 0
SMALL
USER_CHARGES
****
VDW energy = -6.10
@<TRIPOS>ATOM
   1 O1        9.2535    -1.1831    -1.4851  O.2     1  <O>11      -0.2702
   2 C1        8.8535    -1.4341    -2.6122  C.2     1  <O>11       0.2444
   3 N1        7.6050    -1.0300    -3.0010  N.am    1  <O>11      -0.3057
   4 C2        6.7510    -0.2990    -2.0700  C.3     1  <O>11       0.0565
   5 C3        5.4670     0.0200    -2.7260  C.ar    1  <O>11       0.0863
   6 N2        5.4222     1.2014    -3.3887  N.ar    1  <O>11      -0.1737
   7 N3        4.2511     1.6143    -3.9258  N.ar    1  <O>11      -0.2424
   8 C4        3.1547     0.8308    -3.7982  C.ar    1  <O>11       0.2725
   9 O2        1.9486     1.3612    -4.2934  O.2     1  <O>11      -0.2658
  10 C5        3.1702    -0.4425    -3.2107  C.ar    1  <O>11       0.0496
  11 C6        2.0406    -1.2892    -3.1258  C.ar    1  <O>11      -0.0487
  12 C7        2.1174    -2.5329    -2.5016  C.ar    1  <O>11      -0.0610
  13 C8        3.3191    -2.9534    -1.9416  C.ar    1  <O>11      -0.0611
  14 C9        4.4433    -2.1279    -2.0090  C.ar    1  <O>11      -0.0520
  15 C10       4.3856    -0.8691    -2.6469  C.ar    1  <O>11       0.0118
  16 C11       9.7060    -2.1640    -3.5420  C.ar    1  <O>11       0.0367
  17 C12       9.7487    -1.8012    -4.8991  C.ar    1  <O>11      -0.0491
  18 C13      10.5581    -2.5099    -5.7930  C.ar    1  <O>11      -0.0494
  19 C14      11.3323    -3.5825    -5.3421  C.ar    1  <O>11       0.0549
  20 C15      12.1863    -4.3371    -6.2811  C.3     1  <O>11       0.4174
  21 F1       12.8469    -5.3397    -5.5977  F       1  <O>11      -0.1659
  22 F2       13.1091    -3.4828    -6.8516  F       1  <O>11      -0.1659
  23 F3       11.4007    -4.8944    -7.2710  F       1  <O>11      -0.1659
  24 C16      11.2949    -3.9384    -3.9897  C.ar    1  <O>11      -0.0494
  25 C17      10.4915    -3.2367    -3.0889  C.ar    1  <O>11      -0.0491
  26 H1        7.2710    -1.2390    -3.9420  H       1  <O>11       0.1494
  27 H2        6.5660    -0.9120    -1.1880  H       1  <O>11       0.0528
  28 H3        7.2450     0.6260    -1.7720  H       1  <O>11       0.0528
  29 H4        4.1965     2.4955    -4.4168  H       1  <O>11       0.1921
  30 H5        1.1438    -0.9808    -3.5330  H       1  <O>11       0.0625
  31 H6        1.2845    -3.1406    -2.4551  H       1  <O>11       0.0618
  32 H7        3.3797    -3.8731    -1.4774  H       1  <O>11       0.0618
  33 H8        5.3305    -2.4425    -1.5860  H       1  <O>11       0.0624
  34 H9        9.1806    -1.0088    -5.2374  H       1  <O>11       0.0625
  35 H10      10.5836    -2.2399    -6.7888  H       1  <O>11       0.0623
  36 H11      11.8676    -4.7285    -3.6540  H       1  <O>11       0.0623
  37 H12      10.4749    -3.5054    -2.0926  H       1  <O>11       0.0625
@<TRIPOS>BOND
     1     1     2    2
     2     2     3   am
     3     3     4    1
     4     4     5    1
     5     5     6   ar
     6     6     7   ar
     7     7     8   ar
     8     8     9    2
     9     8    10   ar
    10    10    11   ar
    11    11    12   ar
    12    12    13   ar
    13    13    14   ar
    14    14    15   ar
    15     5    15   ar
    16    10    15   ar
    17     2    16    1
    18    16    17   ar
    19    17    18   ar
    20    18    19   ar
    21    19    20    1
    22    20    21    1
    23    20    22    1
    24    20    23    1
    25    19    24   ar
    26    24    25   ar
    27    16    25   ar
    28     3    26    1
    29     4    27    1
    30     4    28    1
    31     7    29    1
    32    11    30    1
    33    12    31    1
    34    13    32    1
    35    14    33    1
    36    17    34    1
    37    18    35    1
    38    24    36    1
    39    25    37    1
@<TRIPOS>MOLECULE
mol36_1_2
 37 39 0 0 0
SMALL
USER_CHARGES
****
VDW energy = -5.76
@<TRIPOS>ATOM
   1 O1        9.2535    -1.1831    -1.4851  O.2     1  <O>11      -0.2702
   2 C1        8.8535    -1.4341    -2.6122  C.2     1  <O>11       0.2444
   3 N1        7.6050    -1.0300    -3.0010  N.am    1  <O>11      -0.3057
   4 C2        6.7510    -0.2990    -2.0700  C.3     1  <O>11       0.0565
   5 C3        5.4670     0.0200    -2.7260  C.ar    1  <O>11       0.0863
   6 N2        4.4884    -0.9071    -2.5862  N.ar    1  <O>11      -0.1737
   7 N3        3.3187    -0.7385    -3.2449  N.ar    1  <O>11      -0.2424
   8 C4        3.1502     0.3592    -4.0188  C.ar    1  <O>11       0.2725
   9 O2        1.9510     0.4265    -4.7525  O.2     1  <O>11      -0.2658
  10 C5        4.0903     1.3952    -4.1181  C.ar    1  <O>11       0.0496
  11 C6        3.8957     2.5709    -4.8796  C.ar    1  <O>11      -0.0487
  12 C7        4.8843     3.5499    -4.9594  C.ar    1  <O>11      -0.0610
  13 C8        6.0902     3.3722    -4.2894  C.ar    1  <O>11      -0.0611
  14 C9        6.3035     2.2144    -3.5386  C.ar    1  <O>11      -0.0520
  15 C10       5.3084     1.2172    -3.4386  C.ar    1  <O>11       0.0118
  16 C11       9.7060    -2.1640    -3.5420  C.ar    1  <O>11       0.0367
  17 C12       9.7487    -1.8012    -4.8991  C.ar    1  <O>11      -0.0491
  18 C13      10.5581    -2.5099    -5.7930  C.ar    1  <O>11      -0.0494
  19 C14      11.3323    -3.5825    -5.3421  C.ar    1  <O>11       0.0549
  20 C15      12.1863    -4.3371    -6.2811  C.3     1  <O>11       0.4174
  21 F1       12.8469    -5.3397    -5.5977  F       1  <O>11      -0.1659
  22 F2       13.1091    -3.4828    -6.8516  F       1  <O>11      -0.1659
  23 F3       11.4007    -4.8944    -7.2710  F       1  <O>11      -0.1659
  24 C16      11.2949    -3.9384    -3.9897  C.ar    1  <O>11      -0.0494
  25 C17      10.4915    -3.2367    -3.0889  C.ar    1  <O>11      -0.0491
  26 H1        7.2710    -1.2390    -3.9420  H       1  <O>11       0.1494
  27 H2        6.5660    -0.9120    -1.1880  H       1  <O>11       0.0528
  28 H3        7.2450     0.6260    -1.7720  H       1  <O>11       0.0528
  29 H4        2.5804    -1.4227    -3.1591  H       1  <O>11       0.1921
  30 H5        3.0061     2.7062    -5.3850  H       1  <O>11       0.0625
  31 H6        4.7220     4.4048    -5.5143  H       1  <O>11       0.0618
  32 H7        6.8253     4.0942    -4.3470  H       1  <O>11       0.0618
  33 H8        7.2028     2.0852    -3.0489  H       1  <O>11       0.0624
  34 H9        9.1806    -1.0088    -5.2374  H       1  <O>11       0.0625
  35 H10      10.5836    -2.2399    -6.7888  H       1  <O>11       0.0623
  36 H11      11.8676    -4.7285    -3.6540  H       1  <O>11       0.0623
  37 H12      10.4749    -3.5054    -2.0926  H       1  <O>11       0.0625
@<TRIPOS>BOND
     1     1     2    2
     2     2     3   am
     3     3     4    1
     4     4     5    1
     5     5     6   ar
     6     6     7   ar
     7     7     8   ar
     8     8     9    2
     9     8    10   ar
    10    10    11   ar
    11    11    12   ar
    12    12    13   ar
    13    13    14   ar
    14    14    15   ar
    15     5    15   ar
    16    10    15   ar
    17     2    16    1
    18    16    17   ar
    19    17    18   ar
    20    18    19   ar
    21    19    20    1
    22    20    21    1
    23    20    22    1
    24    20    23    1
    25    19    24   ar
    26    24    25   ar
    27    16    25   ar
    28     3    26    1
    29     4    27    1
    30     4    28    1
    31     7    29    1
    32    11    30    1
    33    12    31    1
    34    13    32    1
    35    14    33    1
    36    17    34    1
    37    18    35    1
    38    24    36    1
    39    25    37    1
@<TRIPOS>MOLECULE
mol36_1_3
 37 39 0 0 0
SMALL
USER_CHARGES
****
VDW energy = -5.26
@<TRIPOS>ATOM
   1 O1        9.2535    -1.1831    -1.4851  O.2     1  <O>11      -0.2702
   2 C1        8.8535    -1.4341    -2.6122  C.2     1  <O>11       0.2444
   3 N1        7.6050    -1.0300    -3.0010  N.am    1  <O>11      -0.3057
   4 C2        6.7510    -0.2990    -2.0700  C.3     1  <O>11       0.0565
   5 C3        5.4670     0.0200    -2.7260  C.ar    1  <O>11       0.0863
   6 N2        4.3601    -0.4877    -2.1312  N.ar    1  <O>11      -0.1737
   7 N3        3.1566    -0.3293    -2.7288  N.ar    1  <O>11      -0.2424
   8 C4        3.0862     0.3434    -3.9013  C.ar    1  <O>11       0.2725
   9 O2        1.8222     0.3890    -4.5187  O.2     1  <O>11      -0.2658
  10 C5        4.1838     0.9727    -4.5065  C.ar    1  <O>11       0.0496
  11 C6        4.1054     1.7251    -5.7014  C.ar    1  <O>11      -0.0487
  12 C7        5.2417     2.3009    -6.2664  C.ar    1  <O>11      -0.0610
  13 C8        6.4802     2.1304    -5.6567  C.ar    1  <O>11      -0.0611
  14 C9        6.5786     1.3844    -4.4805  C.ar    1  <O>11      -0.0520
  15 C10       5.4355     0.8029    -3.8889  C.ar    1  <O>11       0.0118
  16 C11       9.7060    -2.1640    -3.5420  C.ar    1  <O>11       0.0367
  17 C12       9.7487    -1.8012    -4.8991  C.ar    1  <O>11      -0.0491
  18 C13      10.5581    -2.5099    -5.7930  C.ar    1  <O>11      -0.0494
  19 C14      11.3323    -3.5825    -5.3421  C.ar    1  <O>11       0.0549
  20 C15      12.1863    -4.3371    -6.2811  C.3     1  <O>11       0.4174
  21 F1       11.4651    -5.3868    -6.8165  F       1  <O>11      -0.1659
  22 F2       13.2865    -4.8299    -5.6077  F       1  <O>11      -0.1659
  23 F3       12.6046    -3.4997    -7.2968  F       1  <O>11      -0.1659
  24 C16      11.2949    -3.9384    -3.9897  C.ar    1  <O>11      -0.0494
  25 C17      10.4915    -3.2367    -3.0889  C.ar    1  <O>11      -0.0491
  26 H1        7.2710    -1.2390    -3.9420  H       1  <O>11       0.1494
  27 H2        6.5660    -0.9120    -1.1880  H       1  <O>11       0.0528
  28 H3        7.2450     0.6260    -1.7720  H       1  <O>11       0.0528
  29 H4        2.3215    -0.7073    -2.3043  H       1  <O>11       0.1921
  30 H5        3.1908     1.8499    -6.1630  H       1  <O>11       0.0625
  31 H6        5.1645     2.8526    -7.1352  H       1  <O>11       0.0618
  32 H7        7.3243     2.5541    -6.0728  H       1  <O>11       0.0618
  33 H8        7.5012     1.2560    -4.0363  H       1  <O>11       0.0624
  34 H9        9.1806    -1.0088    -5.2374  H       1  <O>11       0.0625
  35 H10      10.5836    -2.2399    -6.7888  H       1  <O>11       0.0623
  36 H11      11.8676    -4.7285    -3.6540  H       1  <O>11       0.0623
  37 H12      10.4749    -3.5054    -2.0926  H       1  <O>11       0.0625
@<TRIPOS>BOND
     1     1     2    2
     2     2     3   am
     3     3     4    1
     4     4     5    1
     5     5     6   ar
     6     6     7   ar
     7     7     8   ar
     8     8     9    2
     9     8    10   ar
    10    10    11   ar
    11    11    12   ar
    12    12    13   ar
    13    13    14   ar
    14    14    15   ar
    15     5    15   ar
    16    10    15   ar
    17     2    16    1
    18    16    17   ar
    19    17    18   ar
    20    18    19   ar
    21    19    20    1
    22    20    21    1
    23    20    22    1
    24    20    23    1
    25    19    24   ar
    26    24    25   ar
    27    16    25   ar
    28     3    26    1
    29     4    27    1
    30     4    28    1
    31     7    29    1
    32    11    30    1
    33    12    31    1
    34    13    32    1
    35    14    33    1
    36    17    34    1
    37    18    35    1
    38    24    36    1
    39    25    37    1
@<TRIPOS>MOLECULE
mol36_1_4
 37 39 0 0 0
SMALL
USER_CHARGES
****
VDW energy = -5.07
@<TRIPOS>ATOM
   1 O1        9.2535    -1.1831    -1.4851  O.2     1  <O>11      -0.2702
   2 C1        8.8535    -1.4341    -2.6122  C.2     1  <O>11       0.2444
   3 N1        7.6050    -1.0300    -3.0010  N.am    1  <O>11      -0.3057
   4 C2        6.7510    -0.2990    -2.0700  C.3     1  <O>11       0.0565
   5 C3        5.4670     0.0200    -2.7260  C.ar    1  <O>11       0.0863
   6 N2        4.3601    -0.4877    -2.1312  N.ar    1  <O>11      -0.1737
   7 N3        3.1566    -0.3293    -2.7288  N.ar    1  <O>11      -0.2424
   8 C4        3.0862     0.3434    -3.9013  C.ar    1  <O>11       0.2725
   9 O2        1.8222     0.3890    -4.5187  O.2     1  <O>11      -0.2658
  10 C5        4.1838     0.9727    -4.5065  C.ar    1  <O>11       0.0496
  11 C6        4.1054     1.7251    -5.7014  C.ar    1  <O>11      -0.0487
  12 C7        5.2417     2.3009    -6.2664  C.ar    1  <O>11      -0.0610
  13 C8        6.4802     2.1304    -5.6567  C.ar    1  <O>11      -0.0611
  14 C9        6.5786     1.3844    -4.4805  C.ar    1  <O>11      -0.0520
  15 C10       5.4355     0.8029    -3.8889  C.ar    1  <O>11       0.0118
  16 C11       9.7060    -2.1640    -3.5420  C.ar    1  <O>11       0.0367
  17 C12       9.7487    -1.8012    -4.8991  C.ar    1  <O>11      -0.0491
  18 C13      10.5581    -2.5099    -5.7930  C.ar    1  <O>11      -0.0494
  19 C14      11.3323    -3.5825    -5.3421  C.ar    1  <O>11       0.0549
  20 C15      12.1863    -4.3371    -6.2811  C.3     1  <O>11       0.4174
  21 F1       12.8469    -5.3397    -5.5977  F       1  <O>11      -0.1659
  22 F2       13.1091    -3.4828    -6.8516  F       1  <O>11      -0.1659
  23 F3       11.4007    -4.8944    -7.2710  F       1  <O>11      -0.1659
  24 C16      11.2949    -3.9384    -3.9897  C.ar    1  <O>11      -0.0494
  25 C17      10.4915    -3.2367    -3.0889  C.ar    1  <O>11      -0.0491
  26 H1        7.2710    -1.2390    -3.9420  H       1  <O>11       0.1494
  27 H2        6.5660    -0.9120    -1.1880  H       1  <O>11       0.0528
  28 H3        7.2450     0.6260    -1.7720  H       1  <O>11       0.0528
  29 H4        2.3215    -0.7073    -2.3043  H       1  <O>11       0.1921
  30 H5        3.1908     1.8499    -6.1630  H       1  <O>11       0.0625
  31 H6        5.1645     2.8526    -7.1352  H       1  <O>11       0.0618
  32 H7        7.3243     2.5541    -6.0728  H       1  <O>11       0.0618
  33 H8        7.5012     1.2560    -4.0363  H       1  <O>11       0.0624
  34 H9        9.1806    -1.0088    -5.2374  H       1  <O>11       0.0625
  35 H10      10.5836    -2.2399    -6.7888  H       1  <O>11       0.0623
  36 H11      11.8676    -4.7285    -3.6540  H       1  <O>11       0.0623
  37 H12      10.4749    -3.5054    -2.0926  H       1  <O>11       0.0625
@<TRIPOS>BOND
     1     1     2    2
     2     2     3   am
     3     3     4    1
     4     4     5    1
     5     5     6   ar
     6     6     7   ar
     7     7     8   ar
     8     8     9    2
     9     8    10   ar
    10    10    11   ar
    11    11    12   ar
    12    12    13   ar
    13    13    14   ar
    14    14    15   ar
    15     5    15   ar
    16    10    15   ar
    17     2    16    1
    18    16    17   ar
    19    17    18   ar
    20    18    19   ar
    21    19    20    1
    22    20    21    1
    23    20    22    1
    24    20    23    1
    25    19    24   ar
    26    24    25   ar
    27    16    25   ar
    28     3    26    1
    29     4    27    1
    30     4    28    1
    31     7    29    1
    32    11    30    1
    33    12    31    1
    34    13    32    1
    35    14    33    1
    36    17    34    1
    37    18    35    1
    38    24    36    1
    39    25    37    1
@<TRIPOS>MOLECULE
mol36_1_5
 37 39 0 0 0
SMALL
USER_CHARGES
****
VDW energy = -3.88
@<TRIPOS>ATOM
   1 O1        9.2535    -1.1831    -1.4851  O.2     1  <O>11      -0.2702
   2 C1        8.8535    -1.4341    -2.6122  C.2     1  <O>11       0.2444
   3 N1        7.6050    -1.0300    -3.0010  N.am    1  <O>11      -0.3057
   4 C2        6.7510    -0.2990    -2.0700  C.3     1  <O>11       0.0565
   5 C3        5.4670     0.0200    -2.7260  C.ar    1  <O>11       0.0863
   6 N2        5.1688     1.3383    -2.8262  N.ar    1  <O>11      -0.1737
   7 N3        3.9641     1.7082    -3.3185  N.ar    1  <O>11      -0.2424
   8 C4        3.0901     0.7518    -3.7102  C.ar    1  <O>11       0.2725
   9 O2        1.8202     1.1985    -4.1211  O.2     1  <O>11      -0.2658
  10 C5        3.3869    -0.6189    -3.7207  C.ar    1  <O>11       0.0496
  11 C6        2.4988    -1.6179    -4.1825  C.ar    1  <O>11      -0.0487
  12 C7        2.8455    -2.9670    -4.1379  C.ar    1  <O>11      -0.0610
  13 C8        4.0805    -3.3477    -3.6235  C.ar    1  <O>11      -0.0611
  14 C9        4.9675    -2.3761    -3.1558  C.ar    1  <O>11      -0.0520
  15 C10       4.6363    -1.0040    -3.2033  C.ar    1  <O>11       0.0118
  16 C11       9.7060    -2.1640    -3.5420  C.ar    1  <O>11       0.0367
  17 C12       9.7487    -1.8012    -4.8991  C.ar    1  <O>11      -0.0491
  18 C13      10.5581    -2.5099    -5.7930  C.ar    1  <O>11      -0.0494
  19 C14      11.3323    -3.5825    -5.3421  C.ar    1  <O>11       0.0549
  20 C15      12.1863    -4.3371    -6.2811  C.3     1  <O>11       0.4174
  21 F1       13.1102    -3.4824    -6.8508  F       1  <O>11      -0.1659
  22 F2       11.4011    -4.8934    -7.2714  F       1  <O>11      -0.1659
  23 F3       12.8462    -5.3401    -5.5982  F       1  <O>11      -0.1659
  24 C16      11.2949    -3.9384    -3.9897  C.ar    1  <O>11      -0.0494
  25 C17      10.4915    -3.2367    -3.0889  C.ar    1  <O>11      -0.0491
  26 H1        7.2710    -1.2390    -3.9420  H       1  <O>11       0.1494
  27 H2        6.5660    -0.9120    -1.1880  H       1  <O>11       0.0528
  28 H3        7.2450     0.6260    -1.7720  H       1  <O>11       0.0528
  29 H4        3.7210     2.6859    -3.3936  H       1  <O>11       0.1921
  30 H5        1.5780    -1.3432    -4.5591  H       1  <O>11       0.0625
  31 H6        2.1875    -3.6819    -4.4858  H       1  <O>11       0.0618
  32 H7        4.3404    -4.3458    -3.5876  H       1  <O>11       0.0618
  33 H8        5.8797    -2.6652    -2.7693  H       1  <O>11       0.0624
  34 H9        9.1806    -1.0088    -5.2374  H       1  <O>11       0.0625
  35 H10      10.5836    -2.2399    -6.7888  H       1  <O>11       0.0623
  36 H11      11.8676    -4.7285    -3.6540  H       1  <O>11       0.0623
  37 H12      10.4749    -3.5054    -2.0926  H       1  <O>11       0.0625
@<TRIPOS>BOND
     1     1     2    2
     2     2     3   am
     3     3     4    1
     4     4     5    1
     5     5     6   ar
     6     6     7   ar
     7     7     8   ar
     8     8     9    2
     9     8    10   ar
    10    10    11   ar
    11    11    12   ar
    12    12    13   ar
    13    13    14   ar
    14    14    15   ar
    15     5    15   ar
    16    10    15   ar
    17     2    16    1
    18    16    17   ar
    19    17    18   ar
    20    18    19   ar
    21    19    20    1
    22    20    21    1
    23    20    22    1
    24    20    23    1
    25    19    24   ar
    26    24    25   ar
    27    16    25   ar
    28     3    26    1
    29     4    27    1
    30     4    28    1
    31     7    29    1
    32    11    30    1
    33    12    31    1
    34    13    32    1
    35    14    33    1
    36    17    34    1
    37    18    35    1
    38    24    36    1
    39    25    37    1
@<TRIPOS>MOLECULE
mol36_1_6
 37 39 0 0 0
SMALL
USER_CHARGES
****
VDW energy = -3.88
@<TRIPOS>ATOM
   1 O1        9.2535    -1.1831    -1.4851  O.2     1  <O>11      -0.2702
   2 C1        8.8535    -1.4341    -2.6122  C.2     1  <O>11       0.2444
   3 N1        7.6050    -1.0300    -3.0010  N.am    1  <O>11      -0.3057
   4 C2        6.7510    -0.2990    -2.0700  C.3     1  <O>11       0.0565
   5 C3        5.4670     0.0200    -2.7260  C.ar    1  <O>11       0.0863
   6 N2        5.1688     1.3383    -2.8262  N.ar    1  <O>11      -0.1737
   7 N3        3.9641     1.7082    -3.3185  N.ar    1  <O>11      -0.2424
   8 C4        3.0901     0.7518    -3.7102  C.ar    1  <O>11       0.2725
   9 O2        1.8202     1.1985    -4.1211  O.2     1  <O>11      -0.2658
  10 C5        3.3869    -0.6189    -3.7207  C.ar    1  <O>11       0.0496
  11 C6        2.4988    -1.6179    -4.1825  C.ar    1  <O>11      -0.0487
  12 C7        2.8455    -2.9670    -4.1379  C.ar    1  <O>11      -0.0610
  13 C8        4.0805    -3.3477    -3.6235  C.ar    1  <O>11      -0.0611
  14 C9        4.9675    -2.3761    -3.1558  C.ar    1  <O>11      -0.0520
  15 C10       4.6363    -1.0040    -3.2033  C.ar    1  <O>11       0.0118
  16 C11       9.7060    -2.1640    -3.5420  C.ar    1  <O>11       0.0367
  17 C12       9.7487    -1.8012    -4.8991  C.ar    1  <O>11      -0.0491
  18 C13      10.5581    -2.5099    -5.7930  C.ar    1  <O>11      -0.0494
  19 C14      11.3323    -3.5825    -5.3421  C.ar    1  <O>11       0.0549
  20 C15      12.1863    -4.3371    -6.2811  C.3     1  <O>11       0.4174
  21 F1       12.8469    -5.3397    -5.5977  F       1  <O>11      -0.1659
  22 F2       13.1091    -3.4828    -6.8516  F       1  <O>11      -0.1659
  23 F3       11.4007    -4.8944    -7.2710  F       1  <O>11      -0.1659
  24 C16      11.2949    -3.9384    -3.9897  C.ar    1  <O>11      -0.0494
  25 C17      10.4915    -3.2367    -3.0889  C.ar    1  <O>11      -0.0491
  26 H1        7.2710    -1.2390    -3.9420  H       1  <O>11       0.1494
  27 H2        6.5660    -0.9120    -1.1880  H       1  <O>11       0.0528
  28 H3        7.2450     0.6260    -1.7720  H       1  <O>11       0.0528
  29 H4        3.7210     2.6859    -3.3936  H       1  <O>11       0.1921
  30 H5        1.5780    -1.3432    -4.5591  H       1  <O>11       0.0625
  31 H6        2.1875    -3.6819    -4.4858  H       1  <O>11       0.0618
  32 H7        4.3404    -4.3458    -3.5876  H       1  <O>11       0.0618
  33 H8        5.8797    -2.6652    -2.7693  H       1  <O>11       0.0624
  34 H9        9.1806    -1.0088    -5.2374  H       1  <O>11       0.0625
  35 H10      10.5836    -2.2399    -6.7888  H       1  <O>11       0.0623
  36 H11      11.8676    -4.7285    -3.6540  H       1  <O>11       0.0623
  37 H12      10.4749    -3.5054    -2.0926  H       1  <O>11       0.0625
@<TRIPOS>BOND
     1     1     2    2
     2     2     3   am
     3     3     4    1
     4     4     5    1
     5     5     6   ar
     6     6     7   ar
     7     7     8   ar
     8     8     9    2
     9     8    10   ar
    10    10    11   ar
    11    11    12   ar
    12    12    13   ar
    13    13    14   ar
    14    14    15   ar
    15     5    15   ar
    16    10    15   ar
    17     2    16    1
    18    16    17   ar
    19    17    18   ar
    20    18    19   ar
    21    19    20    1
    22    20    21    1
    23    20    22    1
    24    20    23    1
    25    19    24   ar
    26    24    25   ar
    27    16    25   ar
    28     3    26    1
    29     4    27    1
    30     4    28    1
    31     7    29    1
    32    11    30    1
    33    12    31    1
    34    13    32    1
    35    14    33    1
    36    17    34    1
    37    18    35    1
    38    24    36    1
    39    25    37    1
@<TRIPOS>MOLECULE
mol36_1_7
 37 39 0 0 0
SMALL
USER_CHARGES
****
VDW energy = -3.31
@<TRIPOS>ATOM
   1 O1        9.2535    -1.1831    -1.4851  O.2     1  <O>11      -0.2702
   2 C1        8.8535    -1.4341    -2.6122  C.2     1  <O>11       0.2444
   3 N1        7.6050    -1.0300    -3.0010  N.am    1  <O>11      -0.3057
   4 C2        7.1265    -1.3297    -4.3470  C.3     1  <O>11       0.0565
   5 C3        5.7617    -0.7914    -4.5158  C.ar    1  <O>11       0.0863
   6 N2        5.2436    -0.1526    -3.4387  N.ar    1  <O>11      -0.1737
   7 N3        3.9608     0.2756    -3.4776  N.ar    1  <O>11      -0.2424
   8 C4        3.2294     0.0658    -4.5972  C.ar    1  <O>11       0.2725
   9 O2        1.8760     0.4475    -4.5381  O.2     1  <O>11      -0.2658
  10 C5        3.7466    -0.4992    -5.7720  C.ar    1  <O>11       0.0496
  11 C6        3.0031    -0.6685    -6.9631  C.ar    1  <O>11      -0.0487
  12 C7        3.5699    -1.2652    -8.0878  C.ar    1  <O>11      -0.0610
  13 C8        4.8859    -1.7135    -8.0446  C.ar    1  <O>11      -0.0611
  14 C9        5.6333    -1.5618    -6.8749  C.ar    1  <O>11      -0.0520
  15 C10       5.0777    -0.9500    -5.7296  C.ar    1  <O>11       0.0118
  16 C11       9.7060    -2.1640    -3.5420  C.ar    1  <O>11       0.0367
  17 C12      10.5841    -1.4707    -4.3926  C.ar    1  <O>11      -0.0491
  18 C13      11.3932    -2.1715    -5.2930  C.ar    1  <O>11      -0.0494
  19 C14      11.3360    -3.5667    -5.3512  C.ar    1  <O>11       0.0549
  20 C15      12.1849    -4.3124    -6.3018  C.3     1  <O>11       0.4174
  21 F1       11.9470    -5.6665    -6.1662  F       1  <O>11      -0.1659
  22 F2       13.5141    -4.0490    -6.0358  F       1  <O>11      -0.1659
  23 F3       11.8862    -3.9188    -7.5916  F       1  <O>11      -0.1659
  24 C16      10.4670    -4.2564    -4.4991  C.ar    1  <O>11      -0.0494
  25 C17       9.6562    -3.5667    -3.5957  C.ar    1  <O>11      -0.0491
  26 H1        7.0080    -0.5197    -2.3499  H       1  <O>11       0.1494
  27 H2        7.7909    -0.8719    -5.0797  H       1  <O>11       0.0528
  28 H3        7.1108    -2.4095    -4.4960  H       1  <O>11       0.0528
  29 H4        3.5548     0.7469    -2.6816  H       1  <O>11       0.1921
  30 H5        2.0240    -0.3446    -7.0001  H       1  <O>11       0.0625
  31 H6        3.0145    -1.3741    -8.9508  H       1  <O>11       0.0618
  32 H7        5.3088    -2.1570    -8.8749  H       1  <O>11       0.0618
  33 H8        6.6071    -1.9023    -6.8468  H       1  <O>11       0.0624
  34 H9       10.6321    -0.4406    -4.3527  H       1  <O>11       0.0625
  35 H10      12.0346    -1.6565    -5.9164  H       1  <O>11       0.0623
  36 H11      10.4247    -5.2868    -4.5387  H       1  <O>11       0.0623
  37 H12       9.0218    -4.0862    -2.9690  H       1  <O>11       0.0625
@<TRIPOS>BOND
     1     1     2    2
     2     2     3   am
     3     3     4    1
     4     4     5    1
     5     5     6   ar
     6     6     7   ar
     7     7     8   ar
     8     8     9    2
     9     8    10   ar
    10    10    11   ar
    11    11    12   ar
    12    12    13   ar
    13    13    14   ar
    14    14    15   ar
    15     5    15   ar
    16    10    15   ar
    17     2    16    1
    18    16    17   ar
    19    17    18   ar
    20    18    19   ar
    21    19    20    1
    22    20    21    1
    23    20    22    1
    24    20    23    1
    25    19    24   ar
    26    24    25   ar
    27    16    25   ar
    28     3    26    1
    29     4    27    1
    30     4    28    1
    31     7    29    1
    32    11    30    1
    33    12    31    1
    34    13    32    1
    35    14    33    1
    36    17    34    1
    37    18    35    1
    38    24    36    1
    39    25    37    1
@<TRIPOS>MOLECULE
mol36_1_8
 37 39 0 0 0
SMALL
USER_CHARGES
****
VDW energy = -3.13
@<TRIPOS>ATOM
   1 O1        9.2535    -1.1831    -1.4851  O.2     1  <O>11      -0.2702
   2 C1        8.8535    -1.4341    -2.6122  C.2     1  <O>11       0.2444
   3 N1        7.6050    -1.0300    -3.0010  N.am    1  <O>11      -0.3057
   4 C2        6.7510    -0.2990    -2.0700  C.3     1  <O>11       0.0565
   5 C3        5.4670     0.0200    -2.7260  C.ar    1  <O>11       0.0863
   6 N2        5.3370    -0.4090    -4.0050  N.ar    1  <O>11      -0.1737
   7 N3        4.2340    -0.0650    -4.7090  N.ar    1  <O>11      -0.2424
   8 C4        3.2810     0.6900    -4.1140  C.ar    1  <O>11       0.2725
   9 O2        2.2070     1.0940    -4.9290  O.2     1  <O>11      -0.2658
  10 C5        3.3200     1.0750    -2.7660  C.ar    1  <O>11       0.0496
  11 C6        2.3000     1.8150    -2.1240  C.ar    1  <O>11      -0.0487
  12 C7        2.4150     2.1910    -0.7870  C.ar    1  <O>11      -0.0610
  13 C8        3.5530     1.8450    -0.0660  C.ar    1  <O>11      -0.0611
  14 C9        4.5740     1.1210    -0.6850  C.ar    1  <O>11      -0.0520
  15 C10       4.4690     0.7230    -2.0360  C.ar    1  <O>11       0.0118
  16 C11       9.7060    -2.1640    -3.5420  C.ar    1  <O>11       0.0367
  17 C12      10.5841    -1.4707    -4.3926  C.ar    1  <O>11      -0.0491
  18 C13      11.3932    -2.1715    -5.2930  C.ar    1  <O>11      -0.0494
  19 C14      11.3360    -3.5667    -5.3512  C.ar    1  <O>11       0.0549
  20 C15      12.1849    -4.3124    -6.3018  C.3     1  <O>11       0.4174
  21 F1       11.9470    -5.6665    -6.1662  F       1  <O>11      -0.1659
  22 F2       13.5141    -4.0490    -6.0358  F       1  <O>11      -0.1659
  23 F3       11.8862    -3.9188    -7.5916  F       1  <O>11      -0.1659
  24 C16      10.4670    -4.2564    -4.4991  C.ar    1  <O>11      -0.0494
  25 C17       9.6562    -3.5667    -3.5957  C.ar    1  <O>11      -0.0491
  26 H1        7.2710    -1.2390    -3.9420  H       1  <O>11       0.1494
  27 H2        6.5660    -0.9120    -1.1880  H       1  <O>11       0.0528
  28 H3        7.2450     0.6260    -1.7720  H       1  <O>11       0.0528
  29 H4        4.1230    -0.3690    -5.6660  H       1  <O>11       0.1921
  30 H5        1.4559     2.0812    -2.6548  H       1  <O>11       0.0625
  31 H6        1.6575     2.7249    -0.3329  H       1  <O>11       0.0618
  32 H7        3.6425     2.1227     0.9239  H       1  <O>11       0.0618
  33 H8        5.4188     0.8728    -0.1467  H       1  <O>11       0.0624
  34 H9       10.6321    -0.4406    -4.3527  H       1  <O>11       0.0625
  35 H10      12.0346    -1.6565    -5.9164  H       1  <O>11       0.0623
  36 H11      10.4247    -5.2868    -4.5387  H       1  <O>11       0.0623
  37 H12       9.0218    -4.0862    -2.9690  H       1  <O>11       0.0625
@<TRIPOS>BOND
     1     1     2    2
     2     2     3   am
     3     3     4    1
     4     4     5    1
     5     5     6   ar
     6     6     7   ar
     7     7     8   ar
     8     8     9    2
     9     8    10   ar
    10    10    11   ar
    11    11    12   ar
    12    12    13   ar
    13    13    14   ar
    14    14    15   ar
    15     5    15   ar
    16    10    15   ar
    17     2    16    1
    18    16    17   ar
    19    17    18   ar
    20    18    19   ar
    21    19    20    1
    22    20    21    1
    23    20    22    1
    24    20    23    1
    25    19    24   ar
    26    24    25   ar
    27    16    25   ar
    28     3    26    1
    29     4    27    1
    30     4    28    1
    31     7    29    1
    32    11    30    1
    33    12    31    1
    34    13    32    1
    35    14    33    1
    36    17    34    1
    37    18    35    1
    38    24    36    1
    39    25    37    1
@<TRIPOS>MOLECULE
mol36_1_9
 37 39 0 0 0
SMALL
USER_CHARGES
****
VDW energy = -1.73
@<TRIPOS>ATOM
   1 O1        9.2535    -1.1831    -1.4851  O.2     1  <O>11      -0.2702
   2 C1        8.8535    -1.4341    -2.6122  C.2     1  <O>11       0.2444
   3 N1        7.6050    -1.0300    -3.0010  N.am    1  <O>11      -0.3057
   4 C2        6.7510    -0.2990    -2.0700  C.3     1  <O>11       0.0565
   5 C3        5.4670     0.0200    -2.7260  C.ar    1  <O>11       0.0863
   6 N2        5.4222     1.2014    -3.3887  N.ar    1  <O>11      -0.1737
   7 N3        4.2511     1.6143    -3.9258  N.ar    1  <O>11      -0.2424
   8 C4        3.1547     0.8308    -3.7982  C.ar    1  <O>11       0.2725
   9 O2        1.9486     1.3612    -4.2934  O.2     1  <O>11      -0.2658
  10 C5        3.1702    -0.4425    -3.2107  C.ar    1  <O>11       0.0496
  11 C6        2.0406    -1.2892    -3.1258  C.ar    1  <O>11      -0.0487
  12 C7        2.1174    -2.5329    -2.5016  C.ar    1  <O>11      -0.0610
  13 C8        3.3191    -2.9534    -1.9416  C.ar    1  <O>11      -0.0611
  14 C9        4.4433    -2.1279    -2.0090  C.ar    1  <O>11      -0.0520
  15 C10       4.3856    -0.8691    -2.6469  C.ar    1  <O>11       0.0118
  16 C11       9.7060    -2.1640    -3.5420  C.ar    1  <O>11       0.0367
  17 C12      10.9890    -2.5820    -3.1490  C.ar    1  <O>11      -0.0491
  18 C13      11.8110    -3.2720    -4.0460  C.ar    1  <O>11      -0.0494
  19 C14      11.3610    -3.5530    -5.3390  C.ar    1  <O>11       0.0549
  20 C15      12.2250    -4.2780    -6.2920  C.3     1  <O>11       0.4174
  21 F1       11.5580    -4.4320    -7.4920  F       1  <O>11      -0.1659
  22 F2       12.5380    -5.5200    -5.7760  F       1  <O>11      -0.1659
  23 F3       13.3860    -3.5590    -6.4990  F       1  <O>11      -0.1659
  24 C16      10.0810    -3.1430    -5.7270  C.ar    1  <O>11      -0.0494
  25 C17       9.2520    -2.4550    -4.8390  C.ar    1  <O>11      -0.0491
  26 H1        7.2710    -1.2390    -3.9420  H       1  <O>11       0.1494
  27 H2        6.5660    -0.9120    -1.1880  H       1  <O>11       0.0528
  28 H3        7.2450     0.6260    -1.7720  H       1  <O>11       0.0528
  29 H4        4.1965     2.4955    -4.4168  H       1  <O>11       0.1921
  30 H5        1.1438    -0.9808    -3.5330  H       1  <O>11       0.0625
  31 H6        1.2845    -3.1406    -2.4551  H       1  <O>11       0.0618
  32 H7        3.3797    -3.8731    -1.4774  H       1  <O>11       0.0618
  33 H8        5.3305    -2.4425    -1.5860  H       1  <O>11       0.0624
  34 H9       11.3259    -2.3790    -2.1949  H       1  <O>11       0.0625
  35 H10      12.7529    -3.5746    -3.7521  H       1  <O>11       0.0623
  36 H11       9.7457    -3.3515    -6.6805  H       1  <O>11       0.0623
  37 H12       8.3080    -2.1610    -5.1348  H       1  <O>11       0.0625
@<TRIPOS>BOND
     1     1     2    2
     2     2     3   am
     3     3     4    1
     4     4     5    1
     5     5     6   ar
     6     6     7   ar
     7     7     8   ar
     8     8     9    2
     9     8    10   ar
    10    10    11   ar
    11    11    12   ar
    12    12    13   ar
    13    13    14   ar
    14    14    15   ar
    15     5    15   ar
    16    10    15   ar
    17     2    16    1
    18    16    17   ar
    19    17    18   ar
    20    18    19   ar
    21    19    20    1
    22    20    21    1
    23    20    22    1
    24    20    23    1
    25    19    24   ar
    26    24    25   ar
    27    16    25   ar
    28     3    26    1
    29     4    27    1
    30     4    28    1
    31     7    29    1
    32    11    30    1
    33    12    31    1
    34    13    32    1
    35    14    33    1
    36    17    34    1
    37    18    35    1
    38    24    36    1
    39    25    37    1
@<TRIPOS>MOLECULE
mol36_1_10
 37 39 0 0 0
SMALL
USER_CHARGES
****
VDW energy = -1.38
@<TRIPOS>ATOM
   1 O1        9.2535    -1.1831    -1.4851  O.2     1  <O>11      -0.2702
   2 C1        8.8535    -1.4341    -2.6122  C.2     1  <O>11       0.2444
   3 N1        7.6050    -1.0300    -3.0010  N.am    1  <O>11      -0.3057
   4 C2        6.7510    -0.2990    -2.0700  C.3     1  <O>11       0.0565
   5 C3        5.4670     0.0200    -2.7260  C.ar    1  <O>11       0.0863
   6 N2        4.4884    -0.9071    -2.5862  N.ar    1  <O>11      -0.1737
   7 N3        3.3187    -0.7385    -3.2449  N.ar    1  <O>11      -0.2424
   8 C4        3.1502     0.3592    -4.0188  C.ar    1  <O>11       0.2725
   9 O2        1.9510     0.4265    -4.7525  O.2     1  <O>11      -0.2658
  10 C5        4.0903     1.3952    -4.1181  C.ar    1  <O>11       0.0496
  11 C6        3.8957     2.5709    -4.8796  C.ar    1  <O>11      -0.0487
  12 C7        4.8843     3.5499    -4.9594  C.ar    1  <O>11      -0.0610
  13 C8        6.0902     3.3722    -4.2894  C.ar    1  <O>11      -0.0611
  14 C9        6.3035     2.2144    -3.5386  C.ar    1  <O>11      -0.0520
  15 C10       5.3084     1.2172    -3.4386  C.ar    1  <O>11       0.0118
  16 C11       9.7060    -2.1640    -3.5420  C.ar    1  <O>11       0.0367
  17 C12      10.9890    -2.5820    -3.1490  C.ar    1  <O>11      -0.0491
  18 C13      11.8110    -3.2720    -4.0460  C.ar    1  <O>11      -0.0494
  19 C14      11.3610    -3.5530    -5.3390  C.ar    1  <O>11       0.0549
  20 C15      12.2250    -4.2780    -6.2920  C.3     1  <O>11       0.4174
  21 F1       11.5580    -4.4320    -7.4920  F       1  <O>11      -0.1659
  22 F2       12.5380    -5.5200    -5.7760  F       1  <O>11      -0.1659
  23 F3       13.3860    -3.5590    -6.4990  F       1  <O>11      -0.1659
  24 C16      10.0810    -3.1430    -5.7270  C.ar    1  <O>11      -0.0494
  25 C17       9.2520    -2.4550    -4.8390  C.ar    1  <O>11      -0.0491
  26 H1        7.2710    -1.2390    -3.9420  H       1  <O>11       0.1494
  27 H2        6.5660    -0.9120    -1.1880  H       1  <O>11       0.0528
  28 H3        7.2450     0.6260    -1.7720  H       1  <O>11       0.0528
  29 H4        2.5804    -1.4227    -3.1591  H       1  <O>11       0.1921
  30 H5        3.0061     2.7062    -5.3850  H       1  <O>11       0.0625
  31 H6        4.7220     4.4048    -5.5143  H       1  <O>11       0.0618
  32 H7        6.8253     4.0942    -4.3470  H       1  <O>11       0.0618
  33 H8        7.2028     2.0852    -3.0489  H       1  <O>11       0.0624
  34 H9       11.3259    -2.3790    -2.1949  H       1  <O>11       0.0625
  35 H10      12.7529    -3.5746    -3.7521  H       1  <O>11       0.0623
  36 H11       9.7457    -3.3515    -6.6805  H       1  <O>11       0.0623
  37 H12       8.3080    -2.1610    -5.1348  H       1  <O>11       0.0625
@<TRIPOS>BOND
     1     1     2    2
     2     2     3   am
     3     3     4    1
     4     4     5    1
     5     5     6   ar
     6     6     7   ar
     7     7     8   ar
     8     8     9    2
     9     8    10   ar
    10    10    11   ar
    11    11    12   ar
    12    12    13   ar
    13    13    14   ar
    14    14    15   ar
    15     5    15   ar
    16    10    15   ar
    17     2    16    1
    18    16    17   ar
    19    17    18   ar
    20    18    19   ar
    21    19    20    1
    22    20    21    1
    23    20    22    1
    24    20    23    1
    25    19    24   ar
    26    24    25   ar
    27    16    25   ar
    28     3    26    1
    29     4    27    1
    30     4    28    1
    31     7    29    1
    32    11    30    1
    33    12    31    1
    34    13    32    1
    35    14    33    1
    36    17    34    1
    37    18    35    1
    38    24    36    1
    39    25    37    1
@<TRIPOS>MOLECULE
mol36_1_11
 37 39 0 0 0
SMALL
USER_CHARGES
****
VDW energy = -1.25
@<TRIPOS>ATOM
   1 O1        9.2535    -1.1831    -1.4851  O.2     1  <O>11      -0.2702
   2 C1        8.8535    -1.4341    -2.6122  C.2     1  <O>11       0.2444
   3 N1        7.6050    -1.0300    -3.0010  N.am    1  <O>11      -0.3057
   4 C2        6.7510    -0.2990    -2.0700  C.3     1  <O>11       0.0565
   5 C3        7.4212     0.9535    -1.6664  C.ar    1  <O>11       0.0863
   6 N2        7.6657     1.0893    -0.3403  N.ar    1  <O>11      -0.1737
   7 N3        8.1800     2.2523     0.1216  N.ar    1  <O>11      -0.2424
   8 C4        8.4491     3.2483    -0.7546  C.ar    1  <O>11       0.2725
   9 O2        8.8904     4.4642    -0.1998  O.2     1  <O>11      -0.2658
  10 C5        8.3085     3.1234    -2.1444  C.ar    1  <O>11       0.0496
  11 C6        8.6422     4.1405    -3.0687  C.ar    1  <O>11      -0.0487
  12 C7        8.4501     3.9620    -4.4374  C.ar    1  <O>11      -0.0610
  13 C8        7.9129     2.7697    -4.9113  C.ar    1  <O>11      -0.0611
  14 C9        7.5704     1.7568    -4.0133  C.ar    1  <O>11      -0.0520
  15 C10       7.7682     1.9172    -2.6241  C.ar    1  <O>11       0.0118
  16 C11       9.7060    -2.1640    -3.5420  C.ar    1  <O>11       0.0367
  17 C12      10.9890    -2.5820    -3.1490  C.ar    1  <O>11      -0.0491
  18 C13      11.8110    -3.2720    -4.0460  C.ar    1  <O>11      -0.0494
  19 C14      11.3610    -3.5530    -5.3390  C.ar    1  <O>11       0.0549
  20 C15      12.2250    -4.2780    -6.2920  C.3     1  <O>11       0.4174
  21 F1       12.0035    -5.6363    -6.1719  F       1  <O>11      -0.1659
  22 F2       13.5491    -4.0007    -6.0151  F       1  <O>11      -0.1659
  23 F3       11.9292    -3.8749    -7.5795  F       1  <O>11      -0.1659
  24 C16      10.0810    -3.1430    -5.7270  C.ar    1  <O>11      -0.0494
  25 C17       9.2520    -2.4550    -4.8390  C.ar    1  <O>11      -0.0491
  26 H1        7.2710    -1.2390    -3.9420  H       1  <O>11       0.1494
  27 H2        5.8029    -0.0643    -2.5536  H       1  <O>11       0.0528
  28 H3        6.5663    -0.9115    -1.1873  H       1  <O>11       0.0528
  29 H4        8.3619     2.3748     1.1078  H       1  <O>11       0.1921
  30 H5        9.0347     5.0305    -2.7236  H       1  <O>11       0.0625
  31 H6        8.7058     4.7126    -5.0978  H       1  <O>11       0.0618
  32 H7        7.7679     2.6341    -5.9240  H       1  <O>11       0.0618
  33 H8        7.1662     0.8769    -4.3704  H       1  <O>11       0.0624
  34 H9       11.3259    -2.3790    -2.1949  H       1  <O>11       0.0625
  35 H10      12.7529    -3.5746    -3.7521  H       1  <O>11       0.0623
  36 H11       9.7457    -3.3515    -6.6805  H       1  <O>11       0.0623
  37 H12       8.3080    -2.1610    -5.1348  H       1  <O>11       0.0625
@<TRIPOS>BOND
     1     1     2    2
     2     2     3   am
     3     3     4    1
     4     4     5    1
     5     5     6   ar
     6     6     7   ar
     7     7     8   ar
     8     8     9    2
     9     8    10   ar
    10    10    11   ar
    11    11    12   ar
    12    12    13   ar
    13    13    14   ar
    14    14    15   ar
    15     5    15   ar
    16    10    15   ar
    17     2    16    1
    18    16    17   ar
    19    17    18   ar
    20    18    19   ar
    21    19    20    1
    22    20    21    1
    23    20    22    1
    24    20    23    1
    25    19    24   ar
    26    24    25   ar
    27    16    25   ar
    28     3    26    1
    29     4    27    1
    30     4    28    1
    31     7    29    1
    32    11    30    1
    33    12    31    1
    34    13    32    1
    35    14    33    1
    36    17    34    1
    37    18    35    1
    38    24    36    1
    39    25    37    1
@<TRIPOS>MOLECULE
mol36_1_12
 37 39 0 0 0
SMALL
USER_CHARGES
****
VDW energy = -1.05
@<TRIPOS>ATOM
   1 O1        9.2535    -1.1831    -1.4851  O.2     1  <O>11      -0.2702
   2 C1        8.8535    -1.4341    -2.6122  C.2     1  <O>11       0.2444
   3 N1        7.6050    -1.0300    -3.0010  N.am    1  <O>11      -0.3057
   4 C2        6.7510    -0.2990    -2.0700  C.3     1  <O>11       0.0565
   5 C3        7.4212     0.9535    -1.6664  C.ar    1  <O>11       0.0863
   6 N2        7.6657     1.0893    -0.3403  N.ar    1  <O>11      -0.1737
   7 N3        8.1800     2.2523     0.1216  N.ar    1  <O>11      -0.2424
   8 C4        8.4491     3.2483    -0.7546  C.ar    1  <O>11       0.2725
   9 O2        8.8904     4.4642    -0.1998  O.2     1  <O>11      -0.2658
  10 C5        8.3085     3.1234    -2.1444  C.ar    1  <O>11       0.0496
  11 C6        8.6422     4.1405    -3.0687  C.ar    1  <O>11      -0.0487
  12 C7        8.4501     3.9620    -4.4374  C.ar    1  <O>11      -0.0610
  13 C8        7.9129     2.7697    -4.9113  C.ar    1  <O>11      -0.0611
  14 C9        7.5704     1.7568    -4.0133  C.ar    1  <O>11      -0.0520
  15 C10       7.7682     1.9172    -2.6241  C.ar    1  <O>11       0.0118
  16 C11       9.7060    -2.1640    -3.5420  C.ar    1  <O>11       0.0367
  17 C12      10.9890    -2.5820    -3.1490  C.ar    1  <O>11      -0.0491
  18 C13      11.8110    -3.2720    -4.0460  C.ar    1  <O>11      -0.0494
  19 C14      11.3610    -3.5530    -5.3390  C.ar    1  <O>11       0.0549
  20 C15      12.2250    -4.2780    -6.2920  C.3     1  <O>11       0.4174
  21 F1       13.3867    -3.5593    -6.4980  F       1  <O>11      -0.1659
  22 F2       11.5590    -4.4312    -7.4919  F       1  <O>11      -0.1659
  23 F3       12.5372    -5.5207    -5.7762  F       1  <O>11      -0.1659
  24 C16      10.0810    -3.1430    -5.7270  C.ar    1  <O>11      -0.0494
  25 C17       9.2520    -2.4550    -4.8390  C.ar    1  <O>11      -0.0491
  26 H1        7.2710    -1.2390    -3.9420  H       1  <O>11       0.1494
  27 H2        5.8029    -0.0643    -2.5536  H       1  <O>11       0.0528
  28 H3        6.5663    -0.9115    -1.1873  H       1  <O>11       0.0528
  29 H4        8.3619     2.3748     1.1078  H       1  <O>11       0.1921
  30 H5        9.0347     5.0305    -2.7236  H       1  <O>11       0.0625
  31 H6        8.7058     4.7126    -5.0978  H       1  <O>11       0.0618
  32 H7        7.7679     2.6341    -5.9240  H       1  <O>11       0.0618
  33 H8        7.1662     0.8769    -4.3704  H       1  <O>11       0.0624
  34 H9       11.3259    -2.3790    -2.1949  H       1  <O>11       0.0625
  35 H10      12.7529    -3.5746    -3.7521  H       1  <O>11       0.0623
  36 H11       9.7457    -3.3515    -6.6805  H       1  <O>11       0.0623
  37 H12       8.3080    -2.1610    -5.1348  H       1  <O>11       0.0625
@<TRIPOS>BOND
     1     1     2    2
     2     2     3   am
     3     3     4    1
     4     4     5    1
     5     5     6   ar
     6     6     7   ar
     7     7     8   ar
     8     8     9    2
     9     8    10   ar
    10    10    11   ar
    11    11    12   ar
    12    12    13   ar
    13    13    14   ar
    14    14    15   ar
    15     5    15   ar
    16    10    15   ar
    17     2    16    1
    18    16    17   ar
    19    17    18   ar
    20    18    19   ar
    21    19    20    1
    22    20    21    1
    23    20    22    1
    24    20    23    1
    25    19    24   ar
    26    24    25   ar
    27    16    25   ar
    28     3    26    1
    29     4    27    1
    30     4    28    1
    31     7    29    1
    32    11    30    1
    33    12    31    1
    34    13    32    1
    35    14    33    1
    36    17    34    1
    37    18    35    1
    38    24    36    1
    39    25    37    1
@<TRIPOS>MOLECULE
mol36_1_13
 37 39 0 0 0
SMALL
USER_CHARGES
****
VDW energy = -0.65
@<TRIPOS>ATOM
   1 O1        9.2535    -1.1831    -1.4851  O.2     1  <O>11      -0.2702
   2 C1        8.8535    -1.4341    -2.6122  C.2     1  <O>11       0.2444
   3 N1        7.6050    -1.0300    -3.0010  N.am    1  <O>11      -0.3057
   4 C2        6.7510    -0.2990    -2.0700  C.3     1  <O>11       0.0565
   5 C3        5.4670     0.0200    -2.7260  C.ar    1  <O>11       0.0863
   6 N2        4.3601    -0.4877    -2.1312  N.ar    1  <O>11      -0.1737
   7 N3        3.1566    -0.3293    -2.7288  N.ar    1  <O>11      -0.2424
   8 C4        3.0862     0.3434    -3.9013  C.ar    1  <O>11       0.2725
   9 O2        1.8222     0.3890    -4.5187  O.2     1  <O>11      -0.2658
  10 C5        4.1838     0.9727    -4.5065  C.ar    1  <O>11       0.0496
  11 C6        4.1054     1.7251    -5.7014  C.ar    1  <O>11      -0.0487
  12 C7        5.2417     2.3009    -6.2664  C.ar    1  <O>11      -0.0610
  13 C8        6.4802     2.1304    -5.6567  C.ar    1  <O>11      -0.0611
  14 C9        6.5786     1.3844    -4.4805  C.ar    1  <O>11      -0.0520
  15 C10       5.4355     0.8029    -3.8889  C.ar    1  <O>11       0.0118
  16 C11       9.7060    -2.1640    -3.5420  C.ar    1  <O>11       0.0367
  17 C12      10.9890    -2.5820    -3.1490  C.ar    1  <O>11      -0.0491
  18 C13      11.8110    -3.2720    -4.0460  C.ar    1  <O>11      -0.0494
  19 C14      11.3610    -3.5530    -5.3390  C.ar    1  <O>11       0.0549
  20 C15      12.2250    -4.2780    -6.2920  C.3     1  <O>11       0.4174
  21 F1       11.5580    -4.4320    -7.4920  F       1  <O>11      -0.1659
  22 F2       12.5380    -5.5200    -5.7760  F       1  <O>11      -0.1659
  23 F3       13.3860    -3.5590    -6.4990  F       1  <O>11      -0.1659
  24 C16      10.0810    -3.1430    -5.7270  C.ar    1  <O>11      -0.0494
  25 C17       9.2520    -2.4550    -4.8390  C.ar    1  <O>11      -0.0491
  26 H1        7.2710    -1.2390    -3.9420  H       1  <O>11       0.1494
  27 H2        6.5660    -0.9120    -1.1880  H       1  <O>11       0.0528
  28 H3        7.2450     0.6260    -1.7720  H       1  <O>11       0.0528
  29 H4        2.3215    -0.7073    -2.3043  H       1  <O>11       0.1921
  30 H5        3.1908     1.8499    -6.1630  H       1  <O>11       0.0625
  31 H6        5.1645     2.8526    -7.1352  H       1  <O>11       0.0618
  32 H7        7.3243     2.5541    -6.0728  H       1  <O>11       0.0618
  33 H8        7.5012     1.2560    -4.0363  H       1  <O>11       0.0624
  34 H9       11.3259    -2.3790    -2.1949  H       1  <O>11       0.0625
  35 H10      12.7529    -3.5746    -3.7521  H       1  <O>11       0.0623
  36 H11       9.7457    -3.3515    -6.6805  H       1  <O>11       0.0623
  37 H12       8.3080    -2.1610    -5.1348  H       1  <O>11       0.0625
@<TRIPOS>BOND
     1     1     2    2
     2     2     3   am
     3     3     4    1
     4     4     5    1
     5     5     6   ar
     6     6     7   ar
     7     7     8   ar
     8     8     9    2
     9     8    10   ar
    10    10    11   ar
    11    11    12   ar
    12    12    13   ar
    13    13    14   ar
    14    14    15   ar
    15     5    15   ar
    16    10    15   ar
    17     2    16    1
    18    16    17   ar
    19    17    18   ar
    20    18    19   ar
    21    19    20    1
    22    20    21    1
    23    20    22    1
    24    20    23    1
    25    19    24   ar
    26    24    25   ar
    27    16    25   ar
    28     3    26    1
    29     4    27    1
    30     4    28    1
    31     7    29    1
    32    11    30    1
    33    12    31    1
    34    13    32    1
    35    14    33    1
    36    17    34    1
    37    18    35    1
    38    24    36    1
    39    25    37    1
@<TRIPOS>MOLECULE
mol36_1_14
 37 39 0 0 0
SMALL
USER_CHARGES
****
VDW energy = -0.60
@<TRIPOS>ATOM
   1 O1        9.2535    -1.1831    -1.4851  O.2     1  <O>11      -0.2702
   2 C1        8.8535    -1.4341    -2.6122  C.2     1  <O>11       0.2444
   3 N1        7.6050    -1.0300    -3.0010  N.am    1  <O>11      -0.3057
   4 C2        6.7510    -0.2990    -2.0700  C.3     1  <O>11       0.0565
   5 C3        5.4670     0.0200    -2.7260  C.ar    1  <O>11       0.0863
   6 N2        5.3370    -0.4090    -4.0050  N.ar    1  <O>11      -0.1737
   7 N3        4.2340    -0.0650    -4.7090  N.ar    1  <O>11      -0.2424
   8 C4        3.2810     0.6900    -4.1140  C.ar    1  <O>11       0.2725
   9 O2        2.2070     1.0940    -4.9290  O.2     1  <O>11      -0.2658
  10 C5        3.3200     1.0750    -2.7660  C.ar    1  <O>11       0.0496
  11 C6        2.3000     1.8150    -2.1240  C.ar    1  <O>11      -0.0487
  12 C7        2.4150     2.1910    -0.7870  C.ar    1  <O>11      -0.0610
  13 C8        3.5530     1.8450    -0.0660  C.ar    1  <O>11      -0.0611
  14 C9        4.5740     1.1210    -0.6850  C.ar    1  <O>11      -0.0520
  15 C10       4.4690     0.7230    -2.0360  C.ar    1  <O>11       0.0118
  16 C11       9.7060    -2.1640    -3.5420  C.ar    1  <O>11       0.0367
  17 C12       9.1567    -3.1406    -4.3904  C.ar    1  <O>11      -0.0491
  18 C13       9.9777    -3.8490    -5.2740  C.ar    1  <O>11      -0.0494
  19 C14      11.3500    -3.5886    -5.3212  C.ar    1  <O>11       0.0549
  20 C15      12.2228    -4.3351    -6.2492  C.3     1  <O>11       0.4174
  21 F1       13.5255    -3.8973    -6.1078  F       1  <O>11      -0.1659
  22 F2       11.8032    -4.1218    -7.5473  F       1  <O>11      -0.1659
  23 F3       12.1558    -5.6838    -5.9589  F       1  <O>11      -0.1659
  24 C16      11.8947    -2.6112    -4.4815  C.ar    1  <O>11      -0.0494
  25 C17      11.0840    -1.8974    -3.5970  C.ar    1  <O>11      -0.0491
  26 H1        7.2710    -1.2390    -3.9420  H       1  <O>11       0.1494
  27 H2        6.5660    -0.9120    -1.1880  H       1  <O>11       0.0528
  28 H3        7.2450     0.6260    -1.7720  H       1  <O>11       0.0528
  29 H4        4.1230    -0.3690    -5.6660  H       1  <O>11       0.1921
  30 H5        1.4559     2.0812    -2.6548  H       1  <O>11       0.0625
  31 H6        1.6575     2.7249    -0.3329  H       1  <O>11       0.0618
  32 H7        3.6425     2.1227     0.9239  H       1  <O>11       0.0618
  33 H8        5.4188     0.8728    -0.1467  H       1  <O>11       0.0624
  34 H9        8.1438    -3.3358    -4.3613  H       1  <O>11       0.0625
  35 H10       9.5687    -4.5663    -5.8931  H       1  <O>11       0.0623
  36 H11      12.9074    -2.4155    -4.5164  H       1  <O>11       0.0623
  37 H12      11.4961    -1.1757    -2.9852  H       1  <O>11       0.0625
@<TRIPOS>BOND
     1     1     2    2
     2     2     3   am
     3     3     4    1
     4     4     5    1
     5     5     6   ar
     6     6     7   ar
     7     7     8   ar
     8     8     9    2
     9     8    10   ar
    10    10    11   ar
    11    11    12   ar
    12    12    13   ar
    13    13    14   ar
    14    14    15   ar
    15     5    15   ar
    16    10    15   ar
    17     2    16    1
    18    16    17   ar
    19    17    18   ar
    20    18    19   ar
    21    19    20    1
    22    20    21    1
    23    20    22    1
    24    20    23    1
    25    19    24   ar
    26    24    25   ar
    27    16    25   ar
    28     3    26    1
    29     4    27    1
    30     4    28    1
    31     7    29    1
    32    11    30    1
    33    12    31    1
    34    13    32    1
    35    14    33    1
    36    17    34    1
    37    18    35    1
    38    24    36    1
    39    25    37    1
@<TRIPOS>MOLECULE
mol36_1_15
 37 39 0 0 0
SMALL
USER_CHARGES
****
VDW energy = -0.59
@<TRIPOS>ATOM
   1 O1        9.2535    -1.1831    -1.4851  O.2     1  <O>11      -0.2702
   2 C1        8.8535    -1.4341    -2.6122  C.2     1  <O>11       0.2444
   3 N1        7.6050    -1.0300    -3.0010  N.am    1  <O>11      -0.3057
   4 C2        6.7510    -0.2990    -2.0700  C.3     1  <O>11       0.0565
   5 C3        5.4670     0.0200    -2.7260  C.ar    1  <O>11       0.0863
   6 N2        5.3370    -0.4090    -4.0050  N.ar    1  <O>11      -0.1737
   7 N3        4.2340    -0.0650    -4.7090  N.ar    1  <O>11      -0.2424
   8 C4        3.2810     0.6900    -4.1140  C.ar    1  <O>11       0.2725
   9 O2        2.2070     1.0940    -4.9290  O.2     1  <O>11      -0.2658
  10 C5        3.3200     1.0750    -2.7660  C.ar    1  <O>11       0.0496
  11 C6        2.3000     1.8150    -2.1240  C.ar    1  <O>11      -0.0487
  12 C7        2.4150     2.1910    -0.7870  C.ar    1  <O>11      -0.0610
  13 C8        3.5530     1.8450    -0.0660  C.ar    1  <O>11      -0.0611
  14 C9        4.5740     1.1210    -0.6850  C.ar    1  <O>11      -0.0520
  15 C10       4.4690     0.7230    -2.0360  C.ar    1  <O>11       0.0118
  16 C11       9.7060    -2.1640    -3.5420  C.ar    1  <O>11       0.0367
  17 C12       9.7487    -1.8012    -4.8991  C.ar    1  <O>11      -0.0491
  18 C13      10.5581    -2.5099    -5.7930  C.ar    1  <O>11      -0.0494
  19 C14      11.3323    -3.5825    -5.3421  C.ar    1  <O>11       0.0549
  20 C15      12.1863    -4.3371    -6.2811  C.3     1  <O>11       0.4174
  21 F1       11.4005    -4.8935    -7.2718  F       1  <O>11      -0.1659
  22 F2       12.8460    -5.3399    -5.5985  F       1  <O>11      -0.1659
  23 F3       13.1099    -3.4827    -6.8509  F       1  <O>11      -0.1659
  24 C16      11.2949    -3.9384    -3.9897  C.ar    1  <O>11      -0.0494
  25 C17      10.4915    -3.2367    -3.0889  C.ar    1  <O>11      -0.0491
  26 H1        7.2710    -1.2390    -3.9420  H       1  <O>11       0.1494
  27 H2        6.5660    -0.9120    -1.1880  H       1  <O>11       0.0528
  28 H3        7.2450     0.6260    -1.7720  H       1  <O>11       0.0528
  29 H4        4.1230    -0.3690    -5.6660  H       1  <O>11       0.1921
  30 H5        1.4559     2.0812    -2.6548  H       1  <O>11       0.0625
  31 H6        1.6575     2.7249    -0.3329  H       1  <O>11       0.0618
  32 H7        3.6425     2.1227     0.9239  H       1  <O>11       0.0618
  33 H8        5.4188     0.8728    -0.1467  H       1  <O>11       0.0624
  34 H9        9.1806    -1.0088    -5.2374  H       1  <O>11       0.0625
  35 H10      10.5836    -2.2399    -6.7888  H       1  <O>11       0.0623
  36 H11      11.8676    -4.7285    -3.6540  H       1  <O>11       0.0623
  37 H12      10.4749    -3.5054    -2.0926  H       1  <O>11       0.0625
@<TRIPOS>BOND
     1     1     2    2
     2     2     3   am
     3     3     4    1
     4     4     5    1
     5     5     6   ar
     6     6     7   ar
     7     7     8   ar
     8     8     9    2
     9     8    10   ar
    10    10    11   ar
    11    11    12   ar
    12    12    13   ar
    13    13    14   ar
    14    14    15   ar
    15     5    15   ar
    16    10    15   ar
    17     2    16    1
    18    16    17   ar
    19    17    18   ar
    20    18    19   ar
    21    19    20    1
    22    20    21    1
    23    20    22    1
    24    20    23    1
    25    19    24   ar
    26    24    25   ar
    27    16    25   ar
    28     3    26    1
    29     4    27    1
    30     4    28    1
    31     7    29    1
    32    11    30    1
    33    12    31    1
    34    13    32    1
    35    14    33    1
    36    17    34    1
    37    18    35    1
    38    24    36    1
    39    25    37    1
@<TRIPOS>MOLECULE
mol36_1_16
 37 39 0 0 0
SMALL
USER_CHARGES
****
VDW energy = -0.59
@<TRIPOS>ATOM
   1 O1        9.2535    -1.1831    -1.4851  O.2     1  <O>11      -0.2702
   2 C1        8.8535    -1.4341    -2.6122  C.2     1  <O>11       0.2444
   3 N1        7.6050    -1.0300    -3.0010  N.am    1  <O>11      -0.3057
   4 C2        6.7510    -0.2990    -2.0700  C.3     1  <O>11       0.0565
   5 C3        5.4670     0.0200    -2.7260  C.ar    1  <O>11       0.0863
   6 N2        5.3370    -0.4090    -4.0050  N.ar    1  <O>11      -0.1737
   7 N3        4.2340    -0.0650    -4.7090  N.ar    1  <O>11      -0.2424
   8 C4        3.2810     0.6900    -4.1140  C.ar    1  <O>11       0.2725
   9 O2        2.2070     1.0940    -4.9290  O.2     1  <O>11      -0.2658
  10 C5        3.3200     1.0750    -2.7660  C.ar    1  <O>11       0.0496
  11 C6        2.3000     1.8150    -2.1240  C.ar    1  <O>11      -0.0487
  12 C7        2.4150     2.1910    -0.7870  C.ar    1  <O>11      -0.0610
  13 C8        3.5530     1.8450    -0.0660  C.ar    1  <O>11      -0.0611
  14 C9        4.5740     1.1210    -0.6850  C.ar    1  <O>11      -0.0520
  15 C10       4.4690     0.7230    -2.0360  C.ar    1  <O>11       0.0118
  16 C11       9.7060    -2.1640    -3.5420  C.ar    1  <O>11       0.0367
  17 C12       9.7487    -1.8012    -4.8991  C.ar    1  <O>11      -0.0491
  18 C13      10.5581    -2.5099    -5.7930  C.ar    1  <O>11      -0.0494
  19 C14      11.3323    -3.5825    -5.3421  C.ar    1  <O>11       0.0549
  20 C15      12.1863    -4.3371    -6.2811  C.3     1  <O>11       0.4174
  21 F1       12.8469    -5.3397    -5.5977  F       1  <O>11      -0.1659
  22 F2       13.1091    -3.4828    -6.8516  F       1  <O>11      -0.1659
  23 F3       11.4007    -4.8944    -7.2710  F       1  <O>11      -0.1659
  24 C16      11.2949    -3.9384    -3.9897  C.ar    1  <O>11      -0.0494
  25 C17      10.4915    -3.2367    -3.0889  C.ar    1  <O>11      -0.0491
  26 H1        7.2710    -1.2390    -3.9420  H       1  <O>11       0.1494
  27 H2        6.5660    -0.9120    -1.1880  H       1  <O>11       0.0528
  28 H3        7.2450     0.6260    -1.7720  H       1  <O>11       0.0528
  29 H4        4.1230    -0.3690    -5.6660  H       1  <O>11       0.1921
  30 H5        1.4559     2.0812    -2.6548  H       1  <O>11       0.0625
  31 H6        1.6575     2.7249    -0.3329  H       1  <O>11       0.0618
  32 H7        3.6425     2.1227     0.9239  H       1  <O>11       0.0618
  33 H8        5.4188     0.8728    -0.1467  H       1  <O>11       0.0624
  34 H9        9.1806    -1.0088    -5.2374  H       1  <O>11       0.0625
  35 H10      10.5836    -2.2399    -6.7888  H       1  <O>11       0.0623
  36 H11      11.8676    -4.7285    -3.6540  H       1  <O>11       0.0623
  37 H12      10.4749    -3.5054    -2.0926  H       1  <O>11       0.0625
@<TRIPOS>BOND
     1     1     2    2
     2     2     3   am
     3     3     4    1
     4     4     5    1
     5     5     6   ar
     6     6     7   ar
     7     7     8   ar
     8     8     9    2
     9     8    10   ar
    10    10    11   ar
    11    11    12   ar
    12    12    13   ar
    13    13    14   ar
    14    14    15   ar
    15     5    15   ar
    16    10    15   ar
    17     2    16    1
    18    16    17   ar
    19    17    18   ar
    20    18    19   ar
    21    19    20    1
    22    20    21    1
    23    20    22    1
    24    20    23    1
    25    19    24   ar
    26    24    25   ar
    27    16    25   ar
    28     3    26    1
    29     4    27    1
    30     4    28    1
    31     7    29    1
    32    11    30    1
    33    12    31    1
    34    13    32    1
    35    14    33    1
    36    17    34    1
    37    18    35    1
    38    24    36    1
    39    25    37    1
@<TRIPOS>MOLECULE
mol36_1_17
 37 39 0 0 0
SMALL
USER_CHARGES
****
VDW energy = -0.34
@<TRIPOS>ATOM
   1 O1        9.2535    -1.1831    -1.4851  O.2     1  <O>11      -0.2702
   2 C1        8.8535    -1.4341    -2.6122  C.2     1  <O>11       0.2444
   3 N1        7.6050    -1.0300    -3.0010  N.am    1  <O>11      -0.3057
   4 C2        6.7510    -0.2990    -2.0700  C.3     1  <O>11       0.0565
   5 C3        6.5004    -1.1299    -0.8752  C.ar    1  <O>11       0.0863
   6 N2        7.0858    -2.3522    -0.8751  N.ar    1  <O>11      -0.1737
   7 N3        6.8189    -3.2132     0.1340  N.ar    1  <O>11      -0.2424
   8 C4        5.9822    -2.8275     1.1257  C.ar    1  <O>11       0.2725
   9 O2        5.6702    -3.8021     2.0921  O.2     1  <O>11      -0.2658
  10 C5        5.4306    -1.5419     1.2248  C.ar    1  <O>11       0.0496
  11 C6        4.6020    -1.1157     2.2887  C.ar    1  <O>11      -0.0487
  12 C7        4.0616     0.1687     2.3113  C.ar    1  <O>11      -0.0610
  13 C8        4.3288     1.0506     1.2694  C.ar    1  <O>11      -0.0611
  14 C9        5.1387     0.6451     0.2066  C.ar    1  <O>11      -0.0520
  15 C10       5.7027    -0.6492     0.1731  C.ar    1  <O>11       0.0118
  16 C11       9.7060    -2.1640    -3.5420  C.ar    1  <O>11       0.0367
  17 C12       9.1567    -3.1406    -4.3904  C.ar    1  <O>11      -0.0491
  18 C13       9.9777    -3.8490    -5.2740  C.ar    1  <O>11      -0.0494
  19 C14      11.3500    -3.5886    -5.3212  C.ar    1  <O>11       0.0549
  20 C15      12.2228    -4.3351    -6.2492  C.3     1  <O>11       0.4174
  21 F1       12.6974    -5.4704    -5.6210  F       1  <O>11      -0.1659
  22 F2       13.2857    -3.5370    -6.6234  F       1  <O>11      -0.1659
  23 F3       11.5006    -4.6962    -7.3697  F       1  <O>11      -0.1659
  24 C16      11.8947    -2.6112    -4.4815  C.ar    1  <O>11      -0.0494
  25 C17      11.0840    -1.8974    -3.5970  C.ar    1  <O>11      -0.0491
  26 H1        7.2710    -1.2390    -3.9420  H       1  <O>11       0.1494
  27 H2        7.2452     0.6257    -1.7724  H       1  <O>11       0.0528
  28 H3        5.8024    -0.0643    -2.5533  H       1  <O>11       0.0528
  29 H4        7.2398    -4.1314     0.1472  H       1  <O>11       0.1921
  30 H5        4.3938    -1.7670     3.0616  H       1  <O>11       0.0625
  31 H6        3.4647     0.4649     3.0993  H       1  <O>11       0.0618
  32 H7        3.9295     2.0022     1.2818  H       1  <O>11       0.0618
  33 H8        5.3281     1.3017    -0.5667  H       1  <O>11       0.0624
  34 H9        8.1438    -3.3358    -4.3613  H       1  <O>11       0.0625
  35 H10       9.5687    -4.5663    -5.8931  H       1  <O>11       0.0623
  36 H11      12.9074    -2.4155    -4.5164  H       1  <O>11       0.0623
  37 H12      11.4961    -1.1757    -2.9852  H       1  <O>11       0.0625
@<TRIPOS>BOND
     1     1     2    2
     2     2     3   am
     3     3     4    1
     4     4     5    1
     5     5     6   ar
     6     6     7   ar
     7     7     8   ar
     8     8     9    2
     9     8    10   ar
    10    10    11   ar
    11    11    12   ar
    12    12    13   ar
    13    13    14   ar
    14    14    15   ar
    15     5    15   ar
    16    10    15   ar
    17     2    16    1
    18    16    17   ar
    19    17    18   ar
    20    18    19   ar
    21    19    20    1
    22    20    21    1
    23    20    22    1
    24    20    23    1
    25    19    24   ar
    26    24    25   ar
    27    16    25   ar
    28     3    26    1
    29     4    27    1
    30     4    28    1
    31     7    29    1
    32    11    30    1
    33    12    31    1
    34    13    32    1
    35    14    33    1
    36    17    34    1
    37    18    35    1
    38    24    36    1
    39    25    37    1
@<TRIPOS>MOLECULE
mol36_1_18
 37 39 0 0 0
SMALL
USER_CHARGES
****
VDW energy = -0.29
@<TRIPOS>ATOM
   1 O1        9.2535    -1.1831    -1.4851  O.2     1  <O>11      -0.2702
   2 C1        8.8535    -1.4341    -2.6122  C.2     1  <O>11       0.2444
   3 N1        7.6050    -1.0300    -3.0010  N.am    1  <O>11      -0.3057
   4 C2        6.7510    -0.2990    -2.0700  C.3     1  <O>11       0.0565
   5 C3        7.4212     0.9535    -1.6664  C.ar    1  <O>11       0.0863
   6 N2        8.2125     0.8705    -0.5693  N.ar    1  <O>11      -0.1737
   7 N3        8.7768     1.9961    -0.0742  N.ar    1  <O>11      -0.2424
   8 C4        8.5463     3.1769    -0.6946  C.ar    1  <O>11       0.2725
   9 O2        9.0817     4.3215    -0.0747  O.2     1  <O>11      -0.2658
  10 C5        7.8189     3.3024    -1.8870  C.ar    1  <O>11       0.0496
  11 C6        7.6232     4.5251    -2.5702  C.ar    1  <O>11      -0.0487
  12 C7        6.8635     4.5852    -3.7370  C.ar    1  <O>11      -0.0610
  13 C8        6.2761     3.4295    -4.2409  C.ar    1  <O>11      -0.0611
  14 C9        6.4519     2.2143    -3.5759  C.ar    1  <O>11      -0.0520
  15 C10       7.2272     2.1338    -2.3982  C.ar    1  <O>11       0.0118
  16 C11       9.7060    -2.1640    -3.5420  C.ar    1  <O>11       0.0367
  17 C12      10.9890    -2.5820    -3.1490  C.ar    1  <O>11      -0.0491
  18 C13      11.8110    -3.2720    -4.0460  C.ar    1  <O>11      -0.0494
  19 C14      11.3610    -3.5530    -5.3390  C.ar    1  <O>11       0.0549
  20 C15      12.2250    -4.2780    -6.2920  C.3     1  <O>11       0.4174
  21 F1       11.5580    -4.4320    -7.4920  F       1  <O>11      -0.1659
  22 F2       12.5380    -5.5200    -5.7760  F       1  <O>11      -0.1659
  23 F3       13.3860    -3.5590    -6.4990  F       1  <O>11      -0.1659
  24 C16      10.0810    -3.1430    -5.7270  C.ar    1  <O>11      -0.0494
  25 C17       9.2520    -2.4550    -4.8390  C.ar    1  <O>11      -0.0491
  26 H1        7.2710    -1.2390    -3.9420  H       1  <O>11       0.1494
  27 H2        5.8029    -0.0643    -2.5536  H       1  <O>11       0.0528
  28 H3        6.5663    -0.9115    -1.1873  H       1  <O>11       0.0528
  29 H4        9.3635     1.9551     0.7472  H       1  <O>11       0.1921
  30 H5        8.0503     5.3879    -2.1983  H       1  <O>11       0.0625
  31 H6        6.7371     5.4851    -4.2262  H       1  <O>11       0.0618
  32 H7        5.7117     3.4701    -5.1040  H       1  <O>11       0.0618
  33 H8        6.0082     1.3614    -3.9511  H       1  <O>11       0.0624
  34 H9       11.3259    -2.3790    -2.1949  H       1  <O>11       0.0625
  35 H10      12.7529    -3.5746    -3.7521  H       1  <O>11       0.0623
  36 H11       9.7457    -3.3515    -6.6805  H       1  <O>11       0.0623
  37 H12       8.3080    -2.1610    -5.1348  H       1  <O>11       0.0625
@<TRIPOS>BOND
     1     1     2    2
     2     2     3   am
     3     3     4    1
     4     4     5    1
     5     5     6   ar
     6     6     7   ar
     7     7     8   ar
     8     8     9    2
     9     8    10   ar
    10    10    11   ar
    11    11    12   ar
    12    12    13   ar
    13    13    14   ar
    14    14    15   ar
    15     5    15   ar
    16    10    15   ar
    17     2    16    1
    18    16    17   ar
    19    17    18   ar
    20    18    19   ar
    21    19    20    1
    22    20    21    1
    23    20    22    1
    24    20    23    1
    25    19    24   ar
    26    24    25   ar
    27    16    25   ar
    28     3    26    1
    29     4    27    1
    30     4    28    1
    31     7    29    1
    32    11    30    1
    33    12    31    1
    34    13    32    1
    35    14    33    1
    36    17    34    1
    37    18    35    1
    38    24    36    1
    39    25    37    1
@<TRIPOS>MOLECULE
mol36_1_19
 37 39 0 0 0
SMALL
USER_CHARGES
****
VDW energy = 0.31
@<TRIPOS>ATOM
   1 O1        9.2535    -1.1831    -1.4851  O.2     1  <O>11      -0.2702
   2 C1        8.8535    -1.4341    -2.6122  C.2     1  <O>11       0.2444
   3 N1        7.6050    -1.0300    -3.0010  N.am    1  <O>11      -0.3057
   4 C2        6.7510    -0.2990    -2.0700  C.3     1  <O>11       0.0565
   5 C3        7.4212     0.9535    -1.6664  C.ar    1  <O>11       0.0863
   6 N2        8.6415     1.1710    -2.2143  N.ar    1  <O>11      -0.1737
   7 N3        9.3647     2.2422    -1.8142  N.ar    1  <O>11      -0.2424
   8 C4        8.8459     3.0777    -0.8842  C.ar    1  <O>11       0.2725
   9 O2        9.6865     4.1159    -0.4408  O.2     1  <O>11      -0.2658
  10 C5        7.5507     2.9541    -0.3606  C.ar    1  <O>11       0.0496
  11 C6        6.9826     3.8566     0.5682  C.ar    1  <O>11      -0.0487
  12 C7        5.6984     3.6590     1.0722  C.ar    1  <O>11      -0.0610
  13 C8        4.9586     2.5529     0.6675  C.ar    1  <O>11      -0.0611
  14 C9        5.5057     1.6467    -0.2431  C.ar    1  <O>11      -0.0520
  15 C10       6.8014     1.8375    -0.7715  C.ar    1  <O>11       0.0118
  16 C11       9.7060    -2.1640    -3.5420  C.ar    1  <O>11       0.0367
  17 C12       9.1567    -3.1406    -4.3904  C.ar    1  <O>11      -0.0491
  18 C13       9.9777    -3.8490    -5.2740  C.ar    1  <O>11      -0.0494
  19 C14      11.3500    -3.5886    -5.3212  C.ar    1  <O>11       0.0549
  20 C15      12.2228    -4.3351    -6.2492  C.3     1  <O>11       0.4174
  21 F1       12.2918    -3.6649    -7.4552  F       1  <O>11      -0.1659
  22 F2       11.7037    -5.5984    -6.4530  F       1  <O>11      -0.1659
  23 F3       13.4887    -4.4391    -5.7066  F       1  <O>11      -0.1659
  24 C16      11.8947    -2.6112    -4.4815  C.ar    1  <O>11      -0.0494
  25 C17      11.0840    -1.8974    -3.5970  C.ar    1  <O>11      -0.0491
  26 H1        7.2710    -1.2390    -3.9420  H       1  <O>11       0.1494
  27 H2        5.8029    -0.0643    -2.5536  H       1  <O>11       0.0528
  28 H3        6.5663    -0.9115    -1.1873  H       1  <O>11       0.0528
  29 H4       10.2796     2.4164    -2.2057  H       1  <O>11       0.1921
  30 H5        7.5284     4.6758     0.8782  H       1  <O>11       0.0625
  31 H6        5.2972     4.3319     1.7440  H       1  <O>11       0.0618
  32 H7        4.0078     2.4023     1.0394  H       1  <O>11       0.0618
  33 H8        4.9544     0.8244    -0.5346  H       1  <O>11       0.0624
  34 H9        8.1438    -3.3358    -4.3613  H       1  <O>11       0.0625
  35 H10       9.5687    -4.5663    -5.8931  H       1  <O>11       0.0623
  36 H11      12.9074    -2.4155    -4.5164  H       1  <O>11       0.0623
  37 H12      11.4961    -1.1757    -2.9852  H       1  <O>11       0.0625
@<TRIPOS>BOND
     1     1     2    2
     2     2     3   am
     3     3     4    1
     4     4     5    1
     5     5     6   ar
     6     6     7   ar
     7     7     8   ar
     8     8     9    2
     9     8    10   ar
    10    10    11   ar
    11    11    12   ar
    12    12    13   ar
    13    13    14   ar
    14    14    15   ar
    15     5    15   ar
    16    10    15   ar
    17     2    16    1
    18    16    17   ar
    19    17    18   ar
    20    18    19   ar
    21    19    20    1
    22    20    21    1
    23    20    22    1
    24    20    23    1
    25    19    24   ar
    26    24    25   ar
    27    16    25   ar
    28     3    26    1
    29     4    27    1
    30     4    28    1
    31     7    29    1
    32    11    30    1
    33    12    31    1
    34    13    32    1
    35    14    33    1
    36    17    34    1
    37    18    35    1
    38    24    36    1
    39    25    37    1
@<TRIPOS>MOLECULE
mol36_1_20
 37 39 0 0 0
SMALL
USER_CHARGES
****
VDW energy = 0.41
@<TRIPOS>ATOM
   1 O1        9.2535    -1.1831    -1.4851  O.2     1  <O>11      -0.2702
   2 C1        8.8535    -1.4341    -2.6122  C.2     1  <O>11       0.2444
   3 N1        7.6050    -1.0300    -3.0010  N.am    1  <O>11      -0.3057
   4 C2        6.7510    -0.2990    -2.0700  C.3     1  <O>11       0.0565
   5 C3        5.4670     0.0200    -2.7260  C.ar    1  <O>11       0.0863
   6 N2        5.1688     1.3383    -2.8262  N.ar    1  <O>11      -0.1737
   7 N3        3.9641     1.7082    -3.3185  N.ar    1  <O>11      -0.2424
   8 C4        3.0901     0.7518    -3.7102  C.ar    1  <O>11       0.2725
   9 O2        1.8202     1.1985    -4.1211  O.2     1  <O>11      -0.2658
  10 C5        3.3869    -0.6189    -3.7207  C.ar    1  <O>11       0.0496
  11 C6        2.4988    -1.6179    -4.1825  C.ar    1  <O>11      -0.0487
  12 C7        2.8455    -2.9670    -4.1379  C.ar    1  <O>11      -0.0610
  13 C8        4.0805    -3.3477    -3.6235  C.ar    1  <O>11      -0.0611
  14 C9        4.9675    -2.3761    -3.1558  C.ar    1  <O>11      -0.0520
  15 C10       4.6363    -1.0040    -3.2033  C.ar    1  <O>11       0.0118
  16 C11       9.7060    -2.1640    -3.5420  C.ar    1  <O>11       0.0367
  17 C12      10.9890    -2.5820    -3.1490  C.ar    1  <O>11      -0.0491
  18 C13      11.8110    -3.2720    -4.0460  C.ar    1  <O>11      -0.0494
  19 C14      11.3610    -3.5530    -5.3390  C.ar    1  <O>11       0.0549
  20 C15      12.2250    -4.2780    -6.2920  C.3     1  <O>11       0.4174
  21 F1       11.5580    -4.4320    -7.4920  F       1  <O>11      -0.1659
  22 F2       12.5380    -5.5200    -5.7760  F       1  <O>11      -0.1659
  23 F3       13.3860    -3.5590    -6.4990  F       1  <O>11      -0.1659
  24 C16      10.0810    -3.1430    -5.7270  C.ar    1  <O>11      -0.0494
  25 C17       9.2520    -2.4550    -4.8390  C.ar    1  <O>11      -0.0491
  26 H1        7.2710    -1.2390    -3.9420  H       1  <O>11       0.1494
  27 H2        6.5660    -0.9120    -1.1880  H       1  <O>11       0.0528
  28 H3        7.2450     0.6260    -1.7720  H       1  <O>11       0.0528
  29 H4        3.7210     2.6859    -3.3936  H       1  <O>11       0.1921
  30 H5        1.5780    -1.3432    -4.5591  H       1  <O>11       0.0625
  31 H6        2.1875    -3.6819    -4.4858  H       1  <O>11       0.0618
  32 H7        4.3404    -4.3458    -3.5876  H       1  <O>11       0.0618
  33 H8        5.8797    -2.6652    -2.7693  H       1  <O>11       0.0624
  34 H9       11.3259    -2.3790    -2.1949  H       1  <O>11       0.0625
  35 H10      12.7529    -3.5746    -3.7521  H       1  <O>11       0.0623
  36 H11       9.7457    -3.3515    -6.6805  H       1  <O>11       0.0623
  37 H12       8.3080    -2.1610    -5.1348  H       1  <O>11       0.0625
@<TRIPOS>BOND
     1     1     2    2
     2     2     3   am
     3     3     4    1
     4     4     5    1
     5     5     6   ar
     6     6     7   ar
     7     7     8   ar
     8     8     9    2
     9     8    10   ar
    10    10    11   ar
    11    11    12   ar
    12    12    13   ar
    13    13    14   ar
    14    14    15   ar
    15     5    15   ar
    16    10    15   ar
    17     2    16    1
    18    16    17   ar
    19    17    18   ar
    20    18    19   ar
    21    19    20    1
    22    20    21    1
    23    20    22    1
    24    20    23    1
    25    19    24   ar
    26    24    25   ar
    27    16    25   ar
    28     3    26    1
    29     4    27    1
    30     4    28    1
    31     7    29    1
    32    11    30    1
    33    12    31    1
    34    13    32    1
    35    14    33    1
    36    17    34    1
    37    18    35    1
    38    24    36    1
    39    25    37    1
@<TRIPOS>MOLECULE
mol36_1_21
 37 39 0 0 0
SMALL
USER_CHARGES
****
VDW energy = 0.51
@<TRIPOS>ATOM
   1 O1        9.2535    -1.1831    -1.4851  O.2     1  <O>11      -0.2702
   2 C1        8.8535    -1.4341    -2.6122  C.2     1  <O>11       0.2444
   3 N1        7.6050    -1.0300    -3.0010  N.am    1  <O>11      -0.3057
   4 C2        6.7510    -0.2990    -2.0700  C.3     1  <O>11       0.0565
   5 C3        7.4212     0.9535    -1.6664  C.ar    1  <O>11       0.0863
   6 N2        8.6415     1.1710    -2.2143  N.ar    1  <O>11      -0.1737
   7 N3        9.3647     2.2422    -1.8142  N.ar    1  <O>11      -0.2424
   8 C4        8.8459     3.0777    -0.8842  C.ar    1  <O>11       0.2725
   9 O2        9.6865     4.1159    -0.4408  O.2     1  <O>11      -0.2658
  10 C5        7.5507     2.9541    -0.3606  C.ar    1  <O>11       0.0496
  11 C6        6.9826     3.8566     0.5682  C.ar    1  <O>11      -0.0487
  12 C7        5.6984     3.6590     1.0722  C.ar    1  <O>11      -0.0610
  13 C8        4.9586     2.5529     0.6675  C.ar    1  <O>11      -0.0611
  14 C9        5.5057     1.6467    -0.2431  C.ar    1  <O>11      -0.0520
  15 C10       6.8014     1.8375    -0.7715  C.ar    1  <O>11       0.0118
  16 C11       9.7060    -2.1640    -3.5420  C.ar    1  <O>11       0.0367
  17 C12       9.1567    -3.1406    -4.3904  C.ar    1  <O>11      -0.0491
  18 C13       9.9777    -3.8490    -5.2740  C.ar    1  <O>11      -0.0494
  19 C14      11.3500    -3.5886    -5.3212  C.ar    1  <O>11       0.0549
  20 C15      12.2228    -4.3351    -6.2492  C.3     1  <O>11       0.4174
  21 F1       12.1548    -5.6842    -5.9594  F       1  <O>11      -0.1659
  22 F2       13.5251    -3.8985    -6.1074  F       1  <O>11      -0.1659
  23 F3       11.8036    -4.1209    -7.5476  F       1  <O>11      -0.1659
  24 C16      11.8947    -2.6112    -4.4815  C.ar    1  <O>11      -0.0494
  25 C17      11.0840    -1.8974    -3.5970  C.ar    1  <O>11      -0.0491
  26 H1        7.2710    -1.2390    -3.9420  H       1  <O>11       0.1494
  27 H2        5.8029    -0.0643    -2.5536  H       1  <O>11       0.0528
  28 H3        6.5663    -0.9115    -1.1873  H       1  <O>11       0.0528
  29 H4       10.2796     2.4164    -2.2057  H       1  <O>11       0.1921
  30 H5        7.5284     4.6758     0.8782  H       1  <O>11       0.0625
  31 H6        5.2972     4.3319     1.7440  H       1  <O>11       0.0618
  32 H7        4.0078     2.4023     1.0394  H       1  <O>11       0.0618
  33 H8        4.9544     0.8244    -0.5346  H       1  <O>11       0.0624
  34 H9        8.1438    -3.3358    -4.3613  H       1  <O>11       0.0625
  35 H10       9.5687    -4.5663    -5.8931  H       1  <O>11       0.0623
  36 H11      12.9074    -2.4155    -4.5164  H       1  <O>11       0.0623
  37 H12      11.4961    -1.1757    -2.9852  H       1  <O>11       0.0625
@<TRIPOS>BOND
     1     1     2    2
     2     2     3   am
     3     3     4    1
     4     4     5    1
     5     5     6   ar
     6     6     7   ar
     7     7     8   ar
     8     8     9    2
     9     8    10   ar
    10    10    11   ar
    11    11    12   ar
    12    12    13   ar
    13    13    14   ar
    14    14    15   ar
    15     5    15   ar
    16    10    15   ar
    17     2    16    1
    18    16    17   ar
    19    17    18   ar
    20    18    19   ar
    21    19    20    1
    22    20    21    1
    23    20    22    1
    24    20    23    1
    25    19    24   ar
    26    24    25   ar
    27    16    25   ar
    28     3    26    1
    29     4    27    1
    30     4    28    1
    31     7    29    1
    32    11    30    1
    33    12    31    1
    34    13    32    1
    35    14    33    1
    36    17    34    1
    37    18    35    1
    38    24    36    1
    39    25    37    1
@<TRIPOS>MOLECULE
mol36_1_22
 37 39 0 0 0
SMALL
USER_CHARGES
****
VDW energy = 3.70
@<TRIPOS>ATOM
   1 O1        9.2535    -1.1831    -1.4851  O.2     1  <O>11      -0.2702
   2 C1        8.8535    -1.4341    -2.6122  C.2     1  <O>11       0.2444
   3 N1        7.6050    -1.0300    -3.0010  N.am    1  <O>11      -0.3057
   4 C2        6.7510    -0.2990    -2.0700  C.3     1  <O>11       0.0565
   5 C3        5.4670     0.0200    -2.7260  C.ar    1  <O>11       0.0863
   6 N2        5.3370    -0.4090    -4.0050  N.ar    1  <O>11      -0.1737
   7 N3        4.2340    -0.0650    -4.7090  N.ar    1  <O>11      -0.2424
   8 C4        3.2810     0.6900    -4.1140  C.ar    1  <O>11       0.2725
   9 O2        2.2070     1.0940    -4.9290  O.2     1  <O>11      -0.2658
  10 C5        3.3200     1.0750    -2.7660  C.ar    1  <O>11       0.0496
  11 C6        2.3000     1.8150    -2.1240  C.ar    1  <O>11      -0.0487
  12 C7        2.4150     2.1910    -0.7870  C.ar    1  <O>11      -0.0610
  13 C8        3.5530     1.8450    -0.0660  C.ar    1  <O>11      -0.0611
  14 C9        4.5740     1.1210    -0.6850  C.ar    1  <O>11      -0.0520
  15 C10       4.4690     0.7230    -2.0360  C.ar    1  <O>11       0.0118
  16 C11       9.7060    -2.1640    -3.5420  C.ar    1  <O>11       0.0367
  17 C12      10.9890    -2.5820    -3.1490  C.ar    1  <O>11      -0.0491
  18 C13      11.8110    -3.2720    -4.0460  C.ar    1  <O>11      -0.0494
  19 C14      11.3610    -3.5530    -5.3390  C.ar    1  <O>11       0.0549
  20 C15      12.2250    -4.2780    -6.2920  C.3     1  <O>11       0.4174
  21 F1       13.3867    -3.5593    -6.4980  F       1  <O>11      -0.1659
  22 F2       11.5590    -4.4312    -7.4919  F       1  <O>11      -0.1659
  23 F3       12.5372    -5.5207    -5.7762  F       1  <O>11      -0.1659
  24 C16      10.0810    -3.1430    -5.7270  C.ar    1  <O>11      -0.0494
  25 C17       9.2520    -2.4550    -4.8390  C.ar    1  <O>11      -0.0491
  26 H1        7.2710    -1.2390    -3.9420  H       1  <O>11       0.1494
  27 H2        6.5660    -0.9120    -1.1880  H       1  <O>11       0.0528
  28 H3        7.2450     0.6260    -1.7720  H       1  <O>11       0.0528
  29 H4        4.1230    -0.3690    -5.6660  H       1  <O>11       0.1921
  30 H5        1.4559     2.0812    -2.6548  H       1  <O>11       0.0625
  31 H6        1.6575     2.7249    -0.3329  H       1  <O>11       0.0618
  32 H7        3.6425     2.1227     0.9239  H       1  <O>11       0.0618
  33 H8        5.4188     0.8728    -0.1467  H       1  <O>11       0.0624
  34 H9       11.3259    -2.3790    -2.1949  H       1  <O>11       0.0625
  35 H10      12.7529    -3.5746    -3.7521  H       1  <O>11       0.0623
  36 H11       9.7457    -3.3515    -6.6805  H       1  <O>11       0.0623
  37 H12       8.3080    -2.1610    -5.1348  H       1  <O>11       0.0625
@<TRIPOS>BOND
     1     1     2    2
     2     2     3   am
     3     3     4    1
     4     4     5    1
     5     5     6   ar
     6     6     7   ar
     7     7     8   ar
     8     8     9    2
     9     8    10   ar
    10    10    11   ar
    11    11    12   ar
    12    12    13   ar
    13    13    14   ar
    14    14    15   ar
    15     5    15   ar
    16    10    15   ar
    17     2    16    1
    18    16    17   ar
    19    17    18   ar
    20    18    19   ar
    21    19    20    1
    22    20    21    1
    23    20    22    1
    24    20    23    1
    25    19    24   ar
    26    24    25   ar
    27    16    25   ar
    28     3    26    1
    29     4    27    1
    30     4    28    1
    31     7    29    1
    32    11    30    1
    33    12    31    1
    34    13    32    1
    35    14    33    1
    36    17    34    1
    37    18    35    1
    38    24    36    1
    39    25    37    1
@<TRIPOS>MOLECULE
mol36_1_23
 37 39 0 0 0
SMALL
USER_CHARGES
****
VDW energy = 3.70
@<TRIPOS>ATOM
   1 O1        9.2535    -1.1831    -1.4851  O.2     1  <O>11      -0.2702
   2 C1        8.8535    -1.4341    -2.6122  C.2     1  <O>11       0.2444
   3 N1        7.6050    -1.0300    -3.0010  N.am    1  <O>11      -0.3057
   4 C2        6.7510    -0.2990    -2.0700  C.3     1  <O>11       0.0565
   5 C3        5.4670     0.0200    -2.7260  C.ar    1  <O>11       0.0863
   6 N2        5.3370    -0.4090    -4.0050  N.ar    1  <O>11      -0.1737
   7 N3        4.2340    -0.0650    -4.7090  N.ar    1  <O>11      -0.2424
   8 C4        3.2810     0.6900    -4.1140  C.ar    1  <O>11       0.2725
   9 O2        2.2070     1.0940    -4.9290  O.2     1  <O>11      -0.2658
  10 C5        3.3200     1.0750    -2.7660  C.ar    1  <O>11       0.0496
  11 C6        2.3000     1.8150    -2.1240  C.ar    1  <O>11      -0.0487
  12 C7        2.4150     2.1910    -0.7870  C.ar    1  <O>11      -0.0610
  13 C8        3.5530     1.8450    -0.0660  C.ar    1  <O>11      -0.0611
  14 C9        4.5740     1.1210    -0.6850  C.ar    1  <O>11      -0.0520
  15 C10       4.4690     0.7230    -2.0360  C.ar    1  <O>11       0.0118
  16 C11       9.7060    -2.1640    -3.5420  C.ar    1  <O>11       0.0367
  17 C12      10.9890    -2.5820    -3.1490  C.ar    1  <O>11      -0.0491
  18 C13      11.8110    -3.2720    -4.0460  C.ar    1  <O>11      -0.0494
  19 C14      11.3610    -3.5530    -5.3390  C.ar    1  <O>11       0.0549
  20 C15      12.2250    -4.2780    -6.2920  C.3     1  <O>11       0.4174
  21 F1       11.5580    -4.4320    -7.4920  F       1  <O>11      -0.1659
  22 F2       12.5380    -5.5200    -5.7760  F       1  <O>11      -0.1659
  23 F3       13.3860    -3.5590    -6.4990  F       1  <O>11      -0.1659
  24 C16      10.0810    -3.1430    -5.7270  C.ar    1  <O>11      -0.0494
  25 C17       9.2520    -2.4550    -4.8390  C.ar    1  <O>11      -0.0491
  26 H1        7.2710    -1.2390    -3.9420  H       1  <O>11       0.1494
  27 H2        6.5660    -0.9120    -1.1880  H       1  <O>11       0.0528
  28 H3        7.2450     0.6260    -1.7720  H       1  <O>11       0.0528
  29 H4        4.1230    -0.3690    -5.6660  H       1  <O>11       0.1921
  30 H5        1.4559     2.0812    -2.6548  H       1  <O>11       0.0625
  31 H6        1.6575     2.7249    -0.3329  H       1  <O>11       0.0618
  32 H7        3.6425     2.1227     0.9239  H       1  <O>11       0.0618
  33 H8        5.4188     0.8728    -0.1467  H       1  <O>11       0.0624
  34 H9       11.3259    -2.3790    -2.1949  H       1  <O>11       0.0625
  35 H10      12.7529    -3.5746    -3.7521  H       1  <O>11       0.0623
  36 H11       9.7457    -3.3515    -6.6805  H       1  <O>11       0.0623
  37 H12       8.3080    -2.1610    -5.1348  H       1  <O>11       0.0625
@<TRIPOS>BOND
     1     1     2    2
     2     2     3   am
     3     3     4    1
     4     4     5    1
     5     5     6   ar
     6     6     7   ar
     7     7     8   ar
     8     8     9    2
     9     8    10   ar
    10    10    11   ar
    11    11    12   ar
    12    12    13   ar
    13    13    14   ar
    14    14    15   ar
    15     5    15   ar
    16    10    15   ar
    17     2    16    1
    18    16    17   ar
    19    17    18   ar
    20    18    19   ar
    21    19    20    1
    22    20    21    1
    23    20    22    1
    24    20    23    1
    25    19    24   ar
    26    24    25   ar
    27    16    25   ar
    28     3    26    1
    29     4    27    1
    30     4    28    1
    31     7    29    1
    32    11    30    1
    33    12    31    1
    34    13    32    1
    35    14    33    1
    36    17    34    1
    37    18    35    1
    38    24    36    1
    39    25    37    1
@<TRIPOS>MOLECULE
mol36_1_24
 37 39 0 0 0
SMALL
USER_CHARGES
****
VDW energy = 4.10
@<TRIPOS>ATOM
   1 O1        9.2535    -1.1831    -1.4851  O.2     1  <O>11      -0.2702
   2 C1        8.8535    -1.4341    -2.6122  C.2     1  <O>11       0.2444
   3 N1        7.6050    -1.0300    -3.0010  N.am    1  <O>11      -0.3057
   4 C2        6.7510    -0.2990    -2.0700  C.3     1  <O>11       0.0565
   5 C3        6.5004    -1.1299    -0.8752  C.ar    1  <O>11       0.0863
   6 N2        7.0858    -2.3522    -0.8751  N.ar    1  <O>11      -0.1737
   7 N3        6.8189    -3.2132     0.1340  N.ar    1  <O>11      -0.2424
   8 C4        5.9822    -2.8275     1.1257  C.ar    1  <O>11       0.2725
   9 O2        5.6702    -3.8021     2.0921  O.2     1  <O>11      -0.2658
  10 C5        5.4306    -1.5419     1.2248  C.ar    1  <O>11       0.0496
  11 C6        4.6020    -1.1157     2.2887  C.ar    1  <O>11      -0.0487
  12 C7        4.0616     0.1687     2.3113  C.ar    1  <O>11      -0.0610
  13 C8        4.3288     1.0506     1.2694  C.ar    1  <O>11      -0.0611
  14 C9        5.1387     0.6451     0.2066  C.ar    1  <O>11      -0.0520
  15 C10       5.7027    -0.6492     0.1731  C.ar    1  <O>11       0.0118
  16 C11       9.7060    -2.1640    -3.5420  C.ar    1  <O>11       0.0367
  17 C12      10.9890    -2.5820    -3.1490  C.ar    1  <O>11      -0.0491
  18 C13      11.8110    -3.2720    -4.0460  C.ar    1  <O>11      -0.0494
  19 C14      11.3610    -3.5530    -5.3390  C.ar    1  <O>11       0.0549
  20 C15      12.2250    -4.2780    -6.2920  C.3     1  <O>11       0.4174
  21 F1       12.9846    -3.3712    -7.0056  F       1  <O>11      -0.1659
  22 F2       11.4391    -5.0069    -7.1626  F       1  <O>11      -0.1659
  23 F3       13.0591    -5.1328    -5.5981  F       1  <O>11      -0.1659
  24 C16      10.0810    -3.1430    -5.7270  C.ar    1  <O>11      -0.0494
  25 C17       9.2520    -2.4550    -4.8390  C.ar    1  <O>11      -0.0491
  26 H1        7.2710    -1.2390    -3.9420  H       1  <O>11       0.1494
  27 H2        7.2452     0.6257    -1.7724  H       1  <O>11       0.0528
  28 H3        5.8024    -0.0643    -2.5533  H       1  <O>11       0.0528
  29 H4        7.2398    -4.1314     0.1472  H       1  <O>11       0.1921
  30 H5        4.3938    -1.7670     3.0616  H       1  <O>11       0.0625
  31 H6        3.4647     0.4649     3.0993  H       1  <O>11       0.0618
  32 H7        3.9295     2.0022     1.2818  H       1  <O>11       0.0618
  33 H8        5.3281     1.3017    -0.5667  H       1  <O>11       0.0624
  34 H9       11.3259    -2.3790    -2.1949  H       1  <O>11       0.0625
  35 H10      12.7529    -3.5746    -3.7521  H       1  <O>11       0.0623
  36 H11       9.7457    -3.3515    -6.6805  H       1  <O>11       0.0623
  37 H12       8.3080    -2.1610    -5.1348  H       1  <O>11       0.0625
@<TRIPOS>BOND
     1     1     2    2
     2     2     3   am
     3     3     4    1
     4     4     5    1
     5     5     6   ar
     6     6     7   ar
     7     7     8   ar
     8     8     9    2
     9     8    10   ar
    10    10    11   ar
    11    11    12   ar
    12    12    13   ar
    13    13    14   ar
    14    14    15   ar
    15     5    15   ar
    16    10    15   ar
    17     2    16    1
    18    16    17   ar
    19    17    18   ar
    20    18    19   ar
    21    19    20    1
    22    20    21    1
    23    20    22    1
    24    20    23    1
    25    19    24   ar
    26    24    25   ar
    27    16    25   ar
    28     3    26    1
    29     4    27    1
    30     4    28    1
    31     7    29    1
    32    11    30    1
    33    12    31    1
    34    13    32    1
    35    14    33    1
    36    17    34    1
    37    18    35    1
    38    24    36    1
    39    25    37    1
@<TRIPOS>MOLECULE
mol36_1_25
 37 39 0 0 0
SMALL
USER_CHARGES
****
VDW energy = 4.77
@<TRIPOS>ATOM
   1 O1        9.2535    -1.1831    -1.4851  O.2     1  <O>11      -0.2702
   2 C1        8.8535    -1.4341    -2.6122  C.2     1  <O>11       0.2444
   3 N1        7.6050    -1.0300    -3.0010  N.am    1  <O>11      -0.3057
   4 C2        6.7510    -0.2990    -2.0700  C.3     1  <O>11       0.0565
   5 C3        7.4212     0.9535    -1.6664  C.ar    1  <O>11       0.0863
   6 N2        8.6415     1.1710    -2.2143  N.ar    1  <O>11      -0.1737
   7 N3        9.3647     2.2422    -1.8142  N.ar    1  <O>11      -0.2424
   8 C4        8.8459     3.0777    -0.8842  C.ar    1  <O>11       0.2725
   9 O2        9.6865     4.1159    -0.4408  O.2     1  <O>11      -0.2658
  10 C5        7.5507     2.9541    -0.3606  C.ar    1  <O>11       0.0496
  11 C6        6.9826     3.8566     0.5682  C.ar    1  <O>11      -0.0487
  12 C7        5.6984     3.6590     1.0722  C.ar    1  <O>11      -0.0610
  13 C8        4.9586     2.5529     0.6675  C.ar    1  <O>11      -0.0611
  14 C9        5.5057     1.6467    -0.2431  C.ar    1  <O>11      -0.0520
  15 C10       6.8014     1.8375    -0.7715  C.ar    1  <O>11       0.0118
  16 C11       9.7060    -2.1640    -3.5420  C.ar    1  <O>11       0.0367
  17 C12      10.9890    -2.5820    -3.1490  C.ar    1  <O>11      -0.0491
  18 C13      11.8110    -3.2720    -4.0460  C.ar    1  <O>11      -0.0494
  19 C14      11.3610    -3.5530    -5.3390  C.ar    1  <O>11       0.0549
  20 C15      12.2250    -4.2780    -6.2920  C.3     1  <O>11       0.4174
  21 F1       12.0035    -5.6363    -6.1719  F       1  <O>11      -0.1659
  22 F2       13.5491    -4.0007    -6.0151  F       1  <O>11      -0.1659
  23 F3       11.9292    -3.8749    -7.5795  F       1  <O>11      -0.1659
  24 C16      10.0810    -3.1430    -5.7270  C.ar    1  <O>11      -0.0494
  25 C17       9.2520    -2.4550    -4.8390  C.ar    1  <O>11      -0.0491
  26 H1        7.2710    -1.2390    -3.9420  H       1  <O>11       0.1494
  27 H2        5.8029    -0.0643    -2.5536  H       1  <O>11       0.0528
  28 H3        6.5663    -0.9115    -1.1873  H       1  <O>11       0.0528
  29 H4       10.2796     2.4164    -2.2057  H       1  <O>11       0.1921
  30 H5        7.5284     4.6758     0.8782  H       1  <O>11       0.0625
  31 H6        5.2972     4.3319     1.7440  H       1  <O>11       0.0618
  32 H7        4.0078     2.4023     1.0394  H       1  <O>11       0.0618
  33 H8        4.9544     0.8244    -0.5346  H       1  <O>11       0.0624
  34 H9       11.3259    -2.3790    -2.1949  H       1  <O>11       0.0625
  35 H10      12.7529    -3.5746    -3.7521  H       1  <O>11       0.0623
  36 H11       9.7457    -3.3515    -6.6805  H       1  <O>11       0.0623
  37 H12       8.3080    -2.1610    -5.1348  H       1  <O>11       0.0625
@<TRIPOS>BOND
     1     1     2    2
     2     2     3   am
     3     3     4    1
     4     4     5    1
     5     5     6   ar
     6     6     7   ar
     7     7     8   ar
     8     8     9    2
     9     8    10   ar
    10    10    11   ar
    11    11    12   ar
    12    12    13   ar
    13    13    14   ar
    14    14    15   ar
    15     5    15   ar
    16    10    15   ar
    17     2    16    1
    18    16    17   ar
    19    17    18   ar
    20    18    19   ar
    21    19    20    1
    22    20    21    1
    23    20    22    1
    24    20    23    1
    25    19    24   ar
    26    24    25   ar
    27    16    25   ar
    28     3    26    1
    29     4    27    1
    30     4    28    1
    31     7    29    1
    32    11    30    1
    33    12    31    1
    34    13    32    1
    35    14    33    1
    36    17    34    1
    37    18    35    1
    38    24    36    1
    39    25    37    1
@<TRIPOS>MOLECULE
mol36_1_26
 37 39 0 0 0
SMALL
USER_CHARGES
****
VDW energy = 4.77
@<TRIPOS>ATOM
   1 O1        9.2535    -1.1831    -1.4851  O.2     1  <O>11      -0.2702
   2 C1        8.8535    -1.4341    -2.6122  C.2     1  <O>11       0.2444
   3 N1        7.6050    -1.0300    -3.0010  N.am    1  <O>11      -0.3057
   4 C2        6.7510    -0.2990    -2.0700  C.3     1  <O>11       0.0565
   5 C3        7.4212     0.9535    -1.6664  C.ar    1  <O>11       0.0863
   6 N2        8.6415     1.1710    -2.2143  N.ar    1  <O>11      -0.1737
   7 N3        9.3647     2.2422    -1.8142  N.ar    1  <O>11      -0.2424
   8 C4        8.8459     3.0777    -0.8842  C.ar    1  <O>11       0.2725
   9 O2        9.6865     4.1159    -0.4408  O.2     1  <O>11      -0.2658
  10 C5        7.5507     2.9541    -0.3606  C.ar    1  <O>11       0.0496
  11 C6        6.9826     3.8566     0.5682  C.ar    1  <O>11      -0.0487
  12 C7        5.6984     3.6590     1.0722  C.ar    1  <O>11      -0.0610
  13 C8        4.9586     2.5529     0.6675  C.ar    1  <O>11      -0.0611
  14 C9        5.5057     1.6467    -0.2431  C.ar    1  <O>11      -0.0520
  15 C10       6.8014     1.8375    -0.7715  C.ar    1  <O>11       0.0118
  16 C11       9.7060    -2.1640    -3.5420  C.ar    1  <O>11       0.0367
  17 C12      10.9890    -2.5820    -3.1490  C.ar    1  <O>11      -0.0491
  18 C13      11.8110    -3.2720    -4.0460  C.ar    1  <O>11      -0.0494
  19 C14      11.3610    -3.5530    -5.3390  C.ar    1  <O>11       0.0549
  20 C15      12.2250    -4.2780    -6.2920  C.3     1  <O>11       0.4174
  21 F1       12.9846    -3.3712    -7.0056  F       1  <O>11      -0.1659
  22 F2       11.4391    -5.0069    -7.1626  F       1  <O>11      -0.1659
  23 F3       13.0591    -5.1328    -5.5981  F       1  <O>11      -0.1659
  24 C16      10.0810    -3.1430    -5.7270  C.ar    1  <O>11      -0.0494
  25 C17       9.2520    -2.4550    -4.8390  C.ar    1  <O>11      -0.0491
  26 H1        7.2710    -1.2390    -3.9420  H       1  <O>11       0.1494
  27 H2        5.8029    -0.0643    -2.5536  H       1  <O>11       0.0528
  28 H3        6.5663    -0.9115    -1.1873  H       1  <O>11       0.0528
  29 H4       10.2796     2.4164    -2.2057  H       1  <O>11       0.1921
  30 H5        7.5284     4.6758     0.8782  H       1  <O>11       0.0625
  31 H6        5.2972     4.3319     1.7440  H       1  <O>11       0.0618
  32 H7        4.0078     2.4023     1.0394  H       1  <O>11       0.0618
  33 H8        4.9544     0.8244    -0.5346  H       1  <O>11       0.0624
  34 H9       11.3259    -2.3790    -2.1949  H       1  <O>11       0.0625
  35 H10      12.7529    -3.5746    -3.7521  H       1  <O>11       0.0623
  36 H11       9.7457    -3.3515    -6.6805  H       1  <O>11       0.0623
  37 H12       8.3080    -2.1610    -5.1348  H       1  <O>11       0.0625
@<TRIPOS>BOND
     1     1     2    2
     2     2     3   am
     3     3     4    1
     4     4     5    1
     5     5     6   ar
     6     6     7   ar
     7     7     8   ar
     8     8     9    2
     9     8    10   ar
    10    10    11   ar
    11    11    12   ar
    12    12    13   ar
    13    13    14   ar
    14    14    15   ar
    15     5    15   ar
    16    10    15   ar
    17     2    16    1
    18    16    17   ar
    19    17    18   ar
    20    18    19   ar
    21    19    20    1
    22    20    21    1
    23    20    22    1
    24    20    23    1
    25    19    24   ar
    26    24    25   ar
    27    16    25   ar
    28     3    26    1
    29     4    27    1
    30     4    28    1
    31     7    29    1
    32    11    30    1
    33    12    31    1
    34    13    32    1
    35    14    33    1
    36    17    34    1
    37    18    35    1
    38    24    36    1
    39    25    37    1
@<TRIPOS>MOLECULE
mol36_1_27
 37 39 0 0 0
SMALL
USER_CHARGES
****
VDW energy = 4.96
@<TRIPOS>ATOM
   1 O1        9.2535    -1.1831    -1.4851  O.2     1  <O>11      -0.2702
   2 C1        8.8535    -1.4341    -2.6122  C.2     1  <O>11       0.2444
   3 N1        7.6050    -1.0300    -3.0010  N.am    1  <O>11      -0.3057
   4 C2        6.7510    -0.2990    -2.0700  C.3     1  <O>11       0.0565
   5 C3        7.4212     0.9535    -1.6664  C.ar    1  <O>11       0.0863
   6 N2        8.6415     1.1710    -2.2143  N.ar    1  <O>11      -0.1737
   7 N3        9.3647     2.2422    -1.8142  N.ar    1  <O>11      -0.2424
   8 C4        8.8459     3.0777    -0.8842  C.ar    1  <O>11       0.2725
   9 O2        9.6865     4.1159    -0.4408  O.2     1  <O>11      -0.2658
  10 C5        7.5507     2.9541    -0.3606  C.ar    1  <O>11       0.0496
  11 C6        6.9826     3.8566     0.5682  C.ar    1  <O>11      -0.0487
  12 C7        5.6984     3.6590     1.0722  C.ar    1  <O>11      -0.0610
  13 C8        4.9586     2.5529     0.6675  C.ar    1  <O>11      -0.0611
  14 C9        5.5057     1.6467    -0.2431  C.ar    1  <O>11      -0.0520
  15 C10       6.8014     1.8375    -0.7715  C.ar    1  <O>11       0.0118
  16 C11       9.7060    -2.1640    -3.5420  C.ar    1  <O>11       0.0367
  17 C12      10.9890    -2.5820    -3.1490  C.ar    1  <O>11      -0.0491
  18 C13      11.8110    -3.2720    -4.0460  C.ar    1  <O>11      -0.0494
  19 C14      11.3610    -3.5530    -5.3390  C.ar    1  <O>11       0.0549
  20 C15      12.2250    -4.2780    -6.2920  C.3     1  <O>11       0.4174
  21 F1       13.3867    -3.5593    -6.4980  F       1  <O>11      -0.1659
  22 F2       11.5590    -4.4312    -7.4919  F       1  <O>11      -0.1659
  23 F3       12.5372    -5.5207    -5.7762  F       1  <O>11      -0.1659
  24 C16      10.0810    -3.1430    -5.7270  C.ar    1  <O>11      -0.0494
  25 C17       9.2520    -2.4550    -4.8390  C.ar    1  <O>11      -0.0491
  26 H1        7.2710    -1.2390    -3.9420  H       1  <O>11       0.1494
  27 H2        5.8029    -0.0643    -2.5536  H       1  <O>11       0.0528
  28 H3        6.5663    -0.9115    -1.1873  H       1  <O>11       0.0528
  29 H4       10.2796     2.4164    -2.2057  H       1  <O>11       0.1921
  30 H5        7.5284     4.6758     0.8782  H       1  <O>11       0.0625
  31 H6        5.2972     4.3319     1.7440  H       1  <O>11       0.0618
  32 H7        4.0078     2.4023     1.0394  H       1  <O>11       0.0618
  33 H8        4.9544     0.8244    -0.5346  H       1  <O>11       0.0624
  34 H9       11.3259    -2.3790    -2.1949  H       1  <O>11       0.0625
  35 H10      12.7529    -3.5746    -3.7521  H       1  <O>11       0.0623
  36 H11       9.7457    -3.3515    -6.6805  H       1  <O>11       0.0623
  37 H12       8.3080    -2.1610    -5.1348  H       1  <O>11       0.0625
@<TRIPOS>BOND
     1     1     2    2
     2     2     3   am
     3     3     4    1
     4     4     5    1
     5     5     6   ar
     6     6     7   ar
     7     7     8   ar
     8     8     9    2
     9     8    10   ar
    10    10    11   ar
    11    11    12   ar
    12    12    13   ar
    13    13    14   ar
    14    14    15   ar
    15     5    15   ar
    16    10    15   ar
    17     2    16    1
    18    16    17   ar
    19    17    18   ar
    20    18    19   ar
    21    19    20    1
    22    20    21    1
    23    20    22    1
    24    20    23    1
    25    19    24   ar
    26    24    25   ar
    27    16    25   ar
    28     3    26    1
    29     4    27    1
    30     4    28    1
    31     7    29    1
    32    11    30    1
    33    12    31    1
    34    13    32    1
    35    14    33    1
    36    17    34    1
    37    18    35    1
    38    24    36    1
    39    25    37    1
@<TRIPOS>MOLECULE
mol36_1_28
 37 39 0 0 0
SMALL
USER_CHARGES
****
VDW energy = 4.97
@<TRIPOS>ATOM
   1 O1        9.2535    -1.1831    -1.4851  O.2     1  <O>11      -0.2702
   2 C1        8.8535    -1.4341    -2.6122  C.2     1  <O>11       0.2444
   3 N1        7.6050    -1.0300    -3.0010  N.am    1  <O>11      -0.3057
   4 C2        6.7510    -0.2990    -2.0700  C.3     1  <O>11       0.0565
   5 C3        7.4212     0.9535    -1.6664  C.ar    1  <O>11       0.0863
   6 N2        8.6415     1.1710    -2.2143  N.ar    1  <O>11      -0.1737
   7 N3        9.3647     2.2422    -1.8142  N.ar    1  <O>11      -0.2424
   8 C4        8.8459     3.0777    -0.8842  C.ar    1  <O>11       0.2725
   9 O2        9.6865     4.1159    -0.4408  O.2     1  <O>11      -0.2658
  10 C5        7.5507     2.9541    -0.3606  C.ar    1  <O>11       0.0496
  11 C6        6.9826     3.8566     0.5682  C.ar    1  <O>11      -0.0487
  12 C7        5.6984     3.6590     1.0722  C.ar    1  <O>11      -0.0610
  13 C8        4.9586     2.5529     0.6675  C.ar    1  <O>11      -0.0611
  14 C9        5.5057     1.6467    -0.2431  C.ar    1  <O>11      -0.0520
  15 C10       6.8014     1.8375    -0.7715  C.ar    1  <O>11       0.0118
  16 C11       9.7060    -2.1640    -3.5420  C.ar    1  <O>11       0.0367
  17 C12      10.9890    -2.5820    -3.1490  C.ar    1  <O>11      -0.0491
  18 C13      11.8110    -3.2720    -4.0460  C.ar    1  <O>11      -0.0494
  19 C14      11.3610    -3.5530    -5.3390  C.ar    1  <O>11       0.0549
  20 C15      12.2250    -4.2780    -6.2920  C.3     1  <O>11       0.4174
  21 F1       11.5580    -4.4320    -7.4920  F       1  <O>11      -0.1659
  22 F2       12.5380    -5.5200    -5.7760  F       1  <O>11      -0.1659
  23 F3       13.3860    -3.5590    -6.4990  F       1  <O>11      -0.1659
  24 C16      10.0810    -3.1430    -5.7270  C.ar    1  <O>11      -0.0494
  25 C17       9.2520    -2.4550    -4.8390  C.ar    1  <O>11      -0.0491
  26 H1        7.2710    -1.2390    -3.9420  H       1  <O>11       0.1494
  27 H2        5.8029    -0.0643    -2.5536  H       1  <O>11       0.0528
  28 H3        6.5663    -0.9115    -1.1873  H       1  <O>11       0.0528
  29 H4       10.2796     2.4164    -2.2057  H       1  <O>11       0.1921
  30 H5        7.5284     4.6758     0.8782  H       1  <O>11       0.0625
  31 H6        5.2972     4.3319     1.7440  H       1  <O>11       0.0618
  32 H7        4.0078     2.4023     1.0394  H       1  <O>11       0.0618
  33 H8        4.9544     0.8244    -0.5346  H       1  <O>11       0.0624
  34 H9       11.3259    -2.3790    -2.1949  H       1  <O>11       0.0625
  35 H10      12.7529    -3.5746    -3.7521  H       1  <O>11       0.0623
  36 H11       9.7457    -3.3515    -6.6805  H       1  <O>11       0.0623
  37 H12       8.3080    -2.1610    -5.1348  H       1  <O>11       0.0625
@<TRIPOS>BOND
     1     1     2    2
     2     2     3   am
     3     3     4    1
     4     4     5    1
     5     5     6   ar
     6     6     7   ar
     7     7     8   ar
     8     8     9    2
     9     8    10   ar
    10    10    11   ar
    11    11    12   ar
    12    12    13   ar
    13    13    14   ar
    14    14    15   ar
    15     5    15   ar
    16    10    15   ar
    17     2    16    1
    18    16    17   ar
    19    17    18   ar
    20    18    19   ar
    21    19    20    1
    22    20    21    1
    23    20    22    1
    24    20    23    1
    25    19    24   ar
    26    24    25   ar
    27    16    25   ar
    28     3    26    1
    29     4    27    1
    30     4    28    1
    31     7    29    1
    32    11    30    1
    33    12    31    1
    34    13    32    1
    35    14    33    1
    36    17    34    1
    37    18    35    1
    38    24    36    1
    39    25    37    1
@<TRIPOS>MOLECULE
mol36_1_29
 37 39 0 0 0
SMALL
USER_CHARGES
****
VDW energy = 27.53
@<TRIPOS>ATOM
   1 O1        9.2535    -1.1831    -1.4851  O.2     1  <O>11      -0.2702
   2 C1        8.8535    -1.4341    -2.6122  C.2     1  <O>11       0.2444
   3 N1        7.6050    -1.0300    -3.0010  N.am    1  <O>11      -0.3057
   4 C2        7.1265    -1.3297    -4.3470  C.3     1  <O>11       0.0565
   5 C3        5.7617    -0.7914    -4.5158  C.ar    1  <O>11       0.0863
   6 N2        5.2436    -0.1526    -3.4387  N.ar    1  <O>11      -0.1737
   7 N3        3.9608     0.2756    -3.4776  N.ar    1  <O>11      -0.2424
   8 C4        3.2294     0.0658    -4.5972  C.ar    1  <O>11       0.2725
   9 O2        1.8760     0.4475    -4.5381  O.2     1  <O>11      -0.2658
  10 C5        3.7466    -0.4992    -5.7720  C.ar    1  <O>11       0.0496
  11 C6        3.0031    -0.6685    -6.9631  C.ar    1  <O>11      -0.0487
  12 C7        3.5699    -1.2652    -8.0878  C.ar    1  <O>11      -0.0610
  13 C8        4.8859    -1.7135    -8.0446  C.ar    1  <O>11      -0.0611
  14 C9        5.6333    -1.5618    -6.8749  C.ar    1  <O>11      -0.0520
  15 C10       5.0777    -0.9500    -5.7296  C.ar    1  <O>11       0.0118
  16 C11       9.7060    -2.1640    -3.5420  C.ar    1  <O>11       0.0367
  17 C12       9.7487    -1.8012    -4.8991  C.ar    1  <O>11      -0.0491
  18 C13      10.5581    -2.5099    -5.7930  C.ar    1  <O>11      -0.0494
  19 C14      11.3323    -3.5825    -5.3421  C.ar    1  <O>11       0.0549
  20 C15      12.1863    -4.3371    -6.2811  C.3     1  <O>11       0.4174
  21 F1       11.4005    -4.8935    -7.2718  F       1  <O>11      -0.1659
  22 F2       12.8460    -5.3399    -5.5985  F       1  <O>11      -0.1659
  23 F3       13.1099    -3.4827    -6.8509  F       1  <O>11      -0.1659
  24 C16      11.2949    -3.9384    -3.9897  C.ar    1  <O>11      -0.0494
  25 C17      10.4915    -3.2367    -3.0889  C.ar    1  <O>11      -0.0491
  26 H1        7.0080    -0.5197    -2.3499  H       1  <O>11       0.1494
  27 H2        7.7909    -0.8719    -5.0797  H       1  <O>11       0.0528
  28 H3        7.1108    -2.4095    -4.4960  H       1  <O>11       0.0528
  29 H4        3.5548     0.7469    -2.6816  H       1  <O>11       0.1921
  30 H5        2.0240    -0.3446    -7.0001  H       1  <O>11       0.0625
  31 H6        3.0145    -1.3741    -8.9508  H       1  <O>11       0.0618
  32 H7        5.3088    -2.1570    -8.8749  H       1  <O>11       0.0618
  33 H8        6.6071    -1.9023    -6.8468  H       1  <O>11       0.0624
  34 H9        9.1806    -1.0088    -5.2374  H       1  <O>11       0.0625
  35 H10      10.5836    -2.2399    -6.7888  H       1  <O>11       0.0623
  36 H11      11.8676    -4.7285    -3.6540  H       1  <O>11       0.0623
  37 H12      10.4749    -3.5054    -2.0926  H       1  <O>11       0.0625
@<TRIPOS>BOND
     1     1     2    2
     2     2     3   am
     3     3     4    1
     4     4     5    1
     5     5     6   ar
     6     6     7   ar
     7     7     8   ar
     8     8     9    2
     9     8    10   ar
    10    10    11   ar
    11    11    12   ar
    12    12    13   ar
    13    13    14   ar
    14    14    15   ar
    15     5    15   ar
    16    10    15   ar
    17     2    16    1
    18    16    17   ar
    19    17    18   ar
    20    18    19   ar
    21    19    20    1
    22    20    21    1
    23    20    22    1
    24    20    23    1
    25    19    24   ar
    26    24    25   ar
    27    16    25   ar
    28     3    26    1
    29     4    27    1
    30     4    28    1
    31     7    29    1
    32    11    30    1
    33    12    31    1
    34    13    32    1
    35    14    33    1
    36    17    34    1
    37    18    35    1
    38    24    36    1
    39    25    37    1
@<TRIPOS>MOLECULE
mol36_1_30
 37 39 0 0 0
SMALL
USER_CHARGES
****
VDW energy = 35.77
@<TRIPOS>ATOM
   1 O1        9.2535    -1.1831    -1.4851  O.2     1  <O>11      -0.2702
   2 C1        8.8535    -1.4341    -2.6122  C.2     1  <O>11       0.2444
   3 N1        7.6050    -1.0300    -3.0010  N.am    1  <O>11      -0.3057
   4 C2        6.7510    -0.2990    -2.0700  C.3     1  <O>11       0.0565
   5 C3        6.5004    -1.1299    -0.8752  C.ar    1  <O>11       0.0863
   6 N2        5.4118    -1.9348    -0.9358  N.ar    1  <O>11      -0.1737
   7 N3        5.0545    -2.6475     0.1573  N.ar    1  <O>11      -0.2424
   8 C4        5.8010    -2.5479     1.2821  C.ar    1  <O>11       0.2725
   9 O2        5.3215    -3.2377     2.4114  O.2     1  <O>11      -0.2658
  10 C5        6.9900    -1.8090     1.3661  C.ar    1  <O>11       0.0496
  11 C6        7.8042    -1.7474     2.5209  C.ar    1  <O>11      -0.0487
  12 C7        8.9599    -0.9692     2.5472  C.ar    1  <O>11      -0.0610
  13 C8        9.3222    -0.2296     1.4263  C.ar    1  <O>11      -0.0611
  14 C9        8.5268    -0.2719     0.2794  C.ar    1  <O>11      -0.0520
  15 C10       7.3581    -1.0634     0.2322  C.ar    1  <O>11       0.0118
  16 C11       9.7060    -2.1640    -3.5420  C.ar    1  <O>11       0.0367
  17 C12      10.9890    -2.5820    -3.1490  C.ar    1  <O>11      -0.0491
  18 C13      11.8110    -3.2720    -4.0460  C.ar    1  <O>11      -0.0494
  19 C14      11.3610    -3.5530    -5.3390  C.ar    1  <O>11       0.0549
  20 C15      12.2250    -4.2780    -6.2920  C.3     1  <O>11       0.4174
  21 F1       11.5580    -4.4320    -7.4920  F       1  <O>11      -0.1659
  22 F2       12.5380    -5.5200    -5.7760  F       1  <O>11      -0.1659
  23 F3       13.3860    -3.5590    -6.4990  F       1  <O>11      -0.1659
  24 C16      10.0810    -3.1430    -5.7270  C.ar    1  <O>11      -0.0494
  25 C17       9.2520    -2.4550    -4.8390  C.ar    1  <O>11      -0.0491
  26 H1        7.2710    -1.2390    -3.9420  H       1  <O>11       0.1494
  27 H2        7.2452     0.6257    -1.7724  H       1  <O>11       0.0528
  28 H3        5.8024    -0.0643    -2.5533  H       1  <O>11       0.0528
  29 H4        4.2417    -3.2470     0.1335  H       1  <O>11       0.1921
  30 H5        7.5378    -2.2881     3.3586  H       1  <O>11       0.0625
  31 H6        9.5458    -0.9418     3.3964  H       1  <O>11       0.0618
  32 H7       10.1766     0.3489     1.4423  H       1  <O>11       0.0618
  33 H8        8.7972     0.2841    -0.5469  H       1  <O>11       0.0624
  34 H9       11.3259    -2.3790    -2.1949  H       1  <O>11       0.0625
  35 H10      12.7529    -3.5746    -3.7521  H       1  <O>11       0.0623
  36 H11       9.7457    -3.3515    -6.6805  H       1  <O>11       0.0623
  37 H12       8.3080    -2.1610    -5.1348  H       1  <O>11       0.0625
@<TRIPOS>BOND
     1     1     2    2
     2     2     3   am
     3     3     4    1
     4     4     5    1
     5     5     6   ar
     6     6     7   ar
     7     7     8   ar
     8     8     9    2
     9     8    10   ar
    10    10    11   ar
    11    11    12   ar
    12    12    13   ar
    13    13    14   ar
    14    14    15   ar
    15     5    15   ar
    16    10    15   ar
    17     2    16    1
    18    16    17   ar
    19    17    18   ar
    20    18    19   ar
    21    19    20    1
    22    20    21    1
    23    20    22    1
    24    20    23    1
    25    19    24   ar
    26    24    25   ar
    27    16    25   ar
    28     3    26    1
    29     4    27    1
    30     4    28    1
    31     7    29    1
    32    11    30    1
    33    12    31    1
    34    13    32    1
    35    14    33    1
    36    17    34    1
    37    18    35    1
    38    24    36    1
    39    25    37    1
