@<TRIPOS>MOLECULE
mol30_1_1
 41 43 0 0 0
SMALL
USER_CHARGES
****
VDW energy = -25.68
@<TRIPOS>ATOM
   1 C1       -5.9005     8.0716     0.3448  C.3     1  <O>11      -0.0189
   2 C2       -5.5928     7.9359    -1.1386  C.3     1  <O>11       0.1761
   3 O1       -6.6300     8.5400    -1.8940  O.3     1  <O>11      -0.4487
   4 C3       -6.3560     8.4200    -3.2150  C.2     1  <O>11       0.3407
   5 O2       -5.3350     7.8550    -3.5780  O.2     1  <O>11      -0.2449
   6 C4       -7.2710     8.9630    -4.1970  C.ar    1  <O>11       0.0732
   7 C5       -8.3015     8.1769    -4.6959  C.ar    1  <O>11       0.0173
   8 C6       -9.1620     8.7325    -5.6273  C.ar    1  <O>11       0.2500
   9 O3      -10.2048     7.9219    -6.1177  O.2     1  <O>11      -0.2679
  10 N1       -9.0312    10.0045    -6.0680  N.ar    1  <O>11      -0.3221
  11 C7       -8.0236    10.7700    -5.6061  C.ar    1  <O>11       0.0500
  12 C8       -7.8455    12.0842    -6.0512  C.ar    1  <O>11      -0.0377
  13 C9       -6.8440    12.9121    -5.5272  C.ar    1  <O>11      -0.0598
  14 C10      -5.9596    12.4176    -4.5766  C.ar    1  <O>11      -0.0611
  15 C11      -6.0898    11.1009    -4.1416  C.ar    1  <O>11      -0.0518
  16 C12      -7.1156    10.2811    -4.6429  C.ar    1  <O>11       0.0125
  17 C13      -5.4950     6.4910    -1.4960  C.2     1  <O>11       0.2579
  18 O4       -6.2510     6.0150    -2.3300  O.2     1  <O>11      -0.2714
  19 N2       -4.5580     5.6980    -0.8900  N.am    1  <O>11      -0.2801
  20 C14      -4.4660     4.3460    -1.2240  C.ar    1  <O>11       0.0691
  21 C15      -5.2140     3.3881    -0.5190  C.ar    1  <O>11      -0.0377
  22 C16      -5.1126     2.0317    -0.8467  C.ar    1  <O>11      -0.0598
  23 C17      -4.2665     1.6206    -1.8815  C.ar    1  <O>11      -0.0589
  24 C18      -3.5277     2.5746    -2.5872  C.ar    1  <O>11      -0.0246
  25 C19      -3.6244     3.9310    -2.2687  C.ar    1  <O>11       0.1445
  26 F1       -2.9067     4.8675    -2.9685  F       1  <O>11      -0.2035
  27 H1       -6.8465     7.5775     0.5662  H       1  <O>11       0.0270
  28 H2       -5.9721     9.1275     0.6058  H       1  <O>11       0.0270
  29 H3       -5.1033     7.6071     0.9252  H       1  <O>11       0.0270
  30 H4       -4.6467     8.4299    -1.3601  H       1  <O>11       0.0830
  31 H5       -9.6730    10.4027    -6.7391  H       1  <O>11       0.1689
  32 H6       -3.9270     6.0950    -0.1940  H       1  <O>11       0.1550
  33 H7       -8.4229     7.2020    -4.3799  H       1  <O>11       0.0680
  34 H8       -8.4689    12.4540    -6.7858  H       1  <O>11       0.0638
  35 H9       -6.7632    13.8898    -5.8476  H       1  <O>11       0.0618
  36 H10      -5.2131    13.0202    -4.1963  H       1  <O>11       0.0618
  37 H11      -5.4277    10.7241    -3.4454  H       1  <O>11       0.0624
  38 H12      -5.8413     3.6865     0.2442  H       1  <O>11       0.0637
  39 H13      -5.6633     1.3330    -0.3236  H       1  <O>11       0.0618
  40 H14      -4.1882     0.6202    -2.1225  H       1  <O>11       0.0618
  41 H15      -2.9039     2.2732    -3.3521  H       1  <O>11       0.0647
@<TRIPOS>BOND
     1     1     2    1
     2     2     3    1
     3     3     4    1
     4     4     5    2
     5     4     6    1
     6     6     7   ar
     7     7     8   ar
     8     8     9    2
     9     8    10   ar
    10    10    11   ar
    11    11    12   ar
    12    12    13   ar
    13    13    14   ar
    14    14    15   ar
    15    15    16   ar
    16     6    16   ar
    17    11    16   ar
    18     2    17    1
    19    17    18    2
    20    17    19   am
    21    19    20    1
    22    20    21   ar
    23    21    22   ar
    24    22    23   ar
    25    23    24   ar
    26    24    25   ar
    27    20    25   ar
    28    25    26    1
    29     1    27    1
    30     1    28    1
    31     1    29    1
    32     2    30    1
    33    10    31    1
    34    19    32    1
    35     7    33    1
    36    12    34    1
    37    13    35    1
    38    14    36    1
    39    15    37    1
    40    21    38    1
    41    22    39    1
    42    23    40    1
    43    24    41    1
@<TRIPOS>MOLECULE
mol30_1_2
 41 43 0 0 0
SMALL
USER_CHARGES
****
VDW energy = -24.30
@<TRIPOS>ATOM
   1 C1       -5.9005     8.0716     0.3448  C.3     1  <O>11      -0.0189
   2 C2       -5.5928     7.9359    -1.1386  C.3     1  <O>11       0.1761
   3 O1       -6.6300     8.5400    -1.8940  O.3     1  <O>11      -0.4487
   4 C3       -6.3560     8.4200    -3.2150  C.2     1  <O>11       0.3407
   5 O2       -5.3350     7.8550    -3.5780  O.2     1  <O>11      -0.2449
   6 C4       -7.2710     8.9630    -4.1970  C.ar    1  <O>11       0.0732
   7 C5       -7.5337     8.2598    -5.3655  C.ar    1  <O>11       0.0173
   8 C6       -8.4204     8.8061    -6.2776  C.ar    1  <O>11       0.2500
   9 O3       -8.6790     8.0757    -7.4544  O.2     1  <O>11      -0.2679
  10 N1       -9.0318     9.9950    -6.0727  N.ar    1  <O>11      -0.3221
  11 C7       -8.7695    10.6954    -4.9523  C.ar    1  <O>11       0.0500
  12 C8       -9.3688    11.9366    -4.7134  C.ar    1  <O>11      -0.0377
  13 C9       -9.1576    12.6415    -3.5211  C.ar    1  <O>11      -0.0598
  14 C10      -8.2918    12.1367    -2.5588  C.ar    1  <O>11      -0.0611
  15 C11      -7.6521    10.9205    -2.7856  C.ar    1  <O>11      -0.0518
  16 C12      -7.8903    10.1975    -3.9672  C.ar    1  <O>11       0.0125
  17 C13      -5.4950     6.4910    -1.4960  C.2     1  <O>11       0.2579
  18 O4       -4.3992     5.9601    -1.6012  O.2     1  <O>11      -0.2714
  19 N2       -6.6329     5.7594    -1.7059  N.am    1  <O>11      -0.2801
  20 C14      -6.5420     4.4074    -2.0403  C.ar    1  <O>11       0.0691
  21 C15      -6.4669     4.0126    -3.3866  C.ar    1  <O>11      -0.0377
  22 C16      -6.3875     2.6565    -3.7217  C.ar    1  <O>11      -0.0598
  23 C17      -6.3797     1.6842    -2.7166  C.ar    1  <O>11      -0.0589
  24 C18      -6.4475     2.0776    -1.3771  C.ar    1  <O>11      -0.0246
  25 C19      -6.5246     3.4291    -1.0331  C.ar    1  <O>11       0.1445
  26 F1       -6.5808     3.8148     0.2822  F       1  <O>11      -0.2035
  27 H1       -6.8465     7.5775     0.5662  H       1  <O>11       0.0270
  28 H2       -5.9721     9.1275     0.6058  H       1  <O>11       0.0270
  29 H3       -5.1033     7.6071     0.9252  H       1  <O>11       0.0270
  30 H4       -4.6467     8.4299    -1.3601  H       1  <O>11       0.0830
  31 H5       -9.6864    10.3776    -6.7405  H       1  <O>11       0.1689
  32 H6       -7.5474     6.2022    -1.6182  H       1  <O>11       0.1550
  33 H7       -7.0788     7.3519    -5.5494  H       1  <O>11       0.0680
  34 H8       -9.9834    12.3444    -5.4353  H       1  <O>11       0.0638
  35 H9       -9.6454    13.5361    -3.3576  H       1  <O>11       0.0618
  36 H10      -8.1242    12.6580    -1.6841  H       1  <O>11       0.0618
  37 H11      -6.9979    10.5470    -2.0803  H       1  <O>11       0.0624
  38 H12      -6.4703     4.7264    -4.1320  H       1  <O>11       0.0637
  39 H13      -6.3346     2.3732    -4.7127  H       1  <O>11       0.0618
  40 H14      -6.3243     0.6833    -2.9622  H       1  <O>11       0.0618
  41 H15      -6.4404     1.3615    -0.6340  H       1  <O>11       0.0647
@<TRIPOS>BOND
     1     1     2    1
     2     2     3    1
     3     3     4    1
     4     4     5    2
     5     4     6    1
     6     6     7   ar
     7     7     8   ar
     8     8     9    2
     9     8    10   ar
    10    10    11   ar
    11    11    12   ar
    12    12    13   ar
    13    13    14   ar
    14    14    15   ar
    15    15    16   ar
    16     6    16   ar
    17    11    16   ar
    18     2    17    1
    19    17    18    2
    20    17    19   am
    21    19    20    1
    22    20    21   ar
    23    21    22   ar
    24    22    23   ar
    25    23    24   ar
    26    24    25   ar
    27    20    25   ar
    28    25    26    1
    29     1    27    1
    30     1    28    1
    31     1    29    1
    32     2    30    1
    33    10    31    1
    34    19    32    1
    35     7    33    1
    36    12    34    1
    37    13    35    1
    38    14    36    1
    39    15    37    1
    40    21    38    1
    41    22    39    1
    42    23    40    1
    43    24    41    1
@<TRIPOS>MOLECULE
mol30_1_3
 41 43 0 0 0
SMALL
USER_CHARGES
****
VDW energy = -22.22
@<TRIPOS>ATOM
   1 C1       -5.9005     8.0716     0.3448  C.3     1  <O>11      -0.0189
   2 C2       -5.5928     7.9359    -1.1386  C.3     1  <O>11       0.1761
   3 O1       -6.6300     8.5400    -1.8940  O.3     1  <O>11      -0.4487
   4 C3       -6.3560     8.4200    -3.2150  C.2     1  <O>11       0.3407
   5 O2       -5.3350     7.8550    -3.5780  O.2     1  <O>11      -0.2449
   6 C4       -7.2710     8.9630    -4.1970  C.ar    1  <O>11       0.0732
   7 C5       -8.3015     8.1769    -4.6959  C.ar    1  <O>11       0.0173
   8 C6       -9.1620     8.7325    -5.6273  C.ar    1  <O>11       0.2500
   9 O3      -10.2048     7.9219    -6.1177  O.2     1  <O>11      -0.2679
  10 N1       -9.0312    10.0045    -6.0680  N.ar    1  <O>11      -0.3221
  11 C7       -8.0236    10.7700    -5.6061  C.ar    1  <O>11       0.0500
  12 C8       -7.8455    12.0842    -6.0512  C.ar    1  <O>11      -0.0377
  13 C9       -6.8440    12.9121    -5.5272  C.ar    1  <O>11      -0.0598
  14 C10      -5.9596    12.4176    -4.5766  C.ar    1  <O>11      -0.0611
  15 C11      -6.0898    11.1009    -4.1416  C.ar    1  <O>11      -0.0518
  16 C12      -7.1156    10.2811    -4.6429  C.ar    1  <O>11       0.0125
  17 C13      -5.4950     6.4910    -1.4960  C.2     1  <O>11       0.2579
  18 O4       -6.2510     6.0150    -2.3300  O.2     1  <O>11      -0.2714
  19 N2       -4.5580     5.6980    -0.8900  N.am    1  <O>11      -0.2801
  20 C14      -4.4660     4.3460    -1.2240  C.ar    1  <O>11       0.0691
  21 C15      -4.6515     3.3581    -0.2424  C.ar    1  <O>11      -0.0377
  22 C16      -4.5477     2.0031    -0.5754  C.ar    1  <O>11      -0.0598
  23 C17      -4.2608     1.6232    -1.8903  C.ar    1  <O>11      -0.0589
  24 C18      -4.0832     2.6062    -2.8681  C.ar    1  <O>11      -0.0246
  25 C19      -4.1872     3.9611    -2.5454  C.ar    1  <O>11       0.1445
  26 F1       -4.0229     4.9248    -3.5077  F       1  <O>11      -0.2035
  27 H1       -6.8465     7.5775     0.5662  H       1  <O>11       0.0270
  28 H2       -5.9721     9.1275     0.6058  H       1  <O>11       0.0270
  29 H3       -5.1033     7.6071     0.9252  H       1  <O>11       0.0270
  30 H4       -4.6467     8.4299    -1.3601  H       1  <O>11       0.0830
  31 H5       -9.6730    10.4027    -6.7391  H       1  <O>11       0.1689
  32 H6       -3.9270     6.0950    -0.1940  H       1  <O>11       0.1550
  33 H7       -8.4229     7.2020    -4.3799  H       1  <O>11       0.0680
  34 H8       -8.4689    12.4540    -6.7858  H       1  <O>11       0.0638
  35 H9       -6.7632    13.8898    -5.8476  H       1  <O>11       0.0618
  36 H10      -5.2131    13.0202    -4.1963  H       1  <O>11       0.0618
  37 H11      -5.4277    10.7241    -3.4454  H       1  <O>11       0.0624
  38 H12      -4.8653     3.6332     0.7291  H       1  <O>11       0.0637
  39 H13      -4.6830     1.2825     0.1509  H       1  <O>11       0.0618
  40 H14      -4.1808     0.6243    -2.1371  H       1  <O>11       0.0618
  41 H15      -3.8728     2.3276    -3.8393  H       1  <O>11       0.0647
@<TRIPOS>BOND
     1     1     2    1
     2     2     3    1
     3     3     4    1
     4     4     5    2
     5     4     6    1
     6     6     7   ar
     7     7     8   ar
     8     8     9    2
     9     8    10   ar
    10    10    11   ar
    11    11    12   ar
    12    12    13   ar
    13    13    14   ar
    14    14    15   ar
    15    15    16   ar
    16     6    16   ar
    17    11    16   ar
    18     2    17    1
    19    17    18    2
    20    17    19   am
    21    19    20    1
    22    20    21   ar
    23    21    22   ar
    24    22    23   ar
    25    23    24   ar
    26    24    25   ar
    27    20    25   ar
    28    25    26    1
    29     1    27    1
    30     1    28    1
    31     1    29    1
    32     2    30    1
    33    10    31    1
    34    19    32    1
    35     7    33    1
    36    12    34    1
    37    13    35    1
    38    14    36    1
    39    15    37    1
    40    21    38    1
    41    22    39    1
    42    23    40    1
    43    24    41    1
@<TRIPOS>MOLECULE
mol30_1_4
 41 43 0 0 0
SMALL
USER_CHARGES
****
VDW energy = -21.48
@<TRIPOS>ATOM
   1 C1       -5.9005     8.0716     0.3448  C.3     1  <O>11      -0.0189
   2 C2       -5.5928     7.9359    -1.1386  C.3     1  <O>11       0.1761
   3 O1       -6.6300     8.5400    -1.8940  O.3     1  <O>11      -0.4487
   4 C3       -6.3560     8.4200    -3.2150  C.2     1  <O>11       0.3407
   5 O2       -5.3350     7.8550    -3.5780  O.2     1  <O>11      -0.2449
   6 C4       -7.2710     8.9630    -4.1970  C.ar    1  <O>11       0.0732
   7 C5       -7.5337     8.2598    -5.3655  C.ar    1  <O>11       0.0173
   8 C6       -8.4204     8.8061    -6.2776  C.ar    1  <O>11       0.2500
   9 O3       -8.6790     8.0757    -7.4544  O.2     1  <O>11      -0.2679
  10 N1       -9.0318     9.9950    -6.0727  N.ar    1  <O>11      -0.3221
  11 C7       -8.7695    10.6954    -4.9523  C.ar    1  <O>11       0.0500
  12 C8       -9.3688    11.9366    -4.7134  C.ar    1  <O>11      -0.0377
  13 C9       -9.1576    12.6415    -3.5211  C.ar    1  <O>11      -0.0598
  14 C10      -8.2918    12.1367    -2.5588  C.ar    1  <O>11      -0.0611
  15 C11      -7.6521    10.9205    -2.7856  C.ar    1  <O>11      -0.0518
  16 C12      -7.8903    10.1975    -3.9672  C.ar    1  <O>11       0.0125
  17 C13      -5.4950     6.4910    -1.4960  C.2     1  <O>11       0.2579
  18 O4       -4.3992     5.9601    -1.6012  O.2     1  <O>11      -0.2714
  19 N2       -6.6329     5.7594    -1.7059  N.am    1  <O>11      -0.2801
  20 C14      -6.5420     4.4074    -2.0403  C.ar    1  <O>11       0.0691
  21 C15      -7.0755     3.9386    -3.2526  C.ar    1  <O>11      -0.0377
  22 C16      -6.9944     2.5812    -3.5820  C.ar    1  <O>11      -0.0598
  23 C17      -6.3783     1.6817    -2.7062  C.ar    1  <O>11      -0.0589
  24 C18      -5.8414     2.1496    -1.5034  C.ar    1  <O>11      -0.0246
  25 C19      -5.9157     3.5032    -1.1673  C.ar    1  <O>11       0.1445
  26 F1       -5.3796     3.9631     0.0086  F       1  <O>11      -0.2035
  27 H1       -6.8465     7.5775     0.5662  H       1  <O>11       0.0270
  28 H2       -5.9721     9.1275     0.6058  H       1  <O>11       0.0270
  29 H3       -5.1033     7.6071     0.9252  H       1  <O>11       0.0270
  30 H4       -4.6467     8.4299    -1.3601  H       1  <O>11       0.0830
  31 H5       -9.6864    10.3776    -6.7405  H       1  <O>11       0.1689
  32 H6       -7.5474     6.2022    -1.6182  H       1  <O>11       0.1550
  33 H7       -7.0788     7.3519    -5.5494  H       1  <O>11       0.0680
  34 H8       -9.9834    12.3444    -5.4353  H       1  <O>11       0.0638
  35 H9       -9.6454    13.5361    -3.3576  H       1  <O>11       0.0618
  36 H10      -8.1242    12.6580    -1.6841  H       1  <O>11       0.0618
  37 H11      -6.9979    10.5470    -2.0803  H       1  <O>11       0.0624
  38 H12      -7.5295     4.5986    -3.9032  H       1  <O>11       0.0637
  39 H13      -7.3901     2.2430    -4.4731  H       1  <O>11       0.0618
  40 H14      -6.3203     0.6797    -2.9462  H       1  <O>11       0.0618
  41 H15      -5.3851     1.4875    -0.8565  H       1  <O>11       0.0647
@<TRIPOS>BOND
     1     1     2    1
     2     2     3    1
     3     3     4    1
     4     4     5    2
     5     4     6    1
     6     6     7   ar
     7     7     8   ar
     8     8     9    2
     9     8    10   ar
    10    10    11   ar
    11    11    12   ar
    12    12    13   ar
    13    13    14   ar
    14    14    15   ar
    15    15    16   ar
    16     6    16   ar
    17    11    16   ar
    18     2    17    1
    19    17    18    2
    20    17    19   am
    21    19    20    1
    22    20    21   ar
    23    21    22   ar
    24    22    23   ar
    25    23    24   ar
    26    24    25   ar
    27    20    25   ar
    28    25    26    1
    29     1    27    1
    30     1    28    1
    31     1    29    1
    32     2    30    1
    33    10    31    1
    34    19    32    1
    35     7    33    1
    36    12    34    1
    37    13    35    1
    38    14    36    1
    39    15    37    1
    40    21    38    1
    41    22    39    1
    42    23    40    1
    43    24    41    1
@<TRIPOS>MOLECULE
mol30_1_5
 41 43 0 0 0
SMALL
USER_CHARGES
****
VDW energy = -18.12
@<TRIPOS>ATOM
   1 C1       -5.9005     8.0716     0.3448  C.3     1  <O>11      -0.0189
   2 C2       -5.5928     7.9359    -1.1386  C.3     1  <O>11       0.1761
   3 O1       -6.6300     8.5400    -1.8940  O.3     1  <O>11      -0.4487
   4 C3       -6.3560     8.4200    -3.2150  C.2     1  <O>11       0.3407
   5 O2       -5.3350     7.8550    -3.5780  O.2     1  <O>11      -0.2449
   6 C4       -7.2710     8.9630    -4.1970  C.ar    1  <O>11       0.0732
   7 C5       -6.7781     9.5969    -5.3301  C.ar    1  <O>11       0.0173
   8 C6       -7.6828    10.0964    -6.2514  C.ar    1  <O>11       0.2500
   9 O3       -7.1643    10.7311    -7.3975  O.2     1  <O>11      -0.2679
  10 N1       -9.0209     9.9925    -6.0842  N.ar    1  <O>11      -0.3221
  11 C7       -9.5107     9.3973    -4.9795  C.ar    1  <O>11       0.0500
  12 C8      -10.8883     9.2865    -4.7630  C.ar    1  <O>11      -0.0377
  13 C9      -11.4093     8.6089    -3.6529  C.ar    1  <O>11      -0.0598
  14 C10     -10.5519     8.0703    -2.7014  C.ar    1  <O>11      -0.0611
  15 C11      -9.1755     8.1977    -2.8717  C.ar    1  <O>11      -0.0518
  16 C12      -8.6529     8.8483    -4.0028  C.ar    1  <O>11       0.0125
  17 C13      -5.4950     6.4910    -1.4960  C.2     1  <O>11       0.2579
  18 O4       -6.2510     6.0150    -2.3300  O.2     1  <O>11      -0.2714
  19 N2       -4.5580     5.6980    -0.8900  N.am    1  <O>11      -0.2801
  20 C14      -4.4660     4.3460    -1.2240  C.ar    1  <O>11       0.0691
  21 C15      -5.2140     3.3881    -0.5190  C.ar    1  <O>11      -0.0377
  22 C16      -5.1126     2.0317    -0.8467  C.ar    1  <O>11      -0.0598
  23 C17      -4.2665     1.6206    -1.8815  C.ar    1  <O>11      -0.0589
  24 C18      -3.5277     2.5746    -2.5872  C.ar    1  <O>11      -0.0246
  25 C19      -3.6244     3.9310    -2.2687  C.ar    1  <O>11       0.1445
  26 F1       -2.9067     4.8675    -2.9685  F       1  <O>11      -0.2035
  27 H1       -6.8465     7.5775     0.5662  H       1  <O>11       0.0270
  28 H2       -5.9721     9.1275     0.6058  H       1  <O>11       0.0270
  29 H3       -5.1033     7.6071     0.9252  H       1  <O>11       0.0270
  30 H4       -4.6467     8.4299    -1.3601  H       1  <O>11       0.0830
  31 H5       -9.6711    10.3503    -6.7698  H       1  <O>11       0.1689
  32 H6       -3.9270     6.0950    -0.1940  H       1  <O>11       0.1550
  33 H7       -5.7619     9.6934    -5.4817  H       1  <O>11       0.0680
  34 H8      -11.5387     9.7157    -5.4396  H       1  <O>11       0.0638
  35 H9      -12.4305     8.5098    -3.5418  H       1  <O>11       0.0618
  36 H10     -10.9314     7.5805    -1.8762  H       1  <O>11       0.0618
  37 H11      -8.5340     7.8112    -2.1617  H       1  <O>11       0.0624
  38 H12      -5.8413     3.6865     0.2442  H       1  <O>11       0.0637
  39 H13      -5.6633     1.3330    -0.3236  H       1  <O>11       0.0618
  40 H14      -4.1882     0.6202    -2.1225  H       1  <O>11       0.0618
  41 H15      -2.9039     2.2732    -3.3521  H       1  <O>11       0.0647
@<TRIPOS>BOND
     1     1     2    1
     2     2     3    1
     3     3     4    1
     4     4     5    2
     5     4     6    1
     6     6     7   ar
     7     7     8   ar
     8     8     9    2
     9     8    10   ar
    10    10    11   ar
    11    11    12   ar
    12    12    13   ar
    13    13    14   ar
    14    14    15   ar
    15    15    16   ar
    16     6    16   ar
    17    11    16   ar
    18     2    17    1
    19    17    18    2
    20    17    19   am
    21    19    20    1
    22    20    21   ar
    23    21    22   ar
    24    22    23   ar
    25    23    24   ar
    26    24    25   ar
    27    20    25   ar
    28    25    26    1
    29     1    27    1
    30     1    28    1
    31     1    29    1
    32     2    30    1
    33    10    31    1
    34    19    32    1
    35     7    33    1
    36    12    34    1
    37    13    35    1
    38    14    36    1
    39    15    37    1
    40    21    38    1
    41    22    39    1
    42    23    40    1
    43    24    41    1
@<TRIPOS>MOLECULE
mol30_1_6
 41 43 0 0 0
SMALL
USER_CHARGES
****
VDW energy = -17.52
@<TRIPOS>ATOM
   1 C1       -5.9005     8.0716     0.3448  C.3     1  <O>11      -0.0189
   2 C2       -5.5928     7.9359    -1.1386  C.3     1  <O>11       0.1761
   3 O1       -6.6300     8.5400    -1.8940  O.3     1  <O>11      -0.4487
   4 C3       -6.3560     8.4200    -3.2150  C.2     1  <O>11       0.3407
   5 O2       -5.3350     7.8550    -3.5780  O.2     1  <O>11      -0.2449
   6 C4       -7.2710     8.9630    -4.1970  C.ar    1  <O>11       0.0732
   7 C5       -7.5337     8.2598    -5.3655  C.ar    1  <O>11       0.0173
   8 C6       -8.4204     8.8061    -6.2776  C.ar    1  <O>11       0.2500
   9 O3       -8.6790     8.0757    -7.4544  O.2     1  <O>11      -0.2679
  10 N1       -9.0318     9.9950    -6.0727  N.ar    1  <O>11      -0.3221
  11 C7       -8.7695    10.6954    -4.9523  C.ar    1  <O>11       0.0500
  12 C8       -9.3688    11.9366    -4.7134  C.ar    1  <O>11      -0.0377
  13 C9       -9.1576    12.6415    -3.5211  C.ar    1  <O>11      -0.0598
  14 C10      -8.2918    12.1367    -2.5588  C.ar    1  <O>11      -0.0611
  15 C11      -7.6521    10.9205    -2.7856  C.ar    1  <O>11      -0.0518
  16 C12      -7.8903    10.1975    -3.9672  C.ar    1  <O>11       0.0125
  17 C13      -5.4950     6.4910    -1.4960  C.2     1  <O>11       0.2579
  18 O4       -6.2510     6.0150    -2.3300  O.2     1  <O>11      -0.2714
  19 N2       -4.5580     5.6980    -0.8900  N.am    1  <O>11      -0.2801
  20 C14      -4.4660     4.3460    -1.2240  C.ar    1  <O>11       0.0691
  21 C15      -5.2140     3.3881    -0.5190  C.ar    1  <O>11      -0.0377
  22 C16      -5.1126     2.0317    -0.8467  C.ar    1  <O>11      -0.0598
  23 C17      -4.2665     1.6206    -1.8815  C.ar    1  <O>11      -0.0589
  24 C18      -3.5277     2.5746    -2.5872  C.ar    1  <O>11      -0.0246
  25 C19      -3.6244     3.9310    -2.2687  C.ar    1  <O>11       0.1445
  26 F1       -2.9067     4.8675    -2.9685  F       1  <O>11      -0.2035
  27 H1       -6.8465     7.5775     0.5662  H       1  <O>11       0.0270
  28 H2       -5.9721     9.1275     0.6058  H       1  <O>11       0.0270
  29 H3       -5.1033     7.6071     0.9252  H       1  <O>11       0.0270
  30 H4       -4.6467     8.4299    -1.3601  H       1  <O>11       0.0830
  31 H5       -9.6864    10.3776    -6.7405  H       1  <O>11       0.1689
  32 H6       -3.9270     6.0950    -0.1940  H       1  <O>11       0.1550
  33 H7       -7.0788     7.3519    -5.5494  H       1  <O>11       0.0680
  34 H8       -9.9834    12.3444    -5.4353  H       1  <O>11       0.0638
  35 H9       -9.6454    13.5361    -3.3576  H       1  <O>11       0.0618
  36 H10      -8.1242    12.6580    -1.6841  H       1  <O>11       0.0618
  37 H11      -6.9979    10.5470    -2.0803  H       1  <O>11       0.0624
  38 H12      -5.8413     3.6865     0.2442  H       1  <O>11       0.0637
  39 H13      -5.6633     1.3330    -0.3236  H       1  <O>11       0.0618
  40 H14      -4.1882     0.6202    -2.1225  H       1  <O>11       0.0618
  41 H15      -2.9039     2.2732    -3.3521  H       1  <O>11       0.0647
@<TRIPOS>BOND
     1     1     2    1
     2     2     3    1
     3     3     4    1
     4     4     5    2
     5     4     6    1
     6     6     7   ar
     7     7     8   ar
     8     8     9    2
     9     8    10   ar
    10    10    11   ar
    11    11    12   ar
    12    12    13   ar
    13    13    14   ar
    14    14    15   ar
    15    15    16   ar
    16     6    16   ar
    17    11    16   ar
    18     2    17    1
    19    17    18    2
    20    17    19   am
    21    19    20    1
    22    20    21   ar
    23    21    22   ar
    24    22    23   ar
    25    23    24   ar
    26    24    25   ar
    27    20    25   ar
    28    25    26    1
    29     1    27    1
    30     1    28    1
    31     1    29    1
    32     2    30    1
    33    10    31    1
    34    19    32    1
    35     7    33    1
    36    12    34    1
    37    13    35    1
    38    14    36    1
    39    15    37    1
    40    21    38    1
    41    22    39    1
    42    23    40    1
    43    24    41    1
@<TRIPOS>MOLECULE
mol30_1_7
 41 43 0 0 0
SMALL
USER_CHARGES
****
VDW energy = -14.69
@<TRIPOS>ATOM
   1 C1       -5.9005     8.0716     0.3448  C.3     1  <O>11      -0.0189
   2 C2       -5.5928     7.9359    -1.1386  C.3     1  <O>11       0.1761
   3 O1       -6.6300     8.5400    -1.8940  O.3     1  <O>11      -0.4487
   4 C3       -6.3560     8.4200    -3.2150  C.2     1  <O>11       0.3407
   5 O2       -5.3350     7.8550    -3.5780  O.2     1  <O>11      -0.2449
   6 C4       -7.2710     8.9630    -4.1970  C.ar    1  <O>11       0.0732
   7 C5       -6.7781     9.5969    -5.3301  C.ar    1  <O>11       0.0173
   8 C6       -7.6828    10.0964    -6.2514  C.ar    1  <O>11       0.2500
   9 O3       -7.1643    10.7311    -7.3975  O.2     1  <O>11      -0.2679
  10 N1       -9.0209     9.9925    -6.0842  N.ar    1  <O>11      -0.3221
  11 C7       -9.5107     9.3973    -4.9795  C.ar    1  <O>11       0.0500
  12 C8      -10.8883     9.2865    -4.7630  C.ar    1  <O>11      -0.0377
  13 C9      -11.4093     8.6089    -3.6529  C.ar    1  <O>11      -0.0598
  14 C10     -10.5519     8.0703    -2.7014  C.ar    1  <O>11      -0.0611
  15 C11      -9.1755     8.1977    -2.8717  C.ar    1  <O>11      -0.0518
  16 C12      -8.6529     8.8483    -4.0028  C.ar    1  <O>11       0.0125
  17 C13      -5.4950     6.4910    -1.4960  C.2     1  <O>11       0.2579
  18 O4       -6.2510     6.0150    -2.3300  O.2     1  <O>11      -0.2714
  19 N2       -4.5580     5.6980    -0.8900  N.am    1  <O>11      -0.2801
  20 C14      -4.4660     4.3460    -1.2240  C.ar    1  <O>11       0.0691
  21 C15      -4.6515     3.3581    -0.2424  C.ar    1  <O>11      -0.0377
  22 C16      -4.5477     2.0031    -0.5754  C.ar    1  <O>11      -0.0598
  23 C17      -4.2608     1.6232    -1.8903  C.ar    1  <O>11      -0.0589
  24 C18      -4.0832     2.6062    -2.8681  C.ar    1  <O>11      -0.0246
  25 C19      -4.1872     3.9611    -2.5454  C.ar    1  <O>11       0.1445
  26 F1       -4.0229     4.9248    -3.5077  F       1  <O>11      -0.2035
  27 H1       -6.8465     7.5775     0.5662  H       1  <O>11       0.0270
  28 H2       -5.9721     9.1275     0.6058  H       1  <O>11       0.0270
  29 H3       -5.1033     7.6071     0.9252  H       1  <O>11       0.0270
  30 H4       -4.6467     8.4299    -1.3601  H       1  <O>11       0.0830
  31 H5       -9.6711    10.3503    -6.7698  H       1  <O>11       0.1689
  32 H6       -3.9270     6.0950    -0.1940  H       1  <O>11       0.1550
  33 H7       -5.7619     9.6934    -5.4817  H       1  <O>11       0.0680
  34 H8      -11.5387     9.7157    -5.4396  H       1  <O>11       0.0638
  35 H9      -12.4305     8.5098    -3.5418  H       1  <O>11       0.0618
  36 H10     -10.9314     7.5805    -1.8762  H       1  <O>11       0.0618
  37 H11      -8.5340     7.8112    -2.1617  H       1  <O>11       0.0624
  38 H12      -4.8653     3.6332     0.7291  H       1  <O>11       0.0637
  39 H13      -4.6830     1.2825     0.1509  H       1  <O>11       0.0618
  40 H14      -4.1808     0.6243    -2.1371  H       1  <O>11       0.0618
  41 H15      -3.8728     2.3276    -3.8393  H       1  <O>11       0.0647
@<TRIPOS>BOND
     1     1     2    1
     2     2     3    1
     3     3     4    1
     4     4     5    2
     5     4     6    1
     6     6     7   ar
     7     7     8   ar
     8     8     9    2
     9     8    10   ar
    10    10    11   ar
    11    11    12   ar
    12    12    13   ar
    13    13    14   ar
    14    14    15   ar
    15    15    16   ar
    16     6    16   ar
    17    11    16   ar
    18     2    17    1
    19    17    18    2
    20    17    19   am
    21    19    20    1
    22    20    21   ar
    23    21    22   ar
    24    22    23   ar
    25    23    24   ar
    26    24    25   ar
    27    20    25   ar
    28    25    26    1
    29     1    27    1
    30     1    28    1
    31     1    29    1
    32     2    30    1
    33    10    31    1
    34    19    32    1
    35     7    33    1
    36    12    34    1
    37    13    35    1
    38    14    36    1
    39    15    37    1
    40    21    38    1
    41    22    39    1
    42    23    40    1
    43    24    41    1
@<TRIPOS>MOLECULE
mol30_1_8
 41 43 0 0 0
SMALL
USER_CHARGES
****
VDW energy = -14.03
@<TRIPOS>ATOM
   1 C1       -5.9005     8.0716     0.3448  C.3     1  <O>11      -0.0189
   2 C2       -5.5928     7.9359    -1.1386  C.3     1  <O>11       0.1761
   3 O1       -6.6300     8.5400    -1.8940  O.3     1  <O>11      -0.4487
   4 C3       -6.3560     8.4200    -3.2150  C.2     1  <O>11       0.3407
   5 O2       -5.3350     7.8550    -3.5780  O.2     1  <O>11      -0.2449
   6 C4       -7.2710     8.9630    -4.1970  C.ar    1  <O>11       0.0732
   7 C5       -7.5337     8.2598    -5.3655  C.ar    1  <O>11       0.0173
   8 C6       -8.4204     8.8061    -6.2776  C.ar    1  <O>11       0.2500
   9 O3       -8.6790     8.0757    -7.4544  O.2     1  <O>11      -0.2679
  10 N1       -9.0318     9.9950    -6.0727  N.ar    1  <O>11      -0.3221
  11 C7       -8.7695    10.6954    -4.9523  C.ar    1  <O>11       0.0500
  12 C8       -9.3688    11.9366    -4.7134  C.ar    1  <O>11      -0.0377
  13 C9       -9.1576    12.6415    -3.5211  C.ar    1  <O>11      -0.0598
  14 C10      -8.2918    12.1367    -2.5588  C.ar    1  <O>11      -0.0611
  15 C11      -7.6521    10.9205    -2.7856  C.ar    1  <O>11      -0.0518
  16 C12      -7.8903    10.1975    -3.9672  C.ar    1  <O>11       0.0125
  17 C13      -5.4950     6.4910    -1.4960  C.2     1  <O>11       0.2579
  18 O4       -6.2510     6.0150    -2.3300  O.2     1  <O>11      -0.2714
  19 N2       -4.5580     5.6980    -0.8900  N.am    1  <O>11      -0.2801
  20 C14      -4.4660     4.3460    -1.2240  C.ar    1  <O>11       0.0691
  21 C15      -4.6515     3.3581    -0.2424  C.ar    1  <O>11      -0.0377
  22 C16      -4.5477     2.0031    -0.5754  C.ar    1  <O>11      -0.0598
  23 C17      -4.2608     1.6232    -1.8903  C.ar    1  <O>11      -0.0589
  24 C18      -4.0832     2.6062    -2.8681  C.ar    1  <O>11      -0.0246
  25 C19      -4.1872     3.9611    -2.5454  C.ar    1  <O>11       0.1445
  26 F1       -4.0229     4.9248    -3.5077  F       1  <O>11      -0.2035
  27 H1       -6.8465     7.5775     0.5662  H       1  <O>11       0.0270
  28 H2       -5.9721     9.1275     0.6058  H       1  <O>11       0.0270
  29 H3       -5.1033     7.6071     0.9252  H       1  <O>11       0.0270
  30 H4       -4.6467     8.4299    -1.3601  H       1  <O>11       0.0830
  31 H5       -9.6864    10.3776    -6.7405  H       1  <O>11       0.1689
  32 H6       -3.9270     6.0950    -0.1940  H       1  <O>11       0.1550
  33 H7       -7.0788     7.3519    -5.5494  H       1  <O>11       0.0680
  34 H8       -9.9834    12.3444    -5.4353  H       1  <O>11       0.0638
  35 H9       -9.6454    13.5361    -3.3576  H       1  <O>11       0.0618
  36 H10      -8.1242    12.6580    -1.6841  H       1  <O>11       0.0618
  37 H11      -6.9979    10.5470    -2.0803  H       1  <O>11       0.0624
  38 H12      -4.8653     3.6332     0.7291  H       1  <O>11       0.0637
  39 H13      -4.6830     1.2825     0.1509  H       1  <O>11       0.0618
  40 H14      -4.1808     0.6243    -2.1371  H       1  <O>11       0.0618
  41 H15      -3.8728     2.3276    -3.8393  H       1  <O>11       0.0647
@<TRIPOS>BOND
     1     1     2    1
     2     2     3    1
     3     3     4    1
     4     4     5    2
     5     4     6    1
     6     6     7   ar
     7     7     8   ar
     8     8     9    2
     9     8    10   ar
    10    10    11   ar
    11    11    12   ar
    12    12    13   ar
    13    13    14   ar
    14    14    15   ar
    15    15    16   ar
    16     6    16   ar
    17    11    16   ar
    18     2    17    1
    19    17    18    2
    20    17    19   am
    21    19    20    1
    22    20    21   ar
    23    21    22   ar
    24    22    23   ar
    25    23    24   ar
    26    24    25   ar
    27    20    25   ar
    28    25    26    1
    29     1    27    1
    30     1    28    1
    31     1    29    1
    32     2    30    1
    33    10    31    1
    34    19    32    1
    35     7    33    1
    36    12    34    1
    37    13    35    1
    38    14    36    1
    39    15    37    1
    40    21    38    1
    41    22    39    1
    42    23    40    1
    43    24    41    1
@<TRIPOS>MOLECULE
mol30_1_9
 41 43 0 0 0
SMALL
USER_CHARGES
****
VDW energy = -10.82
@<TRIPOS>ATOM
   1 C1       -5.9005     8.0716     0.3448  C.3     1  <O>11      -0.0189
   2 C2       -5.5928     7.9359    -1.1386  C.3     1  <O>11       0.1761
   3 O1       -6.6300     8.5400    -1.8940  O.3     1  <O>11      -0.4487
   4 C3       -6.3560     8.4200    -3.2150  C.2     1  <O>11       0.3407
   5 O2       -5.3350     7.8550    -3.5780  O.2     1  <O>11      -0.2449
   6 C4       -7.2710     8.9630    -4.1970  C.ar    1  <O>11       0.0732
   7 C5       -8.4303     9.6072    -3.7850  C.ar    1  <O>11       0.0173
   8 C6       -9.2773    10.1212    -4.7520  C.ar    1  <O>11       0.2500
   9 O3      -10.4456    10.7764    -4.3149  O.2     1  <O>11      -0.2679
  10 N1       -9.0180    10.0140    -6.0750  N.ar    1  <O>11      -0.3221
  11 C7       -7.9067     9.3738    -6.4870  C.ar    1  <O>11       0.0500
  12 C8       -7.6134     9.2276    -7.8470  C.ar    1  <O>11      -0.0377
  13 C9       -6.4270     8.6253    -8.2861  C.ar    1  <O>11      -0.0598
  14 C10      -5.5281     8.1053    -7.3631  C.ar    1  <O>11      -0.0611
  15 C11      -5.8114     8.2035    -6.0031  C.ar    1  <O>11      -0.0518
  16 C12      -6.9857     8.8378    -5.5620  C.ar    1  <O>11       0.0125
  17 C13      -5.4950     6.4910    -1.4960  C.2     1  <O>11       0.2579
  18 O4       -4.3992     5.9601    -1.6012  O.2     1  <O>11      -0.2714
  19 N2       -6.6329     5.7594    -1.7059  N.am    1  <O>11      -0.2801
  20 C14      -6.5420     4.4074    -2.0403  C.ar    1  <O>11       0.0691
  21 C15      -6.4669     4.0126    -3.3866  C.ar    1  <O>11      -0.0377
  22 C16      -6.3875     2.6565    -3.7217  C.ar    1  <O>11      -0.0598
  23 C17      -6.3797     1.6842    -2.7166  C.ar    1  <O>11      -0.0589
  24 C18      -6.4475     2.0776    -1.3771  C.ar    1  <O>11      -0.0246
  25 C19      -6.5246     3.4291    -1.0331  C.ar    1  <O>11       0.1445
  26 F1       -6.5808     3.8148     0.2822  F       1  <O>11      -0.2035
  27 H1       -6.8465     7.5775     0.5662  H       1  <O>11       0.0270
  28 H2       -5.9721     9.1275     0.6058  H       1  <O>11       0.0270
  29 H3       -5.1033     7.6071     0.9252  H       1  <O>11       0.0270
  30 H4       -4.6467     8.4299    -1.3601  H       1  <O>11       0.0830
  31 H5       -9.6380    10.4040    -6.7710  H       1  <O>11       0.1689
  32 H6       -7.5474     6.2022    -1.6182  H       1  <O>11       0.1550
  33 H7       -8.6550     9.7005    -2.7820  H       1  <O>11       0.0680
  34 H8       -8.2895     9.5728    -8.5461  H       1  <O>11       0.0638
  35 H9       -6.2208     8.5679    -9.2957  H       1  <O>11       0.0618
  36 H10      -4.6585     7.6505    -7.6824  H       1  <O>11       0.0618
  37 H11      -5.1538     7.8074    -5.3134  H       1  <O>11       0.0624
  38 H12      -6.4703     4.7264    -4.1320  H       1  <O>11       0.0637
  39 H13      -6.3346     2.3732    -4.7127  H       1  <O>11       0.0618
  40 H14      -6.3243     0.6833    -2.9622  H       1  <O>11       0.0618
  41 H15      -6.4404     1.3615    -0.6340  H       1  <O>11       0.0647
@<TRIPOS>BOND
     1     1     2    1
     2     2     3    1
     3     3     4    1
     4     4     5    2
     5     4     6    1
     6     6     7   ar
     7     7     8   ar
     8     8     9    2
     9     8    10   ar
    10    10    11   ar
    11    11    12   ar
    12    12    13   ar
    13    13    14   ar
    14    14    15   ar
    15    15    16   ar
    16     6    16   ar
    17    11    16   ar
    18     2    17    1
    19    17    18    2
    20    17    19   am
    21    19    20    1
    22    20    21   ar
    23    21    22   ar
    24    22    23   ar
    25    23    24   ar
    26    24    25   ar
    27    20    25   ar
    28    25    26    1
    29     1    27    1
    30     1    28    1
    31     1    29    1
    32     2    30    1
    33    10    31    1
    34    19    32    1
    35     7    33    1
    36    12    34    1
    37    13    35    1
    38    14    36    1
    39    15    37    1
    40    21    38    1
    41    22    39    1
    42    23    40    1
    43    24    41    1
@<TRIPOS>MOLECULE
mol30_1_10
 41 43 0 0 0
SMALL
USER_CHARGES
****
VDW energy = -10.75
@<TRIPOS>ATOM
   1 C1       -5.9005     8.0716     0.3448  C.3     1  <O>11      -0.0189
   2 C2       -5.5928     7.9359    -1.1386  C.3     1  <O>11       0.1761
   3 O1       -6.6300     8.5400    -1.8940  O.3     1  <O>11      -0.4487
   4 C3       -6.3560     8.4200    -3.2150  C.2     1  <O>11       0.3407
   5 O2       -5.3350     7.8550    -3.5780  O.2     1  <O>11      -0.2449
   6 C4       -7.2710     8.9630    -4.1970  C.ar    1  <O>11       0.0732
   7 C5       -8.4310     9.6060    -3.7850  C.ar    1  <O>11       0.0173
   8 C6       -9.2780    10.1200    -4.7520  C.ar    1  <O>11       0.2500
   9 O3      -10.4470    10.7740    -4.3150  O.2     1  <O>11      -0.2679
  10 N1       -9.0180    10.0140    -6.0750  N.ar    1  <O>11      -0.3221
  11 C7       -7.9060     9.3750    -6.4870  C.ar    1  <O>11       0.0500
  12 C8       -7.6120     9.2300    -7.8470  C.ar    1  <O>11      -0.0377
  13 C9       -6.4250     8.6290    -8.2860  C.ar    1  <O>11      -0.0598
  14 C10      -5.5260     8.1090    -7.3630  C.ar    1  <O>11      -0.0611
  15 C11      -5.8100     8.2060    -6.0030  C.ar    1  <O>11      -0.0518
  16 C12      -6.9850     8.8390    -5.5620  C.ar    1  <O>11       0.0125
  17 C13      -5.4950     6.4910    -1.4960  C.2     1  <O>11       0.2579
  18 O4       -4.3992     5.9601    -1.6012  O.2     1  <O>11      -0.2714
  19 N2       -6.6329     5.7594    -1.7059  N.am    1  <O>11      -0.2801
  20 C14      -6.5420     4.4074    -2.0403  C.ar    1  <O>11       0.0691
  21 C15      -6.5247     3.4269    -1.0342  C.ar    1  <O>11      -0.0377
  22 C16      -6.4219     2.0724    -1.3695  C.ar    1  <O>11      -0.0598
  23 C17      -6.3383     1.6855    -2.7108  C.ar    1  <O>11      -0.0589
  24 C18      -6.3625     2.6608    -3.7118  C.ar    1  <O>11      -0.0246
  25 C19      -6.4673     4.0151    -3.3866  C.ar    1  <O>11       0.1445
  26 F1       -6.5012     4.9708    -4.3700  F       1  <O>11      -0.2035
  27 H1       -6.8465     7.5775     0.5662  H       1  <O>11       0.0270
  28 H2       -5.9721     9.1275     0.6058  H       1  <O>11       0.0270
  29 H3       -5.1033     7.6071     0.9252  H       1  <O>11       0.0270
  30 H4       -4.6467     8.4299    -1.3601  H       1  <O>11       0.0830
  31 H5       -9.6380    10.4040    -6.7710  H       1  <O>11       0.1689
  32 H6       -7.5474     6.2022    -1.6182  H       1  <O>11       0.1550
  33 H7       -8.6562     9.6984    -2.7821  H       1  <O>11       0.0680
  34 H8       -8.2881     9.5752    -8.5461  H       1  <O>11       0.0638
  35 H9       -6.2183     8.5725    -9.2955  H       1  <O>11       0.0618
  36 H10      -4.6559     7.6551    -7.6822  H       1  <O>11       0.0618
  37 H11      -5.1524     7.8099    -5.3133  H       1  <O>11       0.0624
  38 H12      -6.5881     3.7071    -0.0429  H       1  <O>11       0.0637
  39 H13      -6.4077     1.3573    -0.6255  H       1  <O>11       0.0618
  40 H14      -6.2593     0.6871    -2.9598  H       1  <O>11       0.0618
  41 H15      -6.3024     2.3771    -4.7022  H       1  <O>11       0.0647
@<TRIPOS>BOND
     1     1     2    1
     2     2     3    1
     3     3     4    1
     4     4     5    2
     5     4     6    1
     6     6     7   ar
     7     7     8   ar
     8     8     9    2
     9     8    10   ar
    10    10    11   ar
    11    11    12   ar
    12    12    13   ar
    13    13    14   ar
    14    14    15   ar
    15    15    16   ar
    16     6    16   ar
    17    11    16   ar
    18     2    17    1
    19    17    18    2
    20    17    19   am
    21    19    20    1
    22    20    21   ar
    23    21    22   ar
    24    22    23   ar
    25    23    24   ar
    26    24    25   ar
    27    20    25   ar
    28    25    26    1
    29     1    27    1
    30     1    28    1
    31     1    29    1
    32     2    30    1
    33    10    31    1
    34    19    32    1
    35     7    33    1
    36    12    34    1
    37    13    35    1
    38    14    36    1
    39    15    37    1
    40    21    38    1
    41    22    39    1
    42    23    40    1
    43    24    41    1
@<TRIPOS>MOLECULE
mol30_1_11
 41 43 0 0 0
SMALL
USER_CHARGES
****
VDW energy = -7.97
@<TRIPOS>ATOM
   1 C1       -5.9005     8.0716     0.3448  C.3     1  <O>11      -0.0189
   2 C2       -5.5928     7.9359    -1.1386  C.3     1  <O>11       0.1761
   3 O1       -6.6300     8.5400    -1.8940  O.3     1  <O>11      -0.4487
   4 C3       -6.3560     8.4200    -3.2150  C.2     1  <O>11       0.3407
   5 O2       -5.3350     7.8550    -3.5780  O.2     1  <O>11      -0.2449
   6 C4       -7.2710     8.9630    -4.1970  C.ar    1  <O>11       0.0732
   7 C5       -8.4303     9.6072    -3.7850  C.ar    1  <O>11       0.0173
   8 C6       -9.2773    10.1212    -4.7520  C.ar    1  <O>11       0.2500
   9 O3      -10.4456    10.7764    -4.3149  O.2     1  <O>11      -0.2679
  10 N1       -9.0180    10.0140    -6.0750  N.ar    1  <O>11      -0.3221
  11 C7       -7.9067     9.3738    -6.4870  C.ar    1  <O>11       0.0500
  12 C8       -7.6134     9.2276    -7.8470  C.ar    1  <O>11      -0.0377
  13 C9       -6.4270     8.6253    -8.2861  C.ar    1  <O>11      -0.0598
  14 C10      -5.5281     8.1053    -7.3631  C.ar    1  <O>11      -0.0611
  15 C11      -5.8114     8.2035    -6.0031  C.ar    1  <O>11      -0.0518
  16 C12      -6.9857     8.8378    -5.5620  C.ar    1  <O>11       0.0125
  17 C13      -5.4950     6.4910    -1.4960  C.2     1  <O>11       0.2579
  18 O4       -4.3992     5.9601    -1.6012  O.2     1  <O>11      -0.2714
  19 N2       -6.6329     5.7594    -1.7059  N.am    1  <O>11      -0.2801
  20 C14      -6.5420     4.4074    -2.0403  C.ar    1  <O>11       0.0691
  21 C15      -7.0755     3.9386    -3.2526  C.ar    1  <O>11      -0.0377
  22 C16      -6.9944     2.5812    -3.5820  C.ar    1  <O>11      -0.0598
  23 C17      -6.3783     1.6817    -2.7062  C.ar    1  <O>11      -0.0589
  24 C18      -5.8414     2.1496    -1.5034  C.ar    1  <O>11      -0.0246
  25 C19      -5.9157     3.5032    -1.1673  C.ar    1  <O>11       0.1445
  26 F1       -5.3796     3.9631     0.0086  F       1  <O>11      -0.2035
  27 H1       -6.8465     7.5775     0.5662  H       1  <O>11       0.0270
  28 H2       -5.9721     9.1275     0.6058  H       1  <O>11       0.0270
  29 H3       -5.1033     7.6071     0.9252  H       1  <O>11       0.0270
  30 H4       -4.6467     8.4299    -1.3601  H       1  <O>11       0.0830
  31 H5       -9.6380    10.4040    -6.7710  H       1  <O>11       0.1689
  32 H6       -7.5474     6.2022    -1.6182  H       1  <O>11       0.1550
  33 H7       -8.6550     9.7005    -2.7820  H       1  <O>11       0.0680
  34 H8       -8.2895     9.5728    -8.5461  H       1  <O>11       0.0638
  35 H9       -6.2208     8.5679    -9.2957  H       1  <O>11       0.0618
  36 H10      -4.6585     7.6505    -7.6824  H       1  <O>11       0.0618
  37 H11      -5.1538     7.8074    -5.3134  H       1  <O>11       0.0624
  38 H12      -7.5295     4.5986    -3.9032  H       1  <O>11       0.0637
  39 H13      -7.3901     2.2430    -4.4731  H       1  <O>11       0.0618
  40 H14      -6.3203     0.6797    -2.9462  H       1  <O>11       0.0618
  41 H15      -5.3851     1.4875    -0.8565  H       1  <O>11       0.0647
@<TRIPOS>BOND
     1     1     2    1
     2     2     3    1
     3     3     4    1
     4     4     5    2
     5     4     6    1
     6     6     7   ar
     7     7     8   ar
     8     8     9    2
     9     8    10   ar
    10    10    11   ar
    11    11    12   ar
    12    12    13   ar
    13    13    14   ar
    14    14    15   ar
    15    15    16   ar
    16     6    16   ar
    17    11    16   ar
    18     2    17    1
    19    17    18    2
    20    17    19   am
    21    19    20    1
    22    20    21   ar
    23    21    22   ar
    24    22    23   ar
    25    23    24   ar
    26    24    25   ar
    27    20    25   ar
    28    25    26    1
    29     1    27    1
    30     1    28    1
    31     1    29    1
    32     2    30    1
    33    10    31    1
    34    19    32    1
    35     7    33    1
    36    12    34    1
    37    13    35    1
    38    14    36    1
    39    15    37    1
    40    21    38    1
    41    22    39    1
    42    23    40    1
    43    24    41    1
@<TRIPOS>MOLECULE
mol30_1_12
 41 43 0 0 0
SMALL
USER_CHARGES
****
VDW energy = -4.89
@<TRIPOS>ATOM
   1 C1       -5.9005     8.0716     0.3448  C.3     1  <O>11      -0.0189
   2 C2       -5.5928     7.9359    -1.1386  C.3     1  <O>11       0.1761
   3 O1       -6.6300     8.5400    -1.8940  O.3     1  <O>11      -0.4487
   4 C3       -6.3560     8.4200    -3.2150  C.2     1  <O>11       0.3407
   5 O2       -5.3350     7.8550    -3.5780  O.2     1  <O>11      -0.2449
   6 C4       -7.2710     8.9630    -4.1970  C.ar    1  <O>11       0.0732
   7 C5       -8.4310     9.6060    -3.7850  C.ar    1  <O>11       0.0173
   8 C6       -9.2780    10.1200    -4.7520  C.ar    1  <O>11       0.2500
   9 O3      -10.4470    10.7740    -4.3150  O.2     1  <O>11      -0.2679
  10 N1       -9.0180    10.0140    -6.0750  N.ar    1  <O>11      -0.3221
  11 C7       -7.9060     9.3750    -6.4870  C.ar    1  <O>11       0.0500
  12 C8       -7.6120     9.2300    -7.8470  C.ar    1  <O>11      -0.0377
  13 C9       -6.4250     8.6290    -8.2860  C.ar    1  <O>11      -0.0598
  14 C10      -5.5260     8.1090    -7.3630  C.ar    1  <O>11      -0.0611
  15 C11      -5.8100     8.2060    -6.0030  C.ar    1  <O>11      -0.0518
  16 C12      -6.9850     8.8390    -5.5620  C.ar    1  <O>11       0.0125
  17 C13      -5.4950     6.4910    -1.4960  C.2     1  <O>11       0.2579
  18 O4       -6.2510     6.0150    -2.3300  O.2     1  <O>11      -0.2714
  19 N2       -4.5580     5.6980    -0.8900  N.am    1  <O>11      -0.2801
  20 C14      -4.4660     4.3460    -1.2240  C.ar    1  <O>11       0.0691
  21 C15      -3.6244     3.9286    -2.2687  C.ar    1  <O>11      -0.0377
  22 C16      -3.5414     2.5744    -2.6107  C.ar    1  <O>11      -0.0598
  23 C17      -4.2950     1.6262    -1.9117  C.ar    1  <O>11      -0.0589
  24 C18      -5.1269     2.0410    -0.8678  C.ar    1  <O>11      -0.0246
  25 C19      -5.2143     3.3903    -0.5179  C.ar    1  <O>11       0.1445
  26 F1       -6.0233     3.7953     0.5133  F       1  <O>11      -0.2035
  27 H1       -6.8465     7.5775     0.5662  H       1  <O>11       0.0270
  28 H2       -5.9721     9.1275     0.6058  H       1  <O>11       0.0270
  29 H3       -5.1033     7.6071     0.9252  H       1  <O>11       0.0270
  30 H4       -4.6467     8.4299    -1.3601  H       1  <O>11       0.0830
  31 H5       -9.6380    10.4040    -6.7710  H       1  <O>11       0.1689
  32 H6       -3.9270     6.0950    -0.1940  H       1  <O>11       0.1550
  33 H7       -8.6562     9.6984    -2.7821  H       1  <O>11       0.0680
  34 H8       -8.2881     9.5752    -8.5461  H       1  <O>11       0.0638
  35 H9       -6.2183     8.5725    -9.2955  H       1  <O>11       0.0618
  36 H10      -4.6559     7.6551    -7.6822  H       1  <O>11       0.0618
  37 H11      -5.1524     7.8099    -5.3133  H       1  <O>11       0.0624
  38 H12      -3.0647     4.6242    -2.7864  H       1  <O>11       0.0637
  39 H13      -2.9228     2.2747    -3.3805  H       1  <O>11       0.0618
  40 H14      -4.2373     0.6273    -2.1646  H       1  <O>11       0.0618
  41 H15      -5.6827     1.3425    -0.3499  H       1  <O>11       0.0647
@<TRIPOS>BOND
     1     1     2    1
     2     2     3    1
     3     3     4    1
     4     4     5    2
     5     4     6    1
     6     6     7   ar
     7     7     8   ar
     8     8     9    2
     9     8    10   ar
    10    10    11   ar
    11    11    12   ar
    12    12    13   ar
    13    13    14   ar
    14    14    15   ar
    15    15    16   ar
    16     6    16   ar
    17    11    16   ar
    18     2    17    1
    19    17    18    2
    20    17    19   am
    21    19    20    1
    22    20    21   ar
    23    21    22   ar
    24    22    23   ar
    25    23    24   ar
    26    24    25   ar
    27    20    25   ar
    28    25    26    1
    29     1    27    1
    30     1    28    1
    31     1    29    1
    32     2    30    1
    33    10    31    1
    34    19    32    1
    35     7    33    1
    36    12    34    1
    37    13    35    1
    38    14    36    1
    39    15    37    1
    40    21    38    1
    41    22    39    1
    42    23    40    1
    43    24    41    1
@<TRIPOS>MOLECULE
mol30_1_13
 41 43 0 0 0
SMALL
USER_CHARGES
****
VDW energy = -4.17
@<TRIPOS>ATOM
   1 C1       -5.9005     8.0716     0.3448  C.3     1  <O>11      -0.0189
   2 C2       -5.5928     7.9359    -1.1386  C.3     1  <O>11       0.1761
   3 O1       -6.6300     8.5400    -1.8940  O.3     1  <O>11      -0.4487
   4 C3       -6.3560     8.4200    -3.2150  C.2     1  <O>11       0.3407
   5 O2       -5.3350     7.8550    -3.5780  O.2     1  <O>11      -0.2449
   6 C4       -7.2710     8.9630    -4.1970  C.ar    1  <O>11       0.0732
   7 C5       -8.4303     9.6072    -3.7850  C.ar    1  <O>11       0.0173
   8 C6       -9.2773    10.1212    -4.7520  C.ar    1  <O>11       0.2500
   9 O3      -10.4456    10.7764    -4.3149  O.2     1  <O>11      -0.2679
  10 N1       -9.0180    10.0140    -6.0750  N.ar    1  <O>11      -0.3221
  11 C7       -7.9067     9.3738    -6.4870  C.ar    1  <O>11       0.0500
  12 C8       -7.6134     9.2276    -7.8470  C.ar    1  <O>11      -0.0377
  13 C9       -6.4270     8.6253    -8.2861  C.ar    1  <O>11      -0.0598
  14 C10      -5.5281     8.1053    -7.3631  C.ar    1  <O>11      -0.0611
  15 C11      -5.8114     8.2035    -6.0031  C.ar    1  <O>11      -0.0518
  16 C12      -6.9857     8.8378    -5.5620  C.ar    1  <O>11       0.0125
  17 C13      -5.4950     6.4910    -1.4960  C.2     1  <O>11       0.2579
  18 O4       -6.2510     6.0150    -2.3300  O.2     1  <O>11      -0.2714
  19 N2       -4.5580     5.6980    -0.8900  N.am    1  <O>11      -0.2801
  20 C14      -4.4660     4.3460    -1.2240  C.ar    1  <O>11       0.0691
  21 C15      -5.2141     3.3881    -0.5190  C.ar    1  <O>11      -0.0377
  22 C16      -5.1127     2.0317    -0.8467  C.ar    1  <O>11      -0.0598
  23 C17      -4.2665     1.6206    -1.8815  C.ar    1  <O>11      -0.0589
  24 C18      -3.5277     2.5746    -2.5872  C.ar    1  <O>11      -0.0246
  25 C19      -3.6244     3.9310    -2.2687  C.ar    1  <O>11       0.1445
  26 F1       -2.9067     4.8675    -2.9684  F       1  <O>11      -0.2035
  27 H1       -6.8465     7.5775     0.5662  H       1  <O>11       0.0270
  28 H2       -5.9721     9.1275     0.6058  H       1  <O>11       0.0270
  29 H3       -5.1033     7.6071     0.9252  H       1  <O>11       0.0270
  30 H4       -4.6467     8.4299    -1.3601  H       1  <O>11       0.0830
  31 H5       -9.6380    10.4040    -6.7710  H       1  <O>11       0.1689
  32 H6       -3.9271     6.0950    -0.1939  H       1  <O>11       0.1550
  33 H7       -8.6550     9.7005    -2.7820  H       1  <O>11       0.0680
  34 H8       -8.2895     9.5728    -8.5461  H       1  <O>11       0.0638
  35 H9       -6.2208     8.5679    -9.2957  H       1  <O>11       0.0618
  36 H10      -4.6585     7.6505    -7.6824  H       1  <O>11       0.0618
  37 H11      -5.1538     7.8074    -5.3134  H       1  <O>11       0.0624
  38 H12      -5.8414     3.6865     0.2442  H       1  <O>11       0.0637
  39 H13      -5.6634     1.3330    -0.3236  H       1  <O>11       0.0618
  40 H14      -4.1882     0.6202    -2.1224  H       1  <O>11       0.0618
  41 H15      -2.9039     2.2732    -3.3521  H       1  <O>11       0.0647
@<TRIPOS>BOND
     1     1     2    1
     2     2     3    1
     3     3     4    1
     4     4     5    2
     5     4     6    1
     6     6     7   ar
     7     7     8   ar
     8     8     9    2
     9     8    10   ar
    10    10    11   ar
    11    11    12   ar
    12    12    13   ar
    13    13    14   ar
    14    14    15   ar
    15    15    16   ar
    16     6    16   ar
    17    11    16   ar
    18     2    17    1
    19    17    18    2
    20    17    19   am
    21    19    20    1
    22    20    21   ar
    23    21    22   ar
    24    22    23   ar
    25    23    24   ar
    26    24    25   ar
    27    20    25   ar
    28    25    26    1
    29     1    27    1
    30     1    28    1
    31     1    29    1
    32     2    30    1
    33    10    31    1
    34    19    32    1
    35     7    33    1
    36    12    34    1
    37    13    35    1
    38    14    36    1
    39    15    37    1
    40    21    38    1
    41    22    39    1
    42    23    40    1
    43    24    41    1
@<TRIPOS>MOLECULE
mol30_1_14
 41 43 0 0 0
SMALL
USER_CHARGES
****
VDW energy = -2.13
@<TRIPOS>ATOM
   1 C1       -5.9005     8.0716     0.3448  C.3     1  <O>11      -0.0189
   2 C2       -5.5928     7.9359    -1.1386  C.3     1  <O>11       0.1761
   3 O1       -6.6300     8.5400    -1.8940  O.3     1  <O>11      -0.4487
   4 C3       -6.3560     8.4200    -3.2150  C.2     1  <O>11       0.3407
   5 O2       -5.3350     7.8550    -3.5780  O.2     1  <O>11      -0.2449
   6 C4       -7.2710     8.9630    -4.1970  C.ar    1  <O>11       0.0732
   7 C5       -8.4310     9.6060    -3.7850  C.ar    1  <O>11       0.0173
   8 C6       -9.2780    10.1200    -4.7520  C.ar    1  <O>11       0.2500
   9 O3      -10.4470    10.7740    -4.3150  O.2     1  <O>11      -0.2679
  10 N1       -9.0180    10.0140    -6.0750  N.ar    1  <O>11      -0.3221
  11 C7       -7.9060     9.3750    -6.4870  C.ar    1  <O>11       0.0500
  12 C8       -7.6120     9.2300    -7.8470  C.ar    1  <O>11      -0.0377
  13 C9       -6.4250     8.6290    -8.2860  C.ar    1  <O>11      -0.0598
  14 C10      -5.5260     8.1090    -7.3630  C.ar    1  <O>11      -0.0611
  15 C11      -5.8100     8.2060    -6.0030  C.ar    1  <O>11      -0.0518
  16 C12      -6.9850     8.8390    -5.5620  C.ar    1  <O>11       0.0125
  17 C13      -5.4950     6.4910    -1.4960  C.2     1  <O>11       0.2579
  18 O4       -6.2510     6.0150    -2.3300  O.2     1  <O>11      -0.2714
  19 N2       -4.5580     5.6980    -0.8900  N.am    1  <O>11      -0.2801
  20 C14      -4.4660     4.3460    -1.2240  C.ar    1  <O>11       0.0691
  21 C15      -3.2748     3.8261    -1.7577  C.ar    1  <O>11      -0.0377
  22 C16      -3.1869     2.4731    -2.1031  C.ar    1  <O>11      -0.0598
  23 C17      -4.2854     1.6280    -1.9164  C.ar    1  <O>11      -0.0589
  24 C18      -5.4681     2.1441    -1.3791  C.ar    1  <O>11      -0.0246
  25 C19      -5.5642     3.4928    -1.0291  C.ar    1  <O>11       0.1445
  26 F1       -6.7219     3.9962    -0.4924  F       1  <O>11      -0.2035
  27 H1       -6.8465     7.5775     0.5662  H       1  <O>11       0.0270
  28 H2       -5.9721     9.1275     0.6058  H       1  <O>11       0.0270
  29 H3       -5.1033     7.6071     0.9252  H       1  <O>11       0.0270
  30 H4       -4.6467     8.4299    -1.3601  H       1  <O>11       0.0830
  31 H5       -9.6380    10.4040    -6.7710  H       1  <O>11       0.1689
  32 H6       -3.9270     6.0950    -0.1940  H       1  <O>11       0.1550
  33 H7       -8.6562     9.6984    -2.7821  H       1  <O>11       0.0680
  34 H8       -8.2881     9.5752    -8.5461  H       1  <O>11       0.0638
  35 H9       -6.2183     8.5725    -9.2955  H       1  <O>11       0.0618
  36 H10      -4.6559     7.6551    -7.6822  H       1  <O>11       0.0618
  37 H11      -5.1524     7.8099    -5.3133  H       1  <O>11       0.0624
  38 H12      -2.4607     4.4452    -1.8955  H       1  <O>11       0.0637
  39 H13      -2.3097     2.0980    -2.4965  H       1  <O>11       0.0618
  40 H14      -4.2233     0.6305    -2.1736  H       1  <O>11       0.0618
  41 H15      -6.2793     1.5216    -1.2393  H       1  <O>11       0.0647
@<TRIPOS>BOND
     1     1     2    1
     2     2     3    1
     3     3     4    1
     4     4     5    2
     5     4     6    1
     6     6     7   ar
     7     7     8   ar
     8     8     9    2
     9     8    10   ar
    10    10    11   ar
    11    11    12   ar
    12    12    13   ar
    13    13    14   ar
    14    14    15   ar
    15    15    16   ar
    16     6    16   ar
    17    11    16   ar
    18     2    17    1
    19    17    18    2
    20    17    19   am
    21    19    20    1
    22    20    21   ar
    23    21    22   ar
    24    22    23   ar
    25    23    24   ar
    26    24    25   ar
    27    20    25   ar
    28    25    26    1
    29     1    27    1
    30     1    28    1
    31     1    29    1
    32     2    30    1
    33    10    31    1
    34    19    32    1
    35     7    33    1
    36    12    34    1
    37    13    35    1
    38    14    36    1
    39    15    37    1
    40    21    38    1
    41    22    39    1
    42    23    40    1
    43    24    41    1
@<TRIPOS>MOLECULE
mol30_1_15
 41 43 0 0 0
SMALL
USER_CHARGES
****
VDW energy = -0.94
@<TRIPOS>ATOM
   1 C1       -5.9005     8.0716     0.3448  C.3     1  <O>11      -0.0189
   2 C2       -5.5928     7.9359    -1.1386  C.3     1  <O>11       0.1761
   3 O1       -6.6300     8.5400    -1.8940  O.3     1  <O>11      -0.4487
   4 C3       -6.3560     8.4200    -3.2150  C.2     1  <O>11       0.3407
   5 O2       -5.3350     7.8550    -3.5780  O.2     1  <O>11      -0.2449
   6 C4       -7.2710     8.9630    -4.1970  C.ar    1  <O>11       0.0732
   7 C5       -7.1186    10.2702    -4.6406  C.ar    1  <O>11       0.0173
   8 C6       -8.0072    10.7526    -5.5863  C.ar    1  <O>11       0.2500
   9 O3       -7.8335    12.0790    -6.0286  O.2     1  <O>11      -0.2679
  10 N1       -9.0142    10.0006    -6.0860  N.ar    1  <O>11      -0.3221
  11 C7       -9.1839     8.7379    -5.6486  C.ar    1  <O>11       0.0500
  12 C8      -10.2243     7.9353    -6.1288  C.ar    1  <O>11      -0.0377
  13 C9      -10.3691     6.5991    -5.7335  C.ar    1  <O>11      -0.0598
  14 C10      -9.4978     6.0517    -4.7998  C.ar    1  <O>11      -0.0611
  15 C11      -8.4746     6.8383    -4.2764  C.ar    1  <O>11      -0.0518
  16 C12      -8.3093     8.1688    -4.6986  C.ar    1  <O>11       0.0125
  17 C13      -5.4950     6.4910    -1.4960  C.2     1  <O>11       0.2579
  18 O4       -4.3992     5.9601    -1.6012  O.2     1  <O>11      -0.2714
  19 N2       -6.6329     5.7594    -1.7059  N.am    1  <O>11      -0.2801
  20 C14      -6.5420     4.4074    -2.0403  C.ar    1  <O>11       0.0691
  21 C15      -5.2862     3.7893    -2.1628  C.ar    1  <O>11      -0.0377
  22 C16      -5.1954     2.4368    -2.5094  C.ar    1  <O>11      -0.0598
  23 C17      -6.3563     1.6900    -2.7338  C.ar    1  <O>11      -0.0589
  24 C18      -7.6057     2.3035    -2.6051  C.ar    1  <O>11      -0.0246
  25 C19      -7.7060     3.6525    -2.2572  C.ar    1  <O>11       0.1445
  26 F1       -8.9327     4.2511    -2.1211  F       1  <O>11      -0.2035
  27 H1       -6.8465     7.5775     0.5662  H       1  <O>11       0.0270
  28 H2       -5.9721     9.1275     0.6058  H       1  <O>11       0.0270
  29 H3       -5.1033     7.6071     0.9252  H       1  <O>11       0.0270
  30 H4       -4.6467     8.4299    -1.3601  H       1  <O>11       0.0830
  31 H5       -9.6491    10.3600    -6.7850  H       1  <O>11       0.1689
  32 H6       -7.5474     6.2022    -1.6182  H       1  <O>11       0.1550
  33 H7       -6.3612    10.8677    -4.2740  H       1  <O>11       0.0680
  34 H8      -10.9038     8.3387    -6.7926  H       1  <O>11       0.0638
  35 H9      -11.1234     6.0210    -6.1359  H       1  <O>11       0.0618
  36 H10      -9.6077     5.0713    -4.4970  H       1  <O>11       0.0618
  37 H11      -7.8325     6.4412    -3.5729  H       1  <O>11       0.0624
  38 H12      -4.4266     4.3355    -1.9963  H       1  <O>11       0.0637
  39 H13      -4.2699     1.9893    -2.5997  H       1  <O>11       0.0618
  40 H14      -6.2911     0.6931    -2.9926  H       1  <O>11       0.0618
  41 H15      -8.4635     1.7536    -2.7689  H       1  <O>11       0.0647
@<TRIPOS>BOND
     1     1     2    1
     2     2     3    1
     3     3     4    1
     4     4     5    2
     5     4     6    1
     6     6     7   ar
     7     7     8   ar
     8     8     9    2
     9     8    10   ar
    10    10    11   ar
    11    11    12   ar
    12    12    13   ar
    13    13    14   ar
    14    14    15   ar
    15    15    16   ar
    16     6    16   ar
    17    11    16   ar
    18     2    17    1
    19    17    18    2
    20    17    19   am
    21    19    20    1
    22    20    21   ar
    23    21    22   ar
    24    22    23   ar
    25    23    24   ar
    26    24    25   ar
    27    20    25   ar
    28    25    26    1
    29     1    27    1
    30     1    28    1
    31     1    29    1
    32     2    30    1
    33    10    31    1
    34    19    32    1
    35     7    33    1
    36    12    34    1
    37    13    35    1
    38    14    36    1
    39    15    37    1
    40    21    38    1
    41    22    39    1
    42    23    40    1
    43    24    41    1
@<TRIPOS>MOLECULE
mol30_1_16
 41 43 0 0 0
SMALL
USER_CHARGES
****
VDW energy = 1.10
@<TRIPOS>ATOM
   1 C1       -5.9005     8.0716     0.3448  C.3     1  <O>11      -0.0189
   2 C2       -5.5928     7.9359    -1.1386  C.3     1  <O>11       0.1761
   3 O1       -6.6300     8.5400    -1.8940  O.3     1  <O>11      -0.4487
   4 C3       -6.3560     8.4200    -3.2150  C.2     1  <O>11       0.3407
   5 O2       -5.3350     7.8550    -3.5780  O.2     1  <O>11      -0.2449
   6 C4       -7.2710     8.9630    -4.1970  C.ar    1  <O>11       0.0732
   7 C5       -7.5337     8.2598    -5.3655  C.ar    1  <O>11       0.0173
   8 C6       -8.4204     8.8061    -6.2776  C.ar    1  <O>11       0.2500
   9 O3       -8.6790     8.0757    -7.4544  O.2     1  <O>11      -0.2679
  10 N1       -9.0318     9.9950    -6.0727  N.ar    1  <O>11      -0.3221
  11 C7       -8.7695    10.6954    -4.9523  C.ar    1  <O>11       0.0500
  12 C8       -9.3688    11.9366    -4.7134  C.ar    1  <O>11      -0.0377
  13 C9       -9.1576    12.6415    -3.5211  C.ar    1  <O>11      -0.0598
  14 C10      -8.2918    12.1367    -2.5588  C.ar    1  <O>11      -0.0611
  15 C11      -7.6521    10.9205    -2.7856  C.ar    1  <O>11      -0.0518
  16 C12      -7.8903    10.1975    -3.9672  C.ar    1  <O>11       0.0125
  17 C13      -5.4950     6.4910    -1.4960  C.2     1  <O>11       0.2579
  18 O4       -6.2510     6.0150    -2.3300  O.2     1  <O>11      -0.2714
  19 N2       -4.5580     5.6980    -0.8900  N.am    1  <O>11      -0.2801
  20 C14      -3.6941     6.2410     0.0622  C.ar    1  <O>11       0.0691
  21 C15      -3.6803     5.7411     1.3752  C.ar    1  <O>11      -0.0377
  22 C16      -2.8222     6.2936     2.3324  C.ar    1  <O>11      -0.0598
  23 C17      -1.9697     7.3469     1.9866  C.ar    1  <O>11      -0.0589
  24 C18      -1.9788     7.8393     0.6785  C.ar    1  <O>11      -0.0246
  25 C19      -2.8302     7.2925    -0.2842  C.ar    1  <O>11       0.1445
  26 F1       -2.8312     7.7697    -1.5703  F       1  <O>11      -0.2035
  27 H1       -6.8465     7.5775     0.5662  H       1  <O>11       0.0270
  28 H2       -5.9721     9.1275     0.6058  H       1  <O>11       0.0270
  29 H3       -5.1033     7.6071     0.9252  H       1  <O>11       0.0270
  30 H4       -4.6467     8.4299    -1.3601  H       1  <O>11       0.0830
  31 H5       -9.6864    10.3776    -6.7405  H       1  <O>11       0.1689
  32 H6       -4.4908     4.7101    -1.1344  H       1  <O>11       0.1550
  33 H7       -7.0788     7.3519    -5.5494  H       1  <O>11       0.0680
  34 H8       -9.9834    12.3444    -5.4353  H       1  <O>11       0.0638
  35 H9       -9.6454    13.5361    -3.3576  H       1  <O>11       0.0618
  36 H10      -8.1242    12.6580    -1.6841  H       1  <O>11       0.0618
  37 H11      -6.9979    10.5470    -2.0803  H       1  <O>11       0.0624
  38 H12      -4.3061     4.9626     1.6349  H       1  <O>11       0.0637
  39 H13      -2.8185     5.9231     3.2956  H       1  <O>11       0.0618
  40 H14      -1.3384     7.7576     2.6922  H       1  <O>11       0.0618
  41 H15      -1.3494     8.6156     0.4212  H       1  <O>11       0.0647
@<TRIPOS>BOND
     1     1     2    1
     2     2     3    1
     3     3     4    1
     4     4     5    2
     5     4     6    1
     6     6     7   ar
     7     7     8   ar
     8     8     9    2
     9     8    10   ar
    10    10    11   ar
    11    11    12   ar
    12    12    13   ar
    13    13    14   ar
    14    14    15   ar
    15    15    16   ar
    16     6    16   ar
    17    11    16   ar
    18     2    17    1
    19    17    18    2
    20    17    19   am
    21    19    20    1
    22    20    21   ar
    23    21    22   ar
    24    22    23   ar
    25    23    24   ar
    26    24    25   ar
    27    20    25   ar
    28    25    26    1
    29     1    27    1
    30     1    28    1
    31     1    29    1
    32     2    30    1
    33    10    31    1
    34    19    32    1
    35     7    33    1
    36    12    34    1
    37    13    35    1
    38    14    36    1
    39    15    37    1
    40    21    38    1
    41    22    39    1
    42    23    40    1
    43    24    41    1
@<TRIPOS>MOLECULE
mol30_1_17
 41 43 0 0 0
SMALL
USER_CHARGES
****
VDW energy = 2.36
@<TRIPOS>ATOM
   1 C1       -5.9005     8.0716     0.3448  C.3     1  <O>11      -0.0189
   2 C2       -5.5928     7.9359    -1.1386  C.3     1  <O>11       0.1761
   3 O1       -6.6300     8.5400    -1.8940  O.3     1  <O>11      -0.4487
   4 C3       -6.3560     8.4200    -3.2150  C.2     1  <O>11       0.3407
   5 O2       -5.3350     7.8550    -3.5780  O.2     1  <O>11      -0.2449
   6 C4       -7.2710     8.9630    -4.1970  C.ar    1  <O>11       0.0732
   7 C5       -8.3015     8.1769    -4.6959  C.ar    1  <O>11       0.0173
   8 C6       -9.1620     8.7325    -5.6273  C.ar    1  <O>11       0.2500
   9 O3      -10.2048     7.9219    -6.1177  O.2     1  <O>11      -0.2679
  10 N1       -9.0312    10.0045    -6.0680  N.ar    1  <O>11      -0.3221
  11 C7       -8.0236    10.7700    -5.6061  C.ar    1  <O>11       0.0500
  12 C8       -7.8455    12.0842    -6.0512  C.ar    1  <O>11      -0.0377
  13 C9       -6.8440    12.9121    -5.5272  C.ar    1  <O>11      -0.0598
  14 C10      -5.9596    12.4176    -4.5766  C.ar    1  <O>11      -0.0611
  15 C11      -6.0898    11.1009    -4.1416  C.ar    1  <O>11      -0.0518
  16 C12      -7.1156    10.2811    -4.6429  C.ar    1  <O>11       0.0125
  17 C13      -5.4950     6.4910    -1.4960  C.2     1  <O>11       0.2579
  18 O4       -6.2510     6.0150    -2.3300  O.2     1  <O>11      -0.2714
  19 N2       -4.5580     5.6980    -0.8900  N.am    1  <O>11      -0.2801
  20 C14      -4.4660     4.3460    -1.2240  C.ar    1  <O>11       0.0691
  21 C15      -5.3310     3.7910    -2.1820  C.ar    1  <O>11      -0.0377
  22 C16      -5.2460     2.4330    -2.5080  C.ar    1  <O>11      -0.0598
  23 C17      -4.2960     1.6190    -1.8830  C.ar    1  <O>11      -0.0589
  24 C18      -3.4310     2.1730    -0.9350  C.ar    1  <O>11      -0.0246
  25 C19      -3.5070     3.5280    -0.6050  C.ar    1  <O>11       0.1445
  26 F1       -2.6510     4.0730     0.3180  F       1  <O>11      -0.2035
  27 H1       -6.8465     7.5775     0.5662  H       1  <O>11       0.0270
  28 H2       -5.9721     9.1275     0.6058  H       1  <O>11       0.0270
  29 H3       -5.1033     7.6071     0.9252  H       1  <O>11       0.0270
  30 H4       -4.6467     8.4299    -1.3601  H       1  <O>11       0.0830
  31 H5       -9.6730    10.4027    -6.7391  H       1  <O>11       0.1689
  32 H6       -3.9270     6.0950    -0.1940  H       1  <O>11       0.1550
  33 H7       -8.4229     7.2020    -4.3799  H       1  <O>11       0.0680
  34 H8       -8.4689    12.4540    -6.7858  H       1  <O>11       0.0638
  35 H9       -6.7632    13.8898    -5.8476  H       1  <O>11       0.0618
  36 H10      -5.2131    13.0202    -4.1963  H       1  <O>11       0.0618
  37 H11      -5.4277    10.7241    -3.4454  H       1  <O>11       0.0624
  38 H12      -6.0325     4.3879    -2.6475  H       1  <O>11       0.0637
  39 H13      -5.8857     2.0312    -3.2111  H       1  <O>11       0.0618
  40 H14      -4.2340     0.6165    -2.1200  H       1  <O>11       0.0618
  41 H15      -2.7284     1.5741    -0.4738  H       1  <O>11       0.0647
@<TRIPOS>BOND
     1     1     2    1
     2     2     3    1
     3     3     4    1
     4     4     5    2
     5     4     6    1
     6     6     7   ar
     7     7     8   ar
     8     8     9    2
     9     8    10   ar
    10    10    11   ar
    11    11    12   ar
    12    12    13   ar
    13    13    14   ar
    14    14    15   ar
    15    15    16   ar
    16     6    16   ar
    17    11    16   ar
    18     2    17    1
    19    17    18    2
    20    17    19   am
    21    19    20    1
    22    20    21   ar
    23    21    22   ar
    24    22    23   ar
    25    23    24   ar
    26    24    25   ar
    27    20    25   ar
    28    25    26    1
    29     1    27    1
    30     1    28    1
    31     1    29    1
    32     2    30    1
    33    10    31    1
    34    19    32    1
    35     7    33    1
    36    12    34    1
    37    13    35    1
    38    14    36    1
    39    15    37    1
    40    21    38    1
    41    22    39    1
    42    23    40    1
    43    24    41    1
@<TRIPOS>MOLECULE
mol30_1_18
 41 43 0 0 0
SMALL
USER_CHARGES
****
VDW energy = 4.64
@<TRIPOS>ATOM
   1 C1       -5.9005     8.0716     0.3448  C.3     1  <O>11      -0.0189
   2 C2       -5.5928     7.9359    -1.1386  C.3     1  <O>11       0.1761
   3 O1       -6.6300     8.5400    -1.8940  O.3     1  <O>11      -0.4487
   4 C3       -6.3560     8.4200    -3.2150  C.2     1  <O>11       0.3407
   5 O2       -5.3350     7.8550    -3.5780  O.2     1  <O>11      -0.2449
   6 C4       -7.2710     8.9630    -4.1970  C.ar    1  <O>11       0.0732
   7 C5       -7.5337     8.2598    -5.3655  C.ar    1  <O>11       0.0173
   8 C6       -8.4204     8.8061    -6.2776  C.ar    1  <O>11       0.2500
   9 O3       -8.6790     8.0757    -7.4544  O.2     1  <O>11      -0.2679
  10 N1       -9.0318     9.9950    -6.0727  N.ar    1  <O>11      -0.3221
  11 C7       -8.7695    10.6954    -4.9523  C.ar    1  <O>11       0.0500
  12 C8       -9.3688    11.9366    -4.7134  C.ar    1  <O>11      -0.0377
  13 C9       -9.1576    12.6415    -3.5211  C.ar    1  <O>11      -0.0598
  14 C10      -8.2918    12.1367    -2.5588  C.ar    1  <O>11      -0.0611
  15 C11      -7.6521    10.9205    -2.7856  C.ar    1  <O>11      -0.0518
  16 C12      -7.8903    10.1975    -3.9672  C.ar    1  <O>11       0.0125
  17 C13      -5.4950     6.4910    -1.4960  C.2     1  <O>11       0.2579
  18 O4       -4.3992     5.9601    -1.6012  O.2     1  <O>11      -0.2714
  19 N2       -6.6329     5.7594    -1.7059  N.am    1  <O>11      -0.2801
  20 C14      -6.5420     4.4074    -2.0403  C.ar    1  <O>11       0.0691
  21 C15      -5.2862     3.7893    -2.1628  C.ar    1  <O>11      -0.0377
  22 C16      -5.1954     2.4368    -2.5094  C.ar    1  <O>11      -0.0598
  23 C17      -6.3563     1.6900    -2.7338  C.ar    1  <O>11      -0.0589
  24 C18      -7.6057     2.3035    -2.6051  C.ar    1  <O>11      -0.0246
  25 C19      -7.7060     3.6525    -2.2572  C.ar    1  <O>11       0.1445
  26 F1       -8.9327     4.2511    -2.1211  F       1  <O>11      -0.2035
  27 H1       -6.8465     7.5775     0.5662  H       1  <O>11       0.0270
  28 H2       -5.9721     9.1275     0.6058  H       1  <O>11       0.0270
  29 H3       -5.1033     7.6071     0.9252  H       1  <O>11       0.0270
  30 H4       -4.6467     8.4299    -1.3601  H       1  <O>11       0.0830
  31 H5       -9.6864    10.3776    -6.7405  H       1  <O>11       0.1689
  32 H6       -7.5474     6.2022    -1.6182  H       1  <O>11       0.1550
  33 H7       -7.0788     7.3519    -5.5494  H       1  <O>11       0.0680
  34 H8       -9.9834    12.3444    -5.4353  H       1  <O>11       0.0638
  35 H9       -9.6454    13.5361    -3.3576  H       1  <O>11       0.0618
  36 H10      -8.1242    12.6580    -1.6841  H       1  <O>11       0.0618
  37 H11      -6.9979    10.5470    -2.0803  H       1  <O>11       0.0624
  38 H12      -4.4266     4.3355    -1.9963  H       1  <O>11       0.0637
  39 H13      -4.2699     1.9893    -2.5997  H       1  <O>11       0.0618
  40 H14      -6.2911     0.6931    -2.9926  H       1  <O>11       0.0618
  41 H15      -8.4635     1.7536    -2.7689  H       1  <O>11       0.0647
@<TRIPOS>BOND
     1     1     2    1
     2     2     3    1
     3     3     4    1
     4     4     5    2
     5     4     6    1
     6     6     7   ar
     7     7     8   ar
     8     8     9    2
     9     8    10   ar
    10    10    11   ar
    11    11    12   ar
    12    12    13   ar
    13    13    14   ar
    14    14    15   ar
    15    15    16   ar
    16     6    16   ar
    17    11    16   ar
    18     2    17    1
    19    17    18    2
    20    17    19   am
    21    19    20    1
    22    20    21   ar
    23    21    22   ar
    24    22    23   ar
    25    23    24   ar
    26    24    25   ar
    27    20    25   ar
    28    25    26    1
    29     1    27    1
    30     1    28    1
    31     1    29    1
    32     2    30    1
    33    10    31    1
    34    19    32    1
    35     7    33    1
    36    12    34    1
    37    13    35    1
    38    14    36    1
    39    15    37    1
    40    21    38    1
    41    22    39    1
    42    23    40    1
    43    24    41    1
@<TRIPOS>MOLECULE
mol30_1_19
 41 43 0 0 0
SMALL
USER_CHARGES
****
VDW energy = 5.78
@<TRIPOS>ATOM
   1 C1       -5.9005     8.0716     0.3448  C.3     1  <O>11      -0.0189
   2 C2       -5.5928     7.9359    -1.1386  C.3     1  <O>11       0.1761
   3 O1       -6.6300     8.5400    -1.8940  O.3     1  <O>11      -0.4487
   4 C3       -6.3560     8.4200    -3.2150  C.2     1  <O>11       0.3407
   5 O2       -5.3350     7.8550    -3.5780  O.2     1  <O>11      -0.2449
   6 C4       -7.2710     8.9630    -4.1970  C.ar    1  <O>11       0.0732
   7 C5       -7.1186    10.2702    -4.6406  C.ar    1  <O>11       0.0173
   8 C6       -8.0072    10.7526    -5.5863  C.ar    1  <O>11       0.2500
   9 O3       -7.8335    12.0790    -6.0286  O.2     1  <O>11      -0.2679
  10 N1       -9.0142    10.0006    -6.0860  N.ar    1  <O>11      -0.3221
  11 C7       -9.1839     8.7379    -5.6486  C.ar    1  <O>11       0.0500
  12 C8      -10.2243     7.9353    -6.1288  C.ar    1  <O>11      -0.0377
  13 C9      -10.3691     6.5991    -5.7335  C.ar    1  <O>11      -0.0598
  14 C10      -9.4978     6.0517    -4.7998  C.ar    1  <O>11      -0.0611
  15 C11      -8.4746     6.8383    -4.2764  C.ar    1  <O>11      -0.0518
  16 C12      -8.3093     8.1688    -4.6986  C.ar    1  <O>11       0.0125
  17 C13      -5.4950     6.4910    -1.4960  C.2     1  <O>11       0.2579
  18 O4       -6.2510     6.0150    -2.3300  O.2     1  <O>11      -0.2714
  19 N2       -4.5580     5.6980    -0.8900  N.am    1  <O>11      -0.2801
  20 C14      -4.4660     4.3460    -1.2240  C.ar    1  <O>11       0.0691
  21 C15      -5.3310     3.7910    -2.1820  C.ar    1  <O>11      -0.0377
  22 C16      -5.2460     2.4330    -2.5080  C.ar    1  <O>11      -0.0598
  23 C17      -4.2960     1.6190    -1.8830  C.ar    1  <O>11      -0.0589
  24 C18      -3.4310     2.1730    -0.9350  C.ar    1  <O>11      -0.0246
  25 C19      -3.5070     3.5280    -0.6050  C.ar    1  <O>11       0.1445
  26 F1       -2.6510     4.0730     0.3180  F       1  <O>11      -0.2035
  27 H1       -6.8465     7.5775     0.5662  H       1  <O>11       0.0270
  28 H2       -5.9721     9.1275     0.6058  H       1  <O>11       0.0270
  29 H3       -5.1033     7.6071     0.9252  H       1  <O>11       0.0270
  30 H4       -4.6467     8.4299    -1.3601  H       1  <O>11       0.0830
  31 H5       -9.6491    10.3600    -6.7850  H       1  <O>11       0.1689
  32 H6       -3.9270     6.0950    -0.1940  H       1  <O>11       0.1550
  33 H7       -6.3612    10.8677    -4.2740  H       1  <O>11       0.0680
  34 H8      -10.9038     8.3387    -6.7926  H       1  <O>11       0.0638
  35 H9      -11.1234     6.0210    -6.1359  H       1  <O>11       0.0618
  36 H10      -9.6077     5.0713    -4.4970  H       1  <O>11       0.0618
  37 H11      -7.8325     6.4412    -3.5729  H       1  <O>11       0.0624
  38 H12      -6.0325     4.3879    -2.6475  H       1  <O>11       0.0637
  39 H13      -5.8857     2.0312    -3.2111  H       1  <O>11       0.0618
  40 H14      -4.2340     0.6165    -2.1200  H       1  <O>11       0.0618
  41 H15      -2.7284     1.5741    -0.4738  H       1  <O>11       0.0647
@<TRIPOS>BOND
     1     1     2    1
     2     2     3    1
     3     3     4    1
     4     4     5    2
     5     4     6    1
     6     6     7   ar
     7     7     8   ar
     8     8     9    2
     9     8    10   ar
    10    10    11   ar
    11    11    12   ar
    12    12    13   ar
    13    13    14   ar
    14    14    15   ar
    15    15    16   ar
    16     6    16   ar
    17    11    16   ar
    18     2    17    1
    19    17    18    2
    20    17    19   am
    21    19    20    1
    22    20    21   ar
    23    21    22   ar
    24    22    23   ar
    25    23    24   ar
    26    24    25   ar
    27    20    25   ar
    28    25    26    1
    29     1    27    1
    30     1    28    1
    31     1    29    1
    32     2    30    1
    33    10    31    1
    34    19    32    1
    35     7    33    1
    36    12    34    1
    37    13    35    1
    38    14    36    1
    39    15    37    1
    40    21    38    1
    41    22    39    1
    42    23    40    1
    43    24    41    1
@<TRIPOS>MOLECULE
mol30_1_20
 41 43 0 0 0
SMALL
USER_CHARGES
****
VDW energy = 7.17
@<TRIPOS>ATOM
   1 C1       -5.9005     8.0716     0.3448  C.3     1  <O>11      -0.0189
   2 C2       -5.5928     7.9359    -1.1386  C.3     1  <O>11       0.1761
   3 O1       -6.6300     8.5400    -1.8940  O.3     1  <O>11      -0.4487
   4 C3       -6.3560     8.4200    -3.2150  C.2     1  <O>11       0.3407
   5 O2       -5.3350     7.8550    -3.5780  O.2     1  <O>11      -0.2449
   6 C4       -7.2710     8.9630    -4.1970  C.ar    1  <O>11       0.0732
   7 C5       -8.3015     8.1769    -4.6959  C.ar    1  <O>11       0.0173
   8 C6       -9.1620     8.7325    -5.6273  C.ar    1  <O>11       0.2500
   9 O3      -10.2048     7.9219    -6.1177  O.2     1  <O>11      -0.2679
  10 N1       -9.0312    10.0045    -6.0680  N.ar    1  <O>11      -0.3221
  11 C7       -8.0236    10.7700    -5.6061  C.ar    1  <O>11       0.0500
  12 C8       -7.8455    12.0842    -6.0512  C.ar    1  <O>11      -0.0377
  13 C9       -6.8440    12.9121    -5.5272  C.ar    1  <O>11      -0.0598
  14 C10      -5.9596    12.4176    -4.5766  C.ar    1  <O>11      -0.0611
  15 C11      -6.0898    11.1009    -4.1416  C.ar    1  <O>11      -0.0518
  16 C12      -7.1156    10.2811    -4.6429  C.ar    1  <O>11       0.0125
  17 C13      -5.4950     6.4910    -1.4960  C.2     1  <O>11       0.2579
  18 O4       -6.2510     6.0150    -2.3300  O.2     1  <O>11      -0.2714
  19 N2       -4.5580     5.6980    -0.8900  N.am    1  <O>11      -0.2801
  20 C14      -3.6941     6.2410     0.0622  C.ar    1  <O>11       0.0691
  21 C15      -2.4602     6.7876    -0.3285  C.ar    1  <O>11      -0.0377
  22 C16      -1.5894     7.3214     0.6278  C.ar    1  <O>11      -0.0598
  23 C17      -1.9439     7.3164     1.9806  C.ar    1  <O>11      -0.0589
  24 C18      -3.1746     6.7787     2.3682  C.ar    1  <O>11      -0.0246
  25 C19      -4.0511     6.2459     1.4203  C.ar    1  <O>11       0.1445
  26 F1       -5.2630     5.7277     1.8005  F       1  <O>11      -0.2035
  27 H1       -6.8465     7.5775     0.5662  H       1  <O>11       0.0270
  28 H2       -5.9721     9.1275     0.6058  H       1  <O>11       0.0270
  29 H3       -5.1033     7.6071     0.9252  H       1  <O>11       0.0270
  30 H4       -4.6467     8.4299    -1.3601  H       1  <O>11       0.0830
  31 H5       -9.6730    10.4027    -6.7391  H       1  <O>11       0.1689
  32 H6       -4.4908     4.7101    -1.1344  H       1  <O>11       0.1550
  33 H7       -8.4229     7.2020    -4.3799  H       1  <O>11       0.0680
  34 H8       -8.4689    12.4540    -6.7858  H       1  <O>11       0.0638
  35 H9       -6.7632    13.8898    -5.8476  H       1  <O>11       0.0618
  36 H10      -5.2131    13.0202    -4.1963  H       1  <O>11       0.0618
  37 H11      -5.4277    10.7241    -3.4454  H       1  <O>11       0.0624
  38 H12      -2.1948     6.7955    -1.3258  H       1  <O>11       0.0637
  39 H13      -0.6837     7.7195     0.3344  H       1  <O>11       0.0618
  40 H14      -1.3016     7.7068     2.6877  H       1  <O>11       0.0618
  41 H15      -3.4385     6.7755     3.3659  H       1  <O>11       0.0647
@<TRIPOS>BOND
     1     1     2    1
     2     2     3    1
     3     3     4    1
     4     4     5    2
     5     4     6    1
     6     6     7   ar
     7     7     8   ar
     8     8     9    2
     9     8    10   ar
    10    10    11   ar
    11    11    12   ar
    12    12    13   ar
    13    13    14   ar
    14    14    15   ar
    15    15    16   ar
    16     6    16   ar
    17    11    16   ar
    18     2    17    1
    19    17    18    2
    20    17    19   am
    21    19    20    1
    22    20    21   ar
    23    21    22   ar
    24    22    23   ar
    25    23    24   ar
    26    24    25   ar
    27    20    25   ar
    28    25    26    1
    29     1    27    1
    30     1    28    1
    31     1    29    1
    32     2    30    1
    33    10    31    1
    34    19    32    1
    35     7    33    1
    36    12    34    1
    37    13    35    1
    38    14    36    1
    39    15    37    1
    40    21    38    1
    41    22    39    1
    42    23    40    1
    43    24    41    1
@<TRIPOS>MOLECULE
mol30_1_21
 41 43 0 0 0
SMALL
USER_CHARGES
****
VDW energy = 9.22
@<TRIPOS>ATOM
   1 C1       -5.9005     8.0716     0.3448  C.3     1  <O>11      -0.0189
   2 C2       -5.5928     7.9359    -1.1386  C.3     1  <O>11       0.1761
   3 O1       -6.6300     8.5400    -1.8940  O.3     1  <O>11      -0.4487
   4 C3       -7.8279     8.0623    -1.4800  C.2     1  <O>11       0.3407
   5 O2       -7.8782     7.2359    -0.5812  O.2     1  <O>11      -0.2449
   6 C4       -9.0486     8.5286    -2.1037  C.ar    1  <O>11       0.0732
   7 C5       -9.7086     9.6393    -1.5943  C.ar    1  <O>11       0.0173
   8 C6      -10.8684    10.0613    -2.2217  C.ar    1  <O>11       0.2500
   9 O3      -11.5210    11.1932    -1.6944  O.2     1  <O>11      -0.2679
  10 N1      -11.3790     9.4303    -3.3035  N.ar    1  <O>11      -0.3221
  11 C7      -10.7584     8.3401    -3.7943  C.ar    1  <O>11       0.0500
  12 C8      -11.2657     7.6505    -4.9007  C.ar    1  <O>11      -0.0377
  13 C9      -10.5923     6.5578    -5.4622  C.ar    1  <O>11      -0.0598
  14 C10      -9.4138     6.0973    -4.8881  C.ar    1  <O>11      -0.0611
  15 C11      -8.9043     6.7414    -3.7633  C.ar    1  <O>11      -0.0518
  16 C12      -9.5625     7.8585    -3.2205  C.ar    1  <O>11       0.0125
  17 C13      -5.4950     6.4910    -1.4960  C.2     1  <O>11       0.2579
  18 O4       -6.2510     6.0150    -2.3300  O.2     1  <O>11      -0.2714
  19 N2       -4.5580     5.6980    -0.8900  N.am    1  <O>11      -0.2801
  20 C14      -4.4660     4.3460    -1.2240  C.ar    1  <O>11       0.0691
  21 C15      -4.6515     3.3581    -0.2424  C.ar    1  <O>11      -0.0377
  22 C16      -4.5477     2.0031    -0.5754  C.ar    1  <O>11      -0.0598
  23 C17      -4.2608     1.6232    -1.8903  C.ar    1  <O>11      -0.0589
  24 C18      -4.0832     2.6062    -2.8681  C.ar    1  <O>11      -0.0246
  25 C19      -4.1872     3.9611    -2.5454  C.ar    1  <O>11       0.1445
  26 F1       -4.0229     4.9248    -3.5077  F       1  <O>11      -0.2035
  27 H1       -6.8465     7.5775     0.5662  H       1  <O>11       0.0270
  28 H2       -5.9721     9.1275     0.6058  H       1  <O>11       0.0270
  29 H3       -5.1033     7.6071     0.9252  H       1  <O>11       0.0270
  30 H4       -4.6467     8.4299    -1.3601  H       1  <O>11       0.0830
  31 H5      -12.2198     9.7552    -3.7601  H       1  <O>11       0.1689
  32 H6       -3.9270     6.0950    -0.1940  H       1  <O>11       0.1550
  33 H7       -9.3434    10.1381    -0.7680  H       1  <O>11       0.0680
  34 H8      -12.1606     7.9552    -5.3146  H       1  <O>11       0.0638
  35 H9      -10.9719     6.0946    -6.3027  H       1  <O>11       0.0618
  36 H10      -8.9205     5.2855    -5.2915  H       1  <O>11       0.0618
  37 H11      -8.0365     6.3958    -3.3247  H       1  <O>11       0.0624
  38 H12      -4.8653     3.6332     0.7291  H       1  <O>11       0.0637
  39 H13      -4.6830     1.2825     0.1509  H       1  <O>11       0.0618
  40 H14      -4.1808     0.6243    -2.1371  H       1  <O>11       0.0618
  41 H15      -3.8728     2.3276    -3.8393  H       1  <O>11       0.0647
@<TRIPOS>BOND
     1     1     2    1
     2     2     3    1
     3     3     4    1
     4     4     5    2
     5     4     6    1
     6     6     7   ar
     7     7     8   ar
     8     8     9    2
     9     8    10   ar
    10    10    11   ar
    11    11    12   ar
    12    12    13   ar
    13    13    14   ar
    14    14    15   ar
    15    15    16   ar
    16     6    16   ar
    17    11    16   ar
    18     2    17    1
    19    17    18    2
    20    17    19   am
    21    19    20    1
    22    20    21   ar
    23    21    22   ar
    24    22    23   ar
    25    23    24   ar
    26    24    25   ar
    27    20    25   ar
    28    25    26    1
    29     1    27    1
    30     1    28    1
    31     1    29    1
    32     2    30    1
    33    10    31    1
    34    19    32    1
    35     7    33    1
    36    12    34    1
    37    13    35    1
    38    14    36    1
    39    15    37    1
    40    21    38    1
    41    22    39    1
    42    23    40    1
    43    24    41    1
@<TRIPOS>MOLECULE
mol30_1_22
 41 43 0 0 0
SMALL
USER_CHARGES
****
VDW energy = 9.81
@<TRIPOS>ATOM
   1 C1       -5.9005     8.0716     0.3448  C.3     1  <O>11      -0.0189
   2 C2       -5.5928     7.9359    -1.1386  C.3     1  <O>11       0.1761
   3 O1       -6.6300     8.5400    -1.8940  O.3     1  <O>11      -0.4487
   4 C3       -6.3560     8.4200    -3.2150  C.2     1  <O>11       0.3407
   5 O2       -5.3350     7.8550    -3.5780  O.2     1  <O>11      -0.2449
   6 C4       -7.2710     8.9630    -4.1970  C.ar    1  <O>11       0.0732
   7 C5       -6.7781     9.5969    -5.3301  C.ar    1  <O>11       0.0173
   8 C6       -7.6828    10.0964    -6.2514  C.ar    1  <O>11       0.2500
   9 O3       -7.1643    10.7311    -7.3975  O.2     1  <O>11      -0.2679
  10 N1       -9.0209     9.9925    -6.0842  N.ar    1  <O>11      -0.3221
  11 C7       -9.5107     9.3973    -4.9795  C.ar    1  <O>11       0.0500
  12 C8      -10.8883     9.2865    -4.7630  C.ar    1  <O>11      -0.0377
  13 C9      -11.4093     8.6089    -3.6529  C.ar    1  <O>11      -0.0598
  14 C10     -10.5519     8.0703    -2.7014  C.ar    1  <O>11      -0.0611
  15 C11      -9.1755     8.1977    -2.8717  C.ar    1  <O>11      -0.0518
  16 C12      -8.6529     8.8483    -4.0028  C.ar    1  <O>11       0.0125
  17 C13      -5.4950     6.4910    -1.4960  C.2     1  <O>11       0.2579
  18 O4       -6.2510     6.0150    -2.3300  O.2     1  <O>11      -0.2714
  19 N2       -4.5580     5.6980    -0.8900  N.am    1  <O>11      -0.2801
  20 C14      -4.4660     4.3460    -1.2240  C.ar    1  <O>11       0.0691
  21 C15      -5.3310     3.7910    -2.1820  C.ar    1  <O>11      -0.0377
  22 C16      -5.2460     2.4330    -2.5080  C.ar    1  <O>11      -0.0598
  23 C17      -4.2960     1.6190    -1.8830  C.ar    1  <O>11      -0.0589
  24 C18      -3.4310     2.1730    -0.9350  C.ar    1  <O>11      -0.0246
  25 C19      -3.5070     3.5280    -0.6050  C.ar    1  <O>11       0.1445
  26 F1       -2.6510     4.0730     0.3180  F       1  <O>11      -0.2035
  27 H1       -6.8465     7.5775     0.5662  H       1  <O>11       0.0270
  28 H2       -5.9721     9.1275     0.6058  H       1  <O>11       0.0270
  29 H3       -5.1033     7.6071     0.9252  H       1  <O>11       0.0270
  30 H4       -4.6467     8.4299    -1.3601  H       1  <O>11       0.0830
  31 H5       -9.6711    10.3503    -6.7698  H       1  <O>11       0.1689
  32 H6       -3.9270     6.0950    -0.1940  H       1  <O>11       0.1550
  33 H7       -5.7619     9.6934    -5.4817  H       1  <O>11       0.0680
  34 H8      -11.5387     9.7157    -5.4396  H       1  <O>11       0.0638
  35 H9      -12.4305     8.5098    -3.5418  H       1  <O>11       0.0618
  36 H10     -10.9314     7.5805    -1.8762  H       1  <O>11       0.0618
  37 H11      -8.5340     7.8112    -2.1617  H       1  <O>11       0.0624
  38 H12      -6.0325     4.3879    -2.6475  H       1  <O>11       0.0637
  39 H13      -5.8857     2.0312    -3.2111  H       1  <O>11       0.0618
  40 H14      -4.2340     0.6165    -2.1200  H       1  <O>11       0.0618
  41 H15      -2.7284     1.5741    -0.4738  H       1  <O>11       0.0647
@<TRIPOS>BOND
     1     1     2    1
     2     2     3    1
     3     3     4    1
     4     4     5    2
     5     4     6    1
     6     6     7   ar
     7     7     8   ar
     8     8     9    2
     9     8    10   ar
    10    10    11   ar
    11    11    12   ar
    12    12    13   ar
    13    13    14   ar
    14    14    15   ar
    15    15    16   ar
    16     6    16   ar
    17    11    16   ar
    18     2    17    1
    19    17    18    2
    20    17    19   am
    21    19    20    1
    22    20    21   ar
    23    21    22   ar
    24    22    23   ar
    25    23    24   ar
    26    24    25   ar
    27    20    25   ar
    28    25    26    1
    29     1    27    1
    30     1    28    1
    31     1    29    1
    32     2    30    1
    33    10    31    1
    34    19    32    1
    35     7    33    1
    36    12    34    1
    37    13    35    1
    38    14    36    1
    39    15    37    1
    40    21    38    1
    41    22    39    1
    42    23    40    1
    43    24    41    1
@<TRIPOS>MOLECULE
mol30_1_23
 41 43 0 0 0
SMALL
USER_CHARGES
****
VDW energy = 10.46
@<TRIPOS>ATOM
   1 C1       -5.9005     8.0716     0.3448  C.3     1  <O>11      -0.0189
   2 C2       -5.5928     7.9359    -1.1386  C.3     1  <O>11       0.1761
   3 O1       -6.6300     8.5400    -1.8940  O.3     1  <O>11      -0.4487
   4 C3       -6.3560     8.4200    -3.2150  C.2     1  <O>11       0.3407
   5 O2       -5.3350     7.8550    -3.5780  O.2     1  <O>11      -0.2449
   6 C4       -7.2710     8.9630    -4.1970  C.ar    1  <O>11       0.0732
   7 C5       -7.5337     8.2598    -5.3655  C.ar    1  <O>11       0.0173
   8 C6       -8.4204     8.8061    -6.2776  C.ar    1  <O>11       0.2500
   9 O3       -8.6790     8.0757    -7.4544  O.2     1  <O>11      -0.2679
  10 N1       -9.0318     9.9950    -6.0727  N.ar    1  <O>11      -0.3221
  11 C7       -8.7695    10.6954    -4.9523  C.ar    1  <O>11       0.0500
  12 C8       -9.3688    11.9366    -4.7134  C.ar    1  <O>11      -0.0377
  13 C9       -9.1576    12.6415    -3.5211  C.ar    1  <O>11      -0.0598
  14 C10      -8.2918    12.1367    -2.5588  C.ar    1  <O>11      -0.0611
  15 C11      -7.6521    10.9205    -2.7856  C.ar    1  <O>11      -0.0518
  16 C12      -7.8903    10.1975    -3.9672  C.ar    1  <O>11       0.0125
  17 C13      -5.4950     6.4910    -1.4960  C.2     1  <O>11       0.2579
  18 O4       -6.2510     6.0150    -2.3300  O.2     1  <O>11      -0.2714
  19 N2       -4.5580     5.6980    -0.8900  N.am    1  <O>11      -0.2801
  20 C14      -4.4660     4.3460    -1.2240  C.ar    1  <O>11       0.0691
  21 C15      -5.3310     3.7910    -2.1820  C.ar    1  <O>11      -0.0377
  22 C16      -5.2460     2.4330    -2.5080  C.ar    1  <O>11      -0.0598
  23 C17      -4.2960     1.6190    -1.8830  C.ar    1  <O>11      -0.0589
  24 C18      -3.4310     2.1730    -0.9350  C.ar    1  <O>11      -0.0246
  25 C19      -3.5070     3.5280    -0.6050  C.ar    1  <O>11       0.1445
  26 F1       -2.6510     4.0730     0.3180  F       1  <O>11      -0.2035
  27 H1       -6.8465     7.5775     0.5662  H       1  <O>11       0.0270
  28 H2       -5.9721     9.1275     0.6058  H       1  <O>11       0.0270
  29 H3       -5.1033     7.6071     0.9252  H       1  <O>11       0.0270
  30 H4       -4.6467     8.4299    -1.3601  H       1  <O>11       0.0830
  31 H5       -9.6864    10.3776    -6.7405  H       1  <O>11       0.1689
  32 H6       -3.9270     6.0950    -0.1940  H       1  <O>11       0.1550
  33 H7       -7.0788     7.3519    -5.5494  H       1  <O>11       0.0680
  34 H8       -9.9834    12.3444    -5.4353  H       1  <O>11       0.0638
  35 H9       -9.6454    13.5361    -3.3576  H       1  <O>11       0.0618
  36 H10      -8.1242    12.6580    -1.6841  H       1  <O>11       0.0618
  37 H11      -6.9979    10.5470    -2.0803  H       1  <O>11       0.0624
  38 H12      -6.0325     4.3879    -2.6475  H       1  <O>11       0.0637
  39 H13      -5.8857     2.0312    -3.2111  H       1  <O>11       0.0618
  40 H14      -4.2340     0.6165    -2.1200  H       1  <O>11       0.0618
  41 H15      -2.7284     1.5741    -0.4738  H       1  <O>11       0.0647
@<TRIPOS>BOND
     1     1     2    1
     2     2     3    1
     3     3     4    1
     4     4     5    2
     5     4     6    1
     6     6     7   ar
     7     7     8   ar
     8     8     9    2
     9     8    10   ar
    10    10    11   ar
    11    11    12   ar
    12    12    13   ar
    13    13    14   ar
    14    14    15   ar
    15    15    16   ar
    16     6    16   ar
    17    11    16   ar
    18     2    17    1
    19    17    18    2
    20    17    19   am
    21    19    20    1
    22    20    21   ar
    23    21    22   ar
    24    22    23   ar
    25    23    24   ar
    26    24    25   ar
    27    20    25   ar
    28    25    26    1
    29     1    27    1
    30     1    28    1
    31     1    29    1
    32     2    30    1
    33    10    31    1
    34    19    32    1
    35     7    33    1
    36    12    34    1
    37    13    35    1
    38    14    36    1
    39    15    37    1
    40    21    38    1
    41    22    39    1
    42    23    40    1
    43    24    41    1
@<TRIPOS>MOLECULE
mol30_1_24
 41 43 0 0 0
SMALL
USER_CHARGES
****
VDW energy = 10.82
@<TRIPOS>ATOM
   1 C1       -5.9005     8.0716     0.3448  C.3     1  <O>11      -0.0189
   2 C2       -5.5928     7.9359    -1.1386  C.3     1  <O>11       0.1761
   3 O1       -6.6300     8.5400    -1.8940  O.3     1  <O>11      -0.4487
   4 C3       -6.3560     8.4200    -3.2150  C.2     1  <O>11       0.3407
   5 O2       -5.3350     7.8550    -3.5780  O.2     1  <O>11      -0.2449
   6 C4       -7.2710     8.9630    -4.1970  C.ar    1  <O>11       0.0732
   7 C5       -7.1186    10.2702    -4.6406  C.ar    1  <O>11       0.0173
   8 C6       -8.0072    10.7526    -5.5863  C.ar    1  <O>11       0.2500
   9 O3       -7.8335    12.0790    -6.0286  O.2     1  <O>11      -0.2679
  10 N1       -9.0142    10.0006    -6.0860  N.ar    1  <O>11      -0.3221
  11 C7       -9.1839     8.7379    -5.6486  C.ar    1  <O>11       0.0500
  12 C8      -10.2243     7.9353    -6.1288  C.ar    1  <O>11      -0.0377
  13 C9      -10.3691     6.5991    -5.7335  C.ar    1  <O>11      -0.0598
  14 C10      -9.4978     6.0517    -4.7998  C.ar    1  <O>11      -0.0611
  15 C11      -8.4746     6.8383    -4.2764  C.ar    1  <O>11      -0.0518
  16 C12      -8.3093     8.1688    -4.6986  C.ar    1  <O>11       0.0125
  17 C13      -5.4950     6.4910    -1.4960  C.2     1  <O>11       0.2579
  18 O4       -6.2510     6.0150    -2.3300  O.2     1  <O>11      -0.2714
  19 N2       -4.5580     5.6980    -0.8900  N.am    1  <O>11      -0.2801
  20 C14      -3.6941     6.2410     0.0622  C.ar    1  <O>11       0.0691
  21 C15      -2.4602     6.7876    -0.3285  C.ar    1  <O>11      -0.0377
  22 C16      -1.5894     7.3214     0.6278  C.ar    1  <O>11      -0.0598
  23 C17      -1.9439     7.3164     1.9806  C.ar    1  <O>11      -0.0589
  24 C18      -3.1746     6.7787     2.3682  C.ar    1  <O>11      -0.0246
  25 C19      -4.0511     6.2459     1.4203  C.ar    1  <O>11       0.1445
  26 F1       -5.2630     5.7277     1.8005  F       1  <O>11      -0.2035
  27 H1       -6.8465     7.5775     0.5662  H       1  <O>11       0.0270
  28 H2       -5.9721     9.1275     0.6058  H       1  <O>11       0.0270
  29 H3       -5.1033     7.6071     0.9252  H       1  <O>11       0.0270
  30 H4       -4.6467     8.4299    -1.3601  H       1  <O>11       0.0830
  31 H5       -9.6491    10.3600    -6.7850  H       1  <O>11       0.1689
  32 H6       -4.4908     4.7101    -1.1344  H       1  <O>11       0.1550
  33 H7       -6.3612    10.8677    -4.2740  H       1  <O>11       0.0680
  34 H8      -10.9038     8.3387    -6.7926  H       1  <O>11       0.0638
  35 H9      -11.1234     6.0210    -6.1359  H       1  <O>11       0.0618
  36 H10      -9.6077     5.0713    -4.4970  H       1  <O>11       0.0618
  37 H11      -7.8325     6.4412    -3.5729  H       1  <O>11       0.0624
  38 H12      -2.1948     6.7955    -1.3258  H       1  <O>11       0.0637
  39 H13      -0.6837     7.7195     0.3344  H       1  <O>11       0.0618
  40 H14      -1.3016     7.7068     2.6877  H       1  <O>11       0.0618
  41 H15      -3.4385     6.7755     3.3659  H       1  <O>11       0.0647
@<TRIPOS>BOND
     1     1     2    1
     2     2     3    1
     3     3     4    1
     4     4     5    2
     5     4     6    1
     6     6     7   ar
     7     7     8   ar
     8     8     9    2
     9     8    10   ar
    10    10    11   ar
    11    11    12   ar
    12    12    13   ar
    13    13    14   ar
    14    14    15   ar
    15    15    16   ar
    16     6    16   ar
    17    11    16   ar
    18     2    17    1
    19    17    18    2
    20    17    19   am
    21    19    20    1
    22    20    21   ar
    23    21    22   ar
    24    22    23   ar
    25    23    24   ar
    26    24    25   ar
    27    20    25   ar
    28    25    26    1
    29     1    27    1
    30     1    28    1
    31     1    29    1
    32     2    30    1
    33    10    31    1
    34    19    32    1
    35     7    33    1
    36    12    34    1
    37    13    35    1
    38    14    36    1
    39    15    37    1
    40    21    38    1
    41    22    39    1
    42    23    40    1
    43    24    41    1
@<TRIPOS>MOLECULE
mol30_1_25
 41 43 0 0 0
SMALL
USER_CHARGES
****
VDW energy = 13.92
@<TRIPOS>ATOM
   1 C1       -5.9005     8.0716     0.3448  C.3     1  <O>11      -0.0189
   2 C2       -5.5928     7.9359    -1.1386  C.3     1  <O>11       0.1761
   3 O1       -6.6300     8.5400    -1.8940  O.3     1  <O>11      -0.4487
   4 C3       -7.8279     8.0623    -1.4800  C.2     1  <O>11       0.3407
   5 O2       -7.8782     7.2359    -0.5812  O.2     1  <O>11      -0.2449
   6 C4       -9.0486     8.5286    -2.1037  C.ar    1  <O>11       0.0732
   7 C5      -10.1761     8.7698    -1.3295  C.ar    1  <O>11       0.0173
   8 C6      -11.3227     9.2229    -1.9592  C.ar    1  <O>11       0.2500
   9 O3      -12.4548     9.4676    -1.1569  O.2     1  <O>11      -0.2679
  10 N1      -11.3829     9.4330    -3.2939  N.ar    1  <O>11      -0.3221
  11 C7      -10.3016     9.1835    -4.0577  C.ar    1  <O>11       0.0500
  12 C8      -10.3308     9.3720    -5.4436  C.ar    1  <O>11      -0.0377
  13 C9       -9.1930     9.1825    -6.2387  C.ar    1  <O>11      -0.0598
  14 C10      -8.0067     8.7450    -5.6626  C.ar    1  <O>11      -0.0611
  15 C11      -7.9583     8.5134    -4.2901  C.ar    1  <O>11      -0.0518
  16 C12      -9.0908     8.7359    -3.4877  C.ar    1  <O>11       0.0125
  17 C13      -5.4950     6.4910    -1.4960  C.2     1  <O>11       0.2579
  18 O4       -6.2510     6.0150    -2.3300  O.2     1  <O>11      -0.2714
  19 N2       -4.5580     5.6980    -0.8900  N.am    1  <O>11      -0.2801
  20 C14      -4.4660     4.3460    -1.2240  C.ar    1  <O>11       0.0691
  21 C15      -4.6515     3.3581    -0.2424  C.ar    1  <O>11      -0.0377
  22 C16      -4.5477     2.0031    -0.5754  C.ar    1  <O>11      -0.0598
  23 C17      -4.2608     1.6232    -1.8903  C.ar    1  <O>11      -0.0589
  24 C18      -4.0832     2.6062    -2.8681  C.ar    1  <O>11      -0.0246
  25 C19      -4.1872     3.9611    -2.5454  C.ar    1  <O>11       0.1445
  26 F1       -4.0229     4.9248    -3.5077  F       1  <O>11      -0.2035
  27 H1       -6.8465     7.5775     0.5662  H       1  <O>11       0.0270
  28 H2       -5.9721     9.1275     0.6058  H       1  <O>11       0.0270
  29 H3       -5.1033     7.6071     0.9252  H       1  <O>11       0.0270
  30 H4       -4.6467     8.4299    -1.3601  H       1  <O>11       0.0830
  31 H5      -12.2221     9.7756    -3.7404  H       1  <O>11       0.1689
  32 H6       -3.9270     6.0950    -0.1940  H       1  <O>11       0.1550
  33 H7      -10.1596     8.6149    -0.3093  H       1  <O>11       0.0680
  34 H8      -11.2148     9.6584    -5.8925  H       1  <O>11       0.0638
  35 H9       -9.2359     9.3681    -7.2530  H       1  <O>11       0.0618
  36 H10      -7.1693     8.5929    -6.2462  H       1  <O>11       0.0618
  37 H11      -7.0838     8.1757    -3.8585  H       1  <O>11       0.0624
  38 H12      -4.8653     3.6332     0.7291  H       1  <O>11       0.0637
  39 H13      -4.6830     1.2825     0.1509  H       1  <O>11       0.0618
  40 H14      -4.1808     0.6243    -2.1371  H       1  <O>11       0.0618
  41 H15      -3.8728     2.3276    -3.8393  H       1  <O>11       0.0647
@<TRIPOS>BOND
     1     1     2    1
     2     2     3    1
     3     3     4    1
     4     4     5    2
     5     4     6    1
     6     6     7   ar
     7     7     8   ar
     8     8     9    2
     9     8    10   ar
    10    10    11   ar
    11    11    12   ar
    12    12    13   ar
    13    13    14   ar
    14    14    15   ar
    15    15    16   ar
    16     6    16   ar
    17    11    16   ar
    18     2    17    1
    19    17    18    2
    20    17    19   am
    21    19    20    1
    22    20    21   ar
    23    21    22   ar
    24    22    23   ar
    25    23    24   ar
    26    24    25   ar
    27    20    25   ar
    28    25    26    1
    29     1    27    1
    30     1    28    1
    31     1    29    1
    32     2    30    1
    33    10    31    1
    34    19    32    1
    35     7    33    1
    36    12    34    1
    37    13    35    1
    38    14    36    1
    39    15    37    1
    40    21    38    1
    41    22    39    1
    42    23    40    1
    43    24    41    1
@<TRIPOS>MOLECULE
mol30_1_26
 41 43 0 0 0
SMALL
USER_CHARGES
****
VDW energy = 14.63
@<TRIPOS>ATOM
   1 C1       -5.9005     8.0716     0.3448  C.3     1  <O>11      -0.0189
   2 C2       -5.5928     7.9359    -1.1386  C.3     1  <O>11       0.1761
   3 O1       -6.6300     8.5400    -1.8940  O.3     1  <O>11      -0.4487
   4 C3       -6.3560     8.4200    -3.2150  C.2     1  <O>11       0.3407
   5 O2       -5.3350     7.8550    -3.5780  O.2     1  <O>11      -0.2449
   6 C4       -7.2710     8.9630    -4.1970  C.ar    1  <O>11       0.0732
   7 C5       -6.7781     9.5969    -5.3301  C.ar    1  <O>11       0.0173
   8 C6       -7.6828    10.0964    -6.2514  C.ar    1  <O>11       0.2500
   9 O3       -7.1643    10.7311    -7.3975  O.2     1  <O>11      -0.2679
  10 N1       -9.0209     9.9925    -6.0842  N.ar    1  <O>11      -0.3221
  11 C7       -9.5107     9.3973    -4.9795  C.ar    1  <O>11       0.0500
  12 C8      -10.8883     9.2865    -4.7630  C.ar    1  <O>11      -0.0377
  13 C9      -11.4093     8.6089    -3.6529  C.ar    1  <O>11      -0.0598
  14 C10     -10.5519     8.0703    -2.7014  C.ar    1  <O>11      -0.0611
  15 C11      -9.1755     8.1977    -2.8717  C.ar    1  <O>11      -0.0518
  16 C12      -8.6529     8.8483    -4.0028  C.ar    1  <O>11       0.0125
  17 C13      -5.4950     6.4910    -1.4960  C.2     1  <O>11       0.2579
  18 O4       -6.2510     6.0150    -2.3300  O.2     1  <O>11      -0.2714
  19 N2       -4.5580     5.6980    -0.8900  N.am    1  <O>11      -0.2801
  20 C14      -3.6941     6.2410     0.0622  C.ar    1  <O>11       0.0691
  21 C15      -2.4602     6.7876    -0.3285  C.ar    1  <O>11      -0.0377
  22 C16      -1.5894     7.3214     0.6278  C.ar    1  <O>11      -0.0598
  23 C17      -1.9439     7.3164     1.9806  C.ar    1  <O>11      -0.0589
  24 C18      -3.1746     6.7787     2.3682  C.ar    1  <O>11      -0.0246
  25 C19      -4.0511     6.2459     1.4203  C.ar    1  <O>11       0.1445
  26 F1       -5.2630     5.7277     1.8005  F       1  <O>11      -0.2035
  27 H1       -6.8465     7.5775     0.5662  H       1  <O>11       0.0270
  28 H2       -5.9721     9.1275     0.6058  H       1  <O>11       0.0270
  29 H3       -5.1033     7.6071     0.9252  H       1  <O>11       0.0270
  30 H4       -4.6467     8.4299    -1.3601  H       1  <O>11       0.0830
  31 H5       -9.6711    10.3503    -6.7698  H       1  <O>11       0.1689
  32 H6       -4.4908     4.7101    -1.1344  H       1  <O>11       0.1550
  33 H7       -5.7619     9.6934    -5.4817  H       1  <O>11       0.0680
  34 H8      -11.5387     9.7157    -5.4396  H       1  <O>11       0.0638
  35 H9      -12.4305     8.5098    -3.5418  H       1  <O>11       0.0618
  36 H10     -10.9314     7.5805    -1.8762  H       1  <O>11       0.0618
  37 H11      -8.5340     7.8112    -2.1617  H       1  <O>11       0.0624
  38 H12      -2.1948     6.7955    -1.3258  H       1  <O>11       0.0637
  39 H13      -0.6837     7.7195     0.3344  H       1  <O>11       0.0618
  40 H14      -1.3016     7.7068     2.6877  H       1  <O>11       0.0618
  41 H15      -3.4385     6.7755     3.3659  H       1  <O>11       0.0647
@<TRIPOS>BOND
     1     1     2    1
     2     2     3    1
     3     3     4    1
     4     4     5    2
     5     4     6    1
     6     6     7   ar
     7     7     8   ar
     8     8     9    2
     9     8    10   ar
    10    10    11   ar
    11    11    12   ar
    12    12    13   ar
    13    13    14   ar
    14    14    15   ar
    15    15    16   ar
    16     6    16   ar
    17    11    16   ar
    18     2    17    1
    19    17    18    2
    20    17    19   am
    21    19    20    1
    22    20    21   ar
    23    21    22   ar
    24    22    23   ar
    25    23    24   ar
    26    24    25   ar
    27    20    25   ar
    28    25    26    1
    29     1    27    1
    30     1    28    1
    31     1    29    1
    32     2    30    1
    33    10    31    1
    34    19    32    1
    35     7    33    1
    36    12    34    1
    37    13    35    1
    38    14    36    1
    39    15    37    1
    40    21    38    1
    41    22    39    1
    42    23    40    1
    43    24    41    1
@<TRIPOS>MOLECULE
mol30_1_27
 41 43 0 0 0
SMALL
USER_CHARGES
****
VDW energy = 15.23
@<TRIPOS>ATOM
   1 C1       -5.9005     8.0716     0.3448  C.3     1  <O>11      -0.0189
   2 C2       -5.5928     7.9359    -1.1386  C.3     1  <O>11       0.1761
   3 O1       -6.6300     8.5400    -1.8940  O.3     1  <O>11      -0.4487
   4 C3       -6.3560     8.4200    -3.2150  C.2     1  <O>11       0.3407
   5 O2       -5.3350     7.8550    -3.5780  O.2     1  <O>11      -0.2449
   6 C4       -7.2710     8.9630    -4.1970  C.ar    1  <O>11       0.0732
   7 C5       -7.5337     8.2598    -5.3655  C.ar    1  <O>11       0.0173
   8 C6       -8.4204     8.8061    -6.2776  C.ar    1  <O>11       0.2500
   9 O3       -8.6790     8.0757    -7.4544  O.2     1  <O>11      -0.2679
  10 N1       -9.0318     9.9950    -6.0727  N.ar    1  <O>11      -0.3221
  11 C7       -8.7695    10.6954    -4.9523  C.ar    1  <O>11       0.0500
  12 C8       -9.3688    11.9366    -4.7134  C.ar    1  <O>11      -0.0377
  13 C9       -9.1576    12.6415    -3.5211  C.ar    1  <O>11      -0.0598
  14 C10      -8.2918    12.1367    -2.5588  C.ar    1  <O>11      -0.0611
  15 C11      -7.6521    10.9205    -2.7856  C.ar    1  <O>11      -0.0518
  16 C12      -7.8903    10.1975    -3.9672  C.ar    1  <O>11       0.0125
  17 C13      -5.4950     6.4910    -1.4960  C.2     1  <O>11       0.2579
  18 O4       -6.2510     6.0150    -2.3300  O.2     1  <O>11      -0.2714
  19 N2       -4.5580     5.6980    -0.8900  N.am    1  <O>11      -0.2801
  20 C14      -3.6941     6.2410     0.0622  C.ar    1  <O>11       0.0691
  21 C15      -2.4602     6.7876    -0.3285  C.ar    1  <O>11      -0.0377
  22 C16      -1.5894     7.3214     0.6278  C.ar    1  <O>11      -0.0598
  23 C17      -1.9439     7.3164     1.9806  C.ar    1  <O>11      -0.0589
  24 C18      -3.1746     6.7787     2.3682  C.ar    1  <O>11      -0.0246
  25 C19      -4.0511     6.2459     1.4203  C.ar    1  <O>11       0.1445
  26 F1       -5.2630     5.7277     1.8005  F       1  <O>11      -0.2035
  27 H1       -6.8465     7.5775     0.5662  H       1  <O>11       0.0270
  28 H2       -5.9721     9.1275     0.6058  H       1  <O>11       0.0270
  29 H3       -5.1033     7.6071     0.9252  H       1  <O>11       0.0270
  30 H4       -4.6467     8.4299    -1.3601  H       1  <O>11       0.0830
  31 H5       -9.6864    10.3776    -6.7405  H       1  <O>11       0.1689
  32 H6       -4.4908     4.7101    -1.1344  H       1  <O>11       0.1550
  33 H7       -7.0788     7.3519    -5.5494  H       1  <O>11       0.0680
  34 H8       -9.9834    12.3444    -5.4353  H       1  <O>11       0.0638
  35 H9       -9.6454    13.5361    -3.3576  H       1  <O>11       0.0618
  36 H10      -8.1242    12.6580    -1.6841  H       1  <O>11       0.0618
  37 H11      -6.9979    10.5470    -2.0803  H       1  <O>11       0.0624
  38 H12      -2.1948     6.7955    -1.3258  H       1  <O>11       0.0637
  39 H13      -0.6837     7.7195     0.3344  H       1  <O>11       0.0618
  40 H14      -1.3016     7.7068     2.6877  H       1  <O>11       0.0618
  41 H15      -3.4385     6.7755     3.3659  H       1  <O>11       0.0647
@<TRIPOS>BOND
     1     1     2    1
     2     2     3    1
     3     3     4    1
     4     4     5    2
     5     4     6    1
     6     6     7   ar
     7     7     8   ar
     8     8     9    2
     9     8    10   ar
    10    10    11   ar
    11    11    12   ar
    12    12    13   ar
    13    13    14   ar
    14    14    15   ar
    15    15    16   ar
    16     6    16   ar
    17    11    16   ar
    18     2    17    1
    19    17    18    2
    20    17    19   am
    21    19    20    1
    22    20    21   ar
    23    21    22   ar
    24    22    23   ar
    25    23    24   ar
    26    24    25   ar
    27    20    25   ar
    28    25    26    1
    29     1    27    1
    30     1    28    1
    31     1    29    1
    32     2    30    1
    33    10    31    1
    34    19    32    1
    35     7    33    1
    36    12    34    1
    37    13    35    1
    38    14    36    1
    39    15    37    1
    40    21    38    1
    41    22    39    1
    42    23    40    1
    43    24    41    1
@<TRIPOS>MOLECULE
mol30_1_28
 41 43 0 0 0
SMALL
USER_CHARGES
****
VDW energy = 15.80
@<TRIPOS>ATOM
   1 C1       -5.9005     8.0716     0.3448  C.3     1  <O>11      -0.0189
   2 C2       -5.5928     7.9359    -1.1386  C.3     1  <O>11       0.1761
   3 O1       -6.6300     8.5400    -1.8940  O.3     1  <O>11      -0.4487
   4 C3       -7.8279     8.0623    -1.4800  C.2     1  <O>11       0.3407
   5 O2       -7.8782     7.2359    -0.5812  O.2     1  <O>11      -0.2449
   6 C4       -9.0486     8.5286    -2.1037  C.ar    1  <O>11       0.0732
   7 C5      -10.1761     8.7698    -1.3295  C.ar    1  <O>11       0.0173
   8 C6      -11.3227     9.2229    -1.9592  C.ar    1  <O>11       0.2500
   9 O3      -12.4548     9.4676    -1.1569  O.2     1  <O>11      -0.2679
  10 N1      -11.3829     9.4330    -3.2939  N.ar    1  <O>11      -0.3221
  11 C7      -10.3016     9.1835    -4.0577  C.ar    1  <O>11       0.0500
  12 C8      -10.3308     9.3720    -5.4436  C.ar    1  <O>11      -0.0377
  13 C9       -9.1930     9.1825    -6.2387  C.ar    1  <O>11      -0.0598
  14 C10      -8.0067     8.7450    -5.6626  C.ar    1  <O>11      -0.0611
  15 C11      -7.9583     8.5134    -4.2901  C.ar    1  <O>11      -0.0518
  16 C12      -9.0908     8.7359    -3.4877  C.ar    1  <O>11       0.0125
  17 C13      -5.4950     6.4910    -1.4960  C.2     1  <O>11       0.2579
  18 O4       -5.2856     5.6588    -0.6258  O.2     1  <O>11      -0.2714
  19 N2       -5.6402     6.0969    -2.7990  N.am    1  <O>11      -0.2801
  20 C14      -5.5488     4.7451    -3.1340  C.ar    1  <O>11       0.0691
  21 C15      -4.5651     4.3018    -4.0339  C.ar    1  <O>11      -0.0377
  22 C16      -4.4814     2.9482    -4.3783  C.ar    1  <O>11      -0.0598
  23 C17      -5.3762     2.0264    -3.8258  C.ar    1  <O>11      -0.0589
  24 C18      -6.3502     2.4668    -2.9251  C.ar    1  <O>11      -0.0246
  25 C19      -6.4399     3.8156    -2.5737  C.ar    1  <O>11       0.1445
  26 F1       -7.3896     4.2453    -1.6820  F       1  <O>11      -0.2035
  27 H1       -6.8465     7.5775     0.5662  H       1  <O>11       0.0270
  28 H2       -5.9721     9.1275     0.6058  H       1  <O>11       0.0270
  29 H3       -5.1033     7.6071     0.9252  H       1  <O>11       0.0270
  30 H4       -4.6467     8.4299    -1.3601  H       1  <O>11       0.0830
  31 H5      -12.2221     9.7756    -3.7404  H       1  <O>11       0.1689
  32 H6       -5.8149     6.7912    -3.5253  H       1  <O>11       0.1550
  33 H7      -10.1596     8.6149    -0.3093  H       1  <O>11       0.0680
  34 H8      -11.2148     9.6584    -5.8925  H       1  <O>11       0.0638
  35 H9       -9.2359     9.3681    -7.2530  H       1  <O>11       0.0618
  36 H10      -7.1693     8.5929    -6.2462  H       1  <O>11       0.0618
  37 H11      -7.0838     8.1757    -3.8585  H       1  <O>11       0.0624
  38 H12      -3.9012     4.9777    -4.4429  H       1  <O>11       0.0637
  39 H13      -3.7578     2.6295    -5.0415  H       1  <O>11       0.0618
  40 H14      -5.3178     1.0282    -4.0811  H       1  <O>11       0.0618
  41 H15      -7.0105     1.7878    -2.5153  H       1  <O>11       0.0647
@<TRIPOS>BOND
     1     1     2    1
     2     2     3    1
     3     3     4    1
     4     4     5    2
     5     4     6    1
     6     6     7   ar
     7     7     8   ar
     8     8     9    2
     9     8    10   ar
    10    10    11   ar
    11    11    12   ar
    12    12    13   ar
    13    13    14   ar
    14    14    15   ar
    15    15    16   ar
    16     6    16   ar
    17    11    16   ar
    18     2    17    1
    19    17    18    2
    20    17    19   am
    21    19    20    1
    22    20    21   ar
    23    21    22   ar
    24    22    23   ar
    25    23    24   ar
    26    24    25   ar
    27    20    25   ar
    28    25    26    1
    29     1    27    1
    30     1    28    1
    31     1    29    1
    32     2    30    1
    33    10    31    1
    34    19    32    1
    35     7    33    1
    36    12    34    1
    37    13    35    1
    38    14    36    1
    39    15    37    1
    40    21    38    1
    41    22    39    1
    42    23    40    1
    43    24    41    1
@<TRIPOS>MOLECULE
mol30_1_29
 41 43 0 0 0
SMALL
USER_CHARGES
****
VDW energy = 18.22
@<TRIPOS>ATOM
   1 C1       -5.9005     8.0716     0.3448  C.3     1  <O>11      -0.0189
   2 C2       -5.5928     7.9359    -1.1386  C.3     1  <O>11       0.1761
   3 O1       -6.6300     8.5400    -1.8940  O.3     1  <O>11      -0.4487
   4 C3       -6.3560     8.4200    -3.2150  C.2     1  <O>11       0.3407
   5 O2       -5.3350     7.8550    -3.5780  O.2     1  <O>11      -0.2449
   6 C4       -7.2710     8.9630    -4.1970  C.ar    1  <O>11       0.0732
   7 C5       -8.4303     9.6072    -3.7850  C.ar    1  <O>11       0.0173
   8 C6       -9.2773    10.1212    -4.7520  C.ar    1  <O>11       0.2500
   9 O3      -10.4456    10.7764    -4.3149  O.2     1  <O>11      -0.2679
  10 N1       -9.0180    10.0140    -6.0750  N.ar    1  <O>11      -0.3221
  11 C7       -7.9067     9.3738    -6.4870  C.ar    1  <O>11       0.0500
  12 C8       -7.6134     9.2276    -7.8470  C.ar    1  <O>11      -0.0377
  13 C9       -6.4270     8.6253    -8.2861  C.ar    1  <O>11      -0.0598
  14 C10      -5.5281     8.1053    -7.3631  C.ar    1  <O>11      -0.0611
  15 C11      -5.8114     8.2035    -6.0031  C.ar    1  <O>11      -0.0518
  16 C12      -6.9857     8.8378    -5.5620  C.ar    1  <O>11       0.0125
  17 C13      -5.4950     6.4910    -1.4960  C.2     1  <O>11       0.2579
  18 O4       -4.3992     5.9601    -1.6012  O.2     1  <O>11      -0.2714
  19 N2       -6.6329     5.7594    -1.7059  N.am    1  <O>11      -0.2801
  20 C14      -6.5420     4.4074    -2.0403  C.ar    1  <O>11       0.0691
  21 C15      -5.2862     3.7893    -2.1628  C.ar    1  <O>11      -0.0377
  22 C16      -5.1954     2.4368    -2.5094  C.ar    1  <O>11      -0.0598
  23 C17      -6.3563     1.6900    -2.7338  C.ar    1  <O>11      -0.0589
  24 C18      -7.6057     2.3035    -2.6051  C.ar    1  <O>11      -0.0246
  25 C19      -7.7060     3.6525    -2.2572  C.ar    1  <O>11       0.1445
  26 F1       -8.9327     4.2511    -2.1211  F       1  <O>11      -0.2035
  27 H1       -6.8465     7.5775     0.5662  H       1  <O>11       0.0270
  28 H2       -5.9721     9.1275     0.6058  H       1  <O>11       0.0270
  29 H3       -5.1033     7.6071     0.9252  H       1  <O>11       0.0270
  30 H4       -4.6467     8.4299    -1.3601  H       1  <O>11       0.0830
  31 H5       -9.6380    10.4040    -6.7710  H       1  <O>11       0.1689
  32 H6       -7.5474     6.2022    -1.6182  H       1  <O>11       0.1550
  33 H7       -8.6550     9.7005    -2.7820  H       1  <O>11       0.0680
  34 H8       -8.2895     9.5728    -8.5461  H       1  <O>11       0.0638
  35 H9       -6.2208     8.5679    -9.2957  H       1  <O>11       0.0618
  36 H10      -4.6585     7.6505    -7.6824  H       1  <O>11       0.0618
  37 H11      -5.1538     7.8074    -5.3134  H       1  <O>11       0.0624
  38 H12      -4.4266     4.3355    -1.9963  H       1  <O>11       0.0637
  39 H13      -4.2699     1.9893    -2.5997  H       1  <O>11       0.0618
  40 H14      -6.2911     0.6931    -2.9926  H       1  <O>11       0.0618
  41 H15      -8.4635     1.7536    -2.7689  H       1  <O>11       0.0647
@<TRIPOS>BOND
     1     1     2    1
     2     2     3    1
     3     3     4    1
     4     4     5    2
     5     4     6    1
     6     6     7   ar
     7     7     8   ar
     8     8     9    2
     9     8    10   ar
    10    10    11   ar
    11    11    12   ar
    12    12    13   ar
    13    13    14   ar
    14    14    15   ar
    15    15    16   ar
    16     6    16   ar
    17    11    16   ar
    18     2    17    1
    19    17    18    2
    20    17    19   am
    21    19    20    1
    22    20    21   ar
    23    21    22   ar
    24    22    23   ar
    25    23    24   ar
    26    24    25   ar
    27    20    25   ar
    28    25    26    1
    29     1    27    1
    30     1    28    1
    31     1    29    1
    32     2    30    1
    33    10    31    1
    34    19    32    1
    35     7    33    1
    36    12    34    1
    37    13    35    1
    38    14    36    1
    39    15    37    1
    40    21    38    1
    41    22    39    1
    42    23    40    1
    43    24    41    1
@<TRIPOS>MOLECULE
mol30_1_30
 41 43 0 0 0
SMALL
USER_CHARGES
****
VDW energy = 23.89
@<TRIPOS>ATOM
   1 C1       -5.9005     8.0716     0.3448  C.3     1  <O>11      -0.0189
   2 C2       -5.5928     7.9359    -1.1386  C.3     1  <O>11       0.1761
   3 O1       -6.6300     8.5400    -1.8940  O.3     1  <O>11      -0.4487
   4 C3       -6.3560     8.4200    -3.2150  C.2     1  <O>11       0.3407
   5 O2       -5.3350     7.8550    -3.5780  O.2     1  <O>11      -0.2449
   6 C4       -7.2710     8.9630    -4.1970  C.ar    1  <O>11       0.0732
   7 C5       -8.4310     9.6060    -3.7850  C.ar    1  <O>11       0.0173
   8 C6       -9.2780    10.1200    -4.7520  C.ar    1  <O>11       0.2500
   9 O3      -10.4470    10.7740    -4.3150  O.2     1  <O>11      -0.2679
  10 N1       -9.0180    10.0140    -6.0750  N.ar    1  <O>11      -0.3221
  11 C7       -7.9060     9.3750    -6.4870  C.ar    1  <O>11       0.0500
  12 C8       -7.6120     9.2300    -7.8470  C.ar    1  <O>11      -0.0377
  13 C9       -6.4250     8.6290    -8.2860  C.ar    1  <O>11      -0.0598
  14 C10      -5.5260     8.1090    -7.3630  C.ar    1  <O>11      -0.0611
  15 C11      -5.8100     8.2060    -6.0030  C.ar    1  <O>11      -0.0518
  16 C12      -6.9850     8.8390    -5.5620  C.ar    1  <O>11       0.0125
  17 C13      -5.4950     6.4910    -1.4960  C.2     1  <O>11       0.2579
  18 O4       -6.2510     6.0150    -2.3300  O.2     1  <O>11      -0.2714
  19 N2       -4.5580     5.6980    -0.8900  N.am    1  <O>11      -0.2801
  20 C14      -4.4660     4.3460    -1.2240  C.ar    1  <O>11       0.0691
  21 C15      -5.3310     3.7910    -2.1820  C.ar    1  <O>11      -0.0377
  22 C16      -5.2460     2.4330    -2.5080  C.ar    1  <O>11      -0.0598
  23 C17      -4.2960     1.6190    -1.8830  C.ar    1  <O>11      -0.0589
  24 C18      -3.4310     2.1730    -0.9350  C.ar    1  <O>11      -0.0246
  25 C19      -3.5070     3.5280    -0.6050  C.ar    1  <O>11       0.1445
  26 F1       -2.6510     4.0730     0.3180  F       1  <O>11      -0.2035
  27 H1       -6.8465     7.5775     0.5662  H       1  <O>11       0.0270
  28 H2       -5.9721     9.1275     0.6058  H       1  <O>11       0.0270
  29 H3       -5.1033     7.6071     0.9252  H       1  <O>11       0.0270
  30 H4       -4.6467     8.4299    -1.3601  H       1  <O>11       0.0830
  31 H5       -9.6380    10.4040    -6.7710  H       1  <O>11       0.1689
  32 H6       -3.9270     6.0950    -0.1940  H       1  <O>11       0.1550
  33 H7       -8.6562     9.6984    -2.7821  H       1  <O>11       0.0680
  34 H8       -8.2881     9.5752    -8.5461  H       1  <O>11       0.0638
  35 H9       -6.2183     8.5725    -9.2955  H       1  <O>11       0.0618
  36 H10      -4.6559     7.6551    -7.6822  H       1  <O>11       0.0618
  37 H11      -5.1524     7.8099    -5.3133  H       1  <O>11       0.0624
  38 H12      -6.0325     4.3879    -2.6475  H       1  <O>11       0.0637
  39 H13      -5.8857     2.0312    -3.2111  H       1  <O>11       0.0618
  40 H14      -4.2340     0.6165    -2.1200  H       1  <O>11       0.0618
  41 H15      -2.7284     1.5741    -0.4738  H       1  <O>11       0.0647
@<TRIPOS>BOND
     1     1     2    1
     2     2     3    1
     3     3     4    1
     4     4     5    2
     5     4     6    1
     6     6     7   ar
     7     7     8   ar
     8     8     9    2
     9     8    10   ar
    10    10    11   ar
    11    11    12   ar
    12    12    13   ar
    13    13    14   ar
    14    14    15   ar
    15    15    16   ar
    16     6    16   ar
    17    11    16   ar
    18     2    17    1
    19    17    18    2
    20    17    19   am
    21    19    20    1
    22    20    21   ar
    23    21    22   ar
    24    22    23   ar
    25    23    24   ar
    26    24    25   ar
    27    20    25   ar
    28    25    26    1
    29     1    27    1
    30     1    28    1
    31     1    29    1
    32     2    30    1
    33    10    31    1
    34    19    32    1
    35     7    33    1
    36    12    34    1
    37    13    35    1
    38    14    36    1
    39    15    37    1
    40    21    38    1
    41    22    39    1
    42    23    40    1
    43    24    41    1
