@<TRIPOS>MOLECULE
mol34_1_1
 41 43 0 0 0
SMALL
USER_CHARGES
****
VDW energy = -42.41
@<TRIPOS>ATOM
   1 O1       10.5517     2.7793    -2.2805  O.2     1  <O>11      -0.2702
   2 C1       11.1005     2.0164    -3.0615  C.2     1  <O>11       0.2441
   3 N1       10.4790     0.8560    -3.4360  N.am    1  <O>11      -0.3099
   4 C2        9.1600     0.5290    -2.9010  C.3     1  <O>11       0.0275
   5 C3        8.6980    -0.8020    -3.4710  C.3     1  <O>11       0.0275
   6 N2        7.3790    -1.1290    -2.9370  N.am    1  <O>11      -0.3085
   7 C4        6.7580    -2.2900    -3.3120  C.2     1  <O>11       0.2648
   8 O2        7.3070    -3.0520    -4.0940  O.2     1  <O>11      -0.2684
   9 C5        5.4510    -2.6160    -2.7840  C.ar    1  <O>11       0.1533
  10 N3        5.4414    -3.3316    -1.6338  N.ar    1  <O>11      -0.1656
  11 N4        4.2623    -3.7661    -1.1329  N.ar    1  <O>11      -0.2420
  12 C6        3.1163    -3.4642    -1.7900  C.ar    1  <O>11       0.2725
  13 O3        1.9358    -4.0282    -1.2718  O.2     1  <O>11      -0.2658
  14 C7        3.0624    -2.6447    -2.9270  C.ar    1  <O>11       0.0501
  15 C8        1.8639    -2.2802    -3.5821  C.ar    1  <O>11      -0.0487
  16 C9        1.8825    -1.4858    -4.7276  C.ar    1  <O>11      -0.0610
  17 C10       3.0951    -1.0471    -5.2470  C.ar    1  <O>11      -0.0611
  18 C11       4.2898    -1.4036    -4.6178  C.ar    1  <O>11      -0.0516
  19 C12       4.2878    -2.2000    -3.4509  C.ar    1  <O>11       0.0195
  20 C13      12.4170     2.3420    -3.5950  C.ar    1  <O>11       0.0369
  21 C14      12.5365     3.0796    -4.7854  C.ar    1  <O>11      -0.0469
  22 C15      13.8010     3.3816    -5.3037  C.ar    1  <O>11      -0.0257
  23 C16      14.9529     2.9557    -4.6394  C.ar    1  <O>11       0.1234
  24 F1       16.1953     3.2464    -5.1424  F       1  <O>11      -0.2055
  25 C17      14.8332     2.2268    -3.4506  C.ar    1  <O>11      -0.0257
  26 C18      13.5782     1.9214    -2.9249  C.ar    1  <O>11      -0.0469
  27 H1       10.9370     0.2190    -4.0870  H       1  <O>11       0.1491
  28 H2        9.2150     0.4600    -1.8150  H       1  <O>11       0.0477
  29 H3        8.4510     1.3090    -3.1810  H       1  <O>11       0.0477
  30 H4        8.6430    -0.7340    -4.5570  H       1  <O>11       0.0477
  31 H5        9.4060    -1.5820    -3.1920  H       1  <O>11       0.0477
  32 H6        6.9200    -0.4930    -2.2860  H       1  <O>11       0.1491
  33 H7        4.2358    -4.3059    -0.2801  H       1  <O>11       0.1921
  34 H8        0.9603    -2.6076    -3.2062  H       1  <O>11       0.0625
  35 H9        0.9975    -1.2237    -5.1893  H       1  <O>11       0.0618
  36 H10       3.1124    -0.4597    -6.0953  H       1  <O>11       0.0618
  37 H11       5.1875    -1.0805    -5.0111  H       1  <O>11       0.0624
  38 H12      11.6887     3.3997    -5.2791  H       1  <O>11       0.0626
  39 H13      13.8822     3.9209    -6.1798  H       1  <O>11       0.0646
  40 H14      15.6833     1.9118    -2.9575  H       1  <O>11       0.0646
  41 H15      13.5025     1.3874    -2.0450  H       1  <O>11       0.0626
@<TRIPOS>BOND
     1     1     2    2
     2     2     3   am
     3     3     4    1
     4     4     5    1
     5     5     6    1
     6     6     7   am
     7     7     8    2
     8     7     9    1
     9     9    10   ar
    10    10    11   ar
    11    11    12   ar
    12    12    13    2
    13    12    14   ar
    14    14    15   ar
    15    15    16   ar
    16    16    17   ar
    17    17    18   ar
    18    18    19   ar
    19     9    19   ar
    20    14    19   ar
    21     2    20    1
    22    20    21   ar
    23    21    22   ar
    24    22    23   ar
    25    23    24    1
    26    23    25   ar
    27    25    26   ar
    28    20    26   ar
    29     3    27    1
    30     4    28    1
    31     4    29    1
    32     5    30    1
    33     5    31    1
    34     6    32    1
    35    11    33    1
    36    15    34    1
    37    16    35    1
    38    17    36    1
    39    18    37    1
    40    21    38    1
    41    22    39    1
    42    25    40    1
    43    26    41    1
@<TRIPOS>MOLECULE
mol34_1_2
 41 43 0 0 0
SMALL
USER_CHARGES
****
VDW energy = -41.12
@<TRIPOS>ATOM
   1 O1       10.5517     2.7793    -2.2805  O.2     1  <O>11      -0.2702
   2 C1       11.1005     2.0164    -3.0615  C.2     1  <O>11       0.2441
   3 N1       10.4790     0.8560    -3.4360  N.am    1  <O>11      -0.3099
   4 C2       11.1355    -0.0550    -4.3699  C.3     1  <O>11       0.0275
   5 C3       10.2402    -1.2579    -4.6178  C.3     1  <O>11       0.0275
   6 N2       10.8964    -2.1693    -5.5508  N.am    1  <O>11      -0.3085
   7 C4       10.2740    -3.3299    -5.9250  C.2     1  <O>11       0.2648
   8 O2        9.1701    -3.6033    -5.4777  O.2     1  <O>11      -0.2684
   9 C5       10.9225    -4.2344    -6.8495  C.ar    1  <O>11       0.1533
  10 N3       10.6636    -4.0217    -8.1621  N.ar    1  <O>11      -0.1656
  11 N4       11.1465    -4.8878    -9.0821  N.ar    1  <O>11      -0.2420
  12 C6       11.8887    -5.9431    -8.6675  C.ar    1  <O>11       0.2725
  13 O3       12.2772    -6.8588    -9.6628  O.2     1  <O>11      -0.2658
  14 C7       12.2682    -6.1531    -7.3337  C.ar    1  <O>11       0.0501
  15 C8       13.0899    -7.2204    -6.9047  C.ar    1  <O>11      -0.0487
  16 C9       13.4053    -7.3895    -5.5573  C.ar    1  <O>11      -0.0610
  17 C10      12.9012    -6.5044    -4.6112  C.ar    1  <O>11      -0.0611
  18 C11      12.0815    -5.4485    -5.0154  C.ar    1  <O>11      -0.0516
  19 C12      11.7602    -5.2574    -6.3778  C.ar    1  <O>11       0.0195
  20 C13      12.4170     2.3420    -3.5950  C.ar    1  <O>11       0.0369
  21 C14      12.5365     3.0796    -4.7854  C.ar    1  <O>11      -0.0469
  22 C15      13.8010     3.3816    -5.3037  C.ar    1  <O>11      -0.0257
  23 C16      14.9529     2.9557    -4.6394  C.ar    1  <O>11       0.1234
  24 F1       16.1953     3.2464    -5.1424  F       1  <O>11      -0.2055
  25 C17      14.8332     2.2268    -3.4506  C.ar    1  <O>11      -0.0257
  26 C18      13.5782     1.9214    -2.9249  C.ar    1  <O>11      -0.0469
  27 H1        9.5573     0.6280    -3.0647  H       1  <O>11       0.1491
  28 H2       11.3205     0.4608    -5.3116  H       1  <O>11       0.0477
  29 H3       12.0828    -0.3895    -3.9455  H       1  <O>11       0.0477
  30 H4       10.0544    -1.7741    -3.6765  H       1  <O>11       0.0477
  31 H5        9.2932    -0.9247    -5.0415  H       1  <O>11       0.0477
  32 H6       11.8179    -1.9425    -5.9228  H       1  <O>11       0.1491
  33 H7       10.9589    -4.7490   -10.0644  H       1  <O>11       0.1921
  34 H8       13.4624    -7.8854    -7.6004  H       1  <O>11       0.0625
  35 H9       14.0121    -8.1705    -5.2626  H       1  <O>11       0.0618
  36 H10      13.1321    -6.6273    -3.6129  H       1  <O>11       0.0618
  37 H11      11.7049    -4.7980    -4.3083  H       1  <O>11       0.0624
  38 H12      11.6887     3.3997    -5.2791  H       1  <O>11       0.0626
  39 H13      13.8822     3.9209    -6.1798  H       1  <O>11       0.0646
  40 H14      15.6833     1.9118    -2.9575  H       1  <O>11       0.0646
  41 H15      13.5025     1.3874    -2.0450  H       1  <O>11       0.0626
@<TRIPOS>BOND
     1     1     2    2
     2     2     3   am
     3     3     4    1
     4     4     5    1
     5     5     6    1
     6     6     7   am
     7     7     8    2
     8     7     9    1
     9     9    10   ar
    10    10    11   ar
    11    11    12   ar
    12    12    13    2
    13    12    14   ar
    14    14    15   ar
    15    15    16   ar
    16    16    17   ar
    17    17    18   ar
    18    18    19   ar
    19     9    19   ar
    20    14    19   ar
    21     2    20    1
    22    20    21   ar
    23    21    22   ar
    24    22    23   ar
    25    23    24    1
    26    23    25   ar
    27    25    26   ar
    28    20    26   ar
    29     3    27    1
    30     4    28    1
    31     4    29    1
    32     5    30    1
    33     5    31    1
    34     6    32    1
    35    11    33    1
    36    15    34    1
    37    16    35    1
    38    17    36    1
    39    18    37    1
    40    21    38    1
    41    22    39    1
    42    25    40    1
    43    26    41    1
@<TRIPOS>MOLECULE
mol34_1_3
 41 43 0 0 0
SMALL
USER_CHARGES
****
VDW energy = -39.74
@<TRIPOS>ATOM
   1 O1       10.5517     2.7793    -2.2805  O.2     1  <O>11      -0.2702
   2 C1       11.1005     2.0164    -3.0615  C.2     1  <O>11       0.2441
   3 N1       10.4790     0.8560    -3.4360  N.am    1  <O>11      -0.3099
   4 C2        9.1600     0.5290    -2.9010  C.3     1  <O>11       0.0275
   5 C3        8.6980    -0.8020    -3.4710  C.3     1  <O>11       0.0275
   6 N2        7.3790    -1.1290    -2.9370  N.am    1  <O>11      -0.3085
   7 C4        6.7580    -2.2900    -3.3120  C.2     1  <O>11       0.2648
   8 O2        7.3070    -3.0520    -4.0940  O.2     1  <O>11      -0.2684
   9 C5        5.4510    -2.6160    -2.7840  C.ar    1  <O>11       0.1533
  10 N3        5.4414    -3.3316    -1.6338  N.ar    1  <O>11      -0.1656
  11 N4        4.2623    -3.7661    -1.1329  N.ar    1  <O>11      -0.2420
  12 C6        3.1163    -3.4642    -1.7900  C.ar    1  <O>11       0.2725
  13 O3        1.9358    -4.0282    -1.2718  O.2     1  <O>11      -0.2658
  14 C7        3.0624    -2.6447    -2.9270  C.ar    1  <O>11       0.0501
  15 C8        1.8639    -2.2802    -3.5821  C.ar    1  <O>11      -0.0487
  16 C9        1.8825    -1.4858    -4.7276  C.ar    1  <O>11      -0.0610
  17 C10       3.0951    -1.0471    -5.2470  C.ar    1  <O>11      -0.0611
  18 C11       4.2898    -1.4036    -4.6178  C.ar    1  <O>11      -0.0516
  19 C12       4.2878    -2.2000    -3.4509  C.ar    1  <O>11       0.0195
  20 C13      12.4170     2.3420    -3.5950  C.ar    1  <O>11       0.0369
  21 C14      13.3864     1.3366    -3.7518  C.ar    1  <O>11      -0.0469
  22 C15      14.6546     1.6520    -4.2528  C.ar    1  <O>11      -0.0257
  23 C16      14.9642     2.9673    -4.6044  C.ar    1  <O>11       0.1234
  24 F1       16.2055     3.2841    -5.0944  F       1  <O>11      -0.2055
  25 C17      13.9962     3.9669    -4.4541  C.ar    1  <O>11      -0.0257
  26 C18      12.7292     3.6633    -3.9569  C.ar    1  <O>11      -0.0469
  27 H1       10.9370     0.2190    -4.0870  H       1  <O>11       0.1491
  28 H2        9.2150     0.4600    -1.8150  H       1  <O>11       0.0477
  29 H3        8.4510     1.3090    -3.1810  H       1  <O>11       0.0477
  30 H4        8.6430    -0.7340    -4.5570  H       1  <O>11       0.0477
  31 H5        9.4060    -1.5820    -3.1920  H       1  <O>11       0.0477
  32 H6        6.9200    -0.4930    -2.2860  H       1  <O>11       0.1491
  33 H7        4.2358    -4.3059    -0.2801  H       1  <O>11       0.1921
  34 H8        0.9603    -2.6076    -3.2062  H       1  <O>11       0.0625
  35 H9        0.9975    -1.2237    -5.1893  H       1  <O>11       0.0618
  36 H10       3.1124    -0.4597    -6.0953  H       1  <O>11       0.0618
  37 H11       5.1875    -1.0805    -5.0111  H       1  <O>11       0.0624
  38 H12      13.1623     0.3621    -3.4965  H       1  <O>11       0.0626
  39 H13      15.3632     0.9098    -4.3628  H       1  <O>11       0.0646
  40 H14      14.2226     4.9396    -4.7142  H       1  <O>11       0.0646
  41 H15      12.0220     4.4080    -3.8549  H       1  <O>11       0.0626
@<TRIPOS>BOND
     1     1     2    2
     2     2     3   am
     3     3     4    1
     4     4     5    1
     5     5     6    1
     6     6     7   am
     7     7     8    2
     8     7     9    1
     9     9    10   ar
    10    10    11   ar
    11    11    12   ar
    12    12    13    2
    13    12    14   ar
    14    14    15   ar
    15    15    16   ar
    16    16    17   ar
    17    17    18   ar
    18    18    19   ar
    19     9    19   ar
    20    14    19   ar
    21     2    20    1
    22    20    21   ar
    23    21    22   ar
    24    22    23   ar
    25    23    24    1
    26    23    25   ar
    27    25    26   ar
    28    20    26   ar
    29     3    27    1
    30     4    28    1
    31     4    29    1
    32     5    30    1
    33     5    31    1
    34     6    32    1
    35    11    33    1
    36    15    34    1
    37    16    35    1
    38    17    36    1
    39    18    37    1
    40    21    38    1
    41    22    39    1
    42    25    40    1
    43    26    41    1
@<TRIPOS>MOLECULE
mol34_1_4
 41 43 0 0 0
SMALL
USER_CHARGES
****
VDW energy = -34.36
@<TRIPOS>ATOM
   1 O1       10.5517     2.7793    -2.2805  O.2     1  <O>11      -0.2702
   2 C1       11.1005     2.0164    -3.0615  C.2     1  <O>11       0.2441
   3 N1       10.4790     0.8560    -3.4360  N.am    1  <O>11      -0.3099
   4 C2        9.1600     0.5290    -2.9010  C.3     1  <O>11       0.0275
   5 C3        8.6980    -0.8020    -3.4710  C.3     1  <O>11       0.0275
   6 N2        7.3790    -1.1290    -2.9370  N.am    1  <O>11      -0.3085
   7 C4        6.7580    -2.2900    -3.3120  C.2     1  <O>11       0.2648
   8 O2        7.3070    -3.0520    -4.0940  O.2     1  <O>11      -0.2684
   9 C5        5.4510    -2.6160    -2.7840  C.ar    1  <O>11       0.1533
  10 N3        4.5826    -3.1734    -3.6618  N.ar    1  <O>11      -0.1656
  11 N4        3.3083    -3.4098    -3.2745  N.ar    1  <O>11      -0.2420
  12 C6        2.9343    -3.0927    -2.0112  C.ar    1  <O>11       0.2725
  13 O3        1.5731    -3.2718    -1.7027  O.2     1  <O>11      -0.2658
  14 C7        3.8172    -2.6075    -1.0354  C.ar    1  <O>11       0.0501
  15 C8        3.4443    -2.3296     0.2996  C.ar    1  <O>11      -0.0487
  16 C9        4.3657    -1.8195     1.2131  C.ar    1  <O>11      -0.0610
  17 C10       5.6727    -1.5682     0.8120  C.ar    1  <O>11      -0.0611
  18 C11       6.0575    -1.8292    -0.5049  C.ar    1  <O>11      -0.0516
  19 C12       5.1387    -2.3552    -1.4404  C.ar    1  <O>11       0.0195
  20 C13      12.4170     2.3420    -3.5950  C.ar    1  <O>11       0.0369
  21 C14      12.5365     3.0796    -4.7854  C.ar    1  <O>11      -0.0469
  22 C15      13.8010     3.3816    -5.3037  C.ar    1  <O>11      -0.0257
  23 C16      14.9529     2.9557    -4.6394  C.ar    1  <O>11       0.1234
  24 F1       16.1953     3.2464    -5.1424  F       1  <O>11      -0.2055
  25 C17      14.8332     2.2268    -3.4506  C.ar    1  <O>11      -0.0257
  26 C18      13.5782     1.9214    -2.9249  C.ar    1  <O>11      -0.0469
  27 H1       10.9370     0.2190    -4.0870  H       1  <O>11       0.1491
  28 H2        9.2150     0.4600    -1.8150  H       1  <O>11       0.0477
  29 H3        8.4510     1.3090    -3.1810  H       1  <O>11       0.0477
  30 H4        8.6430    -0.7340    -4.5570  H       1  <O>11       0.0477
  31 H5        9.4060    -1.5820    -3.1920  H       1  <O>11       0.0477
  32 H6        6.9200    -0.4930    -2.2860  H       1  <O>11       0.1491
  33 H7        2.6453    -3.8189    -3.9166  H       1  <O>11       0.1921
  34 H8        2.4741    -2.5074     0.6029  H       1  <O>11       0.0625
  35 H9        4.0779    -1.6287     2.1856  H       1  <O>11       0.0618
  36 H10       6.3569    -1.1897     1.4855  H       1  <O>11       0.0618
  37 H11       7.0273    -1.6349    -0.7991  H       1  <O>11       0.0624
  38 H12      11.6887     3.3997    -5.2791  H       1  <O>11       0.0626
  39 H13      13.8822     3.9209    -6.1798  H       1  <O>11       0.0646
  40 H14      15.6833     1.9118    -2.9575  H       1  <O>11       0.0646
  41 H15      13.5025     1.3874    -2.0450  H       1  <O>11       0.0626
@<TRIPOS>BOND
     1     1     2    2
     2     2     3   am
     3     3     4    1
     4     4     5    1
     5     5     6    1
     6     6     7   am
     7     7     8    2
     8     7     9    1
     9     9    10   ar
    10    10    11   ar
    11    11    12   ar
    12    12    13    2
    13    12    14   ar
    14    14    15   ar
    15    15    16   ar
    16    16    17   ar
    17    17    18   ar
    18    18    19   ar
    19     9    19   ar
    20    14    19   ar
    21     2    20    1
    22    20    21   ar
    23    21    22   ar
    24    22    23   ar
    25    23    24    1
    26    23    25   ar
    27    25    26   ar
    28    20    26   ar
    29     3    27    1
    30     4    28    1
    31     4    29    1
    32     5    30    1
    33     5    31    1
    34     6    32    1
    35    11    33    1
    36    15    34    1
    37    16    35    1
    38    17    36    1
    39    18    37    1
    40    21    38    1
    41    22    39    1
    42    25    40    1
    43    26    41    1
@<TRIPOS>MOLECULE
mol34_1_5
 41 43 0 0 0
SMALL
USER_CHARGES
****
VDW energy = -32.96
@<TRIPOS>ATOM
   1 O1       10.5517     2.7793    -2.2805  O.2     1  <O>11      -0.2702
   2 C1       11.1005     2.0164    -3.0615  C.2     1  <O>11       0.2441
   3 N1       10.4790     0.8560    -3.4360  N.am    1  <O>11      -0.3099
   4 C2        9.1600     0.5290    -2.9010  C.3     1  <O>11       0.0275
   5 C3        8.6980    -0.8020    -3.4710  C.3     1  <O>11       0.0275
   6 N2        8.6235    -0.7091    -4.9262  N.am    1  <O>11      -0.3085
   7 C4        8.2274    -1.7939    -5.6613  C.2     1  <O>11       0.2648
   8 O2        7.9370    -2.8399    -5.0999  O.2     1  <O>11      -0.2684
   9 C5        8.1528    -1.7040    -7.1034  C.ar    1  <O>11       0.1533
  10 N3        8.5785    -2.7946    -7.7851  N.ar    1  <O>11      -0.1656
  11 N4        8.6397    -2.7503    -9.1357  N.ar    1  <O>11      -0.2420
  12 C6        8.2618    -1.6170    -9.7753  C.ar    1  <O>11       0.2725
  13 O3        8.4422    -1.6014   -11.1708  O.2     1  <O>11      -0.2658
  14 C7        7.7210    -0.4982    -9.1249  C.ar    1  <O>11       0.0501
  15 C8        7.2722     0.6639    -9.7932  C.ar    1  <O>11      -0.0487
  16 C9        6.7721     1.7547    -9.0834  C.ar    1  <O>11      -0.0610
  17 C10       6.7180     1.7121    -7.6950  C.ar    1  <O>11      -0.0611
  18 C11       7.1641     0.5755    -7.0171  C.ar    1  <O>11      -0.0516
  19 C12       7.6647    -0.5420    -7.7218  C.ar    1  <O>11       0.0195
  20 C13      12.4170     2.3420    -3.5950  C.ar    1  <O>11       0.0369
  21 C14      12.5365     3.0796    -4.7854  C.ar    1  <O>11      -0.0469
  22 C15      13.8010     3.3816    -5.3037  C.ar    1  <O>11      -0.0257
  23 C16      14.9529     2.9557    -4.6394  C.ar    1  <O>11       0.1234
  24 F1       16.1953     3.2464    -5.1424  F       1  <O>11      -0.2055
  25 C17      14.8332     2.2268    -3.4506  C.ar    1  <O>11      -0.0257
  26 C18      13.5782     1.9214    -2.9249  C.ar    1  <O>11      -0.0469
  27 H1       10.9370     0.2190    -4.0870  H       1  <O>11       0.1491
  28 H2        9.2150     0.4600    -1.8150  H       1  <O>11       0.0477
  29 H3        8.4510     1.3090    -3.1810  H       1  <O>11       0.0477
  30 H4        9.4053    -1.5827    -3.1931  H       1  <O>11       0.0477
  31 H5        7.7137    -1.0459    -3.0721  H       1  <O>11       0.0477
  32 H6        8.8671     0.1626    -5.3950  H       1  <O>11       0.1491
  33 H7        8.9601    -3.5511    -9.6605  H       1  <O>11       0.1921
  34 H8        7.3154     0.7055   -10.8234  H       1  <O>11       0.0625
  35 H9        6.4426     2.5925    -9.5879  H       1  <O>11       0.0618
  36 H10       6.3493     2.5182    -7.1666  H       1  <O>11       0.0618
  37 H11       7.1276     0.5516    -5.9861  H       1  <O>11       0.0624
  38 H12      11.6887     3.3997    -5.2791  H       1  <O>11       0.0626
  39 H13      13.8822     3.9209    -6.1798  H       1  <O>11       0.0646
  40 H14      15.6833     1.9118    -2.9575  H       1  <O>11       0.0646
  41 H15      13.5025     1.3874    -2.0450  H       1  <O>11       0.0626
@<TRIPOS>BOND
     1     1     2    2
     2     2     3   am
     3     3     4    1
     4     4     5    1
     5     5     6    1
     6     6     7   am
     7     7     8    2
     8     7     9    1
     9     9    10   ar
    10    10    11   ar
    11    11    12   ar
    12    12    13    2
    13    12    14   ar
    14    14    15   ar
    15    15    16   ar
    16    16    17   ar
    17    17    18   ar
    18    18    19   ar
    19     9    19   ar
    20    14    19   ar
    21     2    20    1
    22    20    21   ar
    23    21    22   ar
    24    22    23   ar
    25    23    24    1
    26    23    25   ar
    27    25    26   ar
    28    20    26   ar
    29     3    27    1
    30     4    28    1
    31     4    29    1
    32     5    30    1
    33     5    31    1
    34     6    32    1
    35    11    33    1
    36    15    34    1
    37    16    35    1
    38    17    36    1
    39    18    37    1
    40    21    38    1
    41    22    39    1
    42    25    40    1
    43    26    41    1
@<TRIPOS>MOLECULE
mol34_1_6
 41 43 0 0 0
SMALL
USER_CHARGES
****
VDW energy = -24.61
@<TRIPOS>ATOM
   1 O1       10.5517     2.7793    -2.2805  O.2     1  <O>11      -0.2702
   2 C1       11.1005     2.0164    -3.0615  C.2     1  <O>11       0.2441
   3 N1       10.4790     0.8560    -3.4360  N.am    1  <O>11      -0.3099
   4 C2        9.1600     0.5290    -2.9010  C.3     1  <O>11       0.0275
   5 C3        8.6980    -0.8020    -3.4710  C.3     1  <O>11       0.0275
   6 N2        7.3790    -1.1290    -2.9370  N.am    1  <O>11      -0.3085
   7 C4        6.7580    -2.2900    -3.3120  C.2     1  <O>11       0.2648
   8 O2        7.3070    -3.0520    -4.0940  O.2     1  <O>11      -0.2684
   9 C5        5.4510    -2.6160    -2.7840  C.ar    1  <O>11       0.1533
  10 N3        4.9200    -1.7130    -1.9250  N.ar    1  <O>11      -0.1656
  11 N4        3.7500    -1.9940    -1.3070  N.ar    1  <O>11      -0.2420
  12 C6        3.1310    -3.1700    -1.5720  C.ar    1  <O>11       0.2725
  13 O3        1.9710    -3.4440    -0.8240  O.2     1  <O>11      -0.2658
  14 C7        3.5860    -4.0930    -2.5250  C.ar    1  <O>11       0.0501
  15 C8        2.9130    -5.2940    -2.8460  C.ar    1  <O>11      -0.0487
  16 C9        3.4360    -6.1840    -3.7830  C.ar    1  <O>11      -0.0610
  17 C10       4.6430    -5.8990    -4.4110  C.ar    1  <O>11      -0.0611
  18 C11       5.3260    -4.7210    -4.1010  C.ar    1  <O>11      -0.0516
  19 C12       4.8050    -3.8040    -3.1610  C.ar    1  <O>11       0.0195
  20 C13      12.4170     2.3420    -3.5950  C.ar    1  <O>11       0.0369
  21 C14      12.5365     3.0796    -4.7854  C.ar    1  <O>11      -0.0469
  22 C15      13.8010     3.3816    -5.3037  C.ar    1  <O>11      -0.0257
  23 C16      14.9529     2.9557    -4.6394  C.ar    1  <O>11       0.1234
  24 F1       16.1953     3.2464    -5.1424  F       1  <O>11      -0.2055
  25 C17      14.8332     2.2268    -3.4506  C.ar    1  <O>11      -0.0257
  26 C18      13.5782     1.9214    -2.9249  C.ar    1  <O>11      -0.0469
  27 H1       10.9370     0.2190    -4.0870  H       1  <O>11       0.1491
  28 H2        9.2150     0.4600    -1.8150  H       1  <O>11       0.0477
  29 H3        8.4510     1.3090    -3.1810  H       1  <O>11       0.0477
  30 H4        8.6430    -0.7340    -4.5570  H       1  <O>11       0.0477
  31 H5        9.4060    -1.5820    -3.1920  H       1  <O>11       0.0477
  32 H6        6.9200    -0.4930    -2.2860  H       1  <O>11       0.1491
  33 H7        3.3420    -1.3360    -0.6590  H       1  <O>11       0.1921
  34 H8        2.0198    -5.5156    -2.3790  H       1  <O>11       0.0625
  35 H9        2.9279    -7.0531    -4.0101  H       1  <O>11       0.0618
  36 H10       5.0333    -6.5562    -5.1044  H       1  <O>11       0.0618
  37 H11       6.2247    -4.5173    -4.5655  H       1  <O>11       0.0624
  38 H12      11.6887     3.3997    -5.2791  H       1  <O>11       0.0626
  39 H13      13.8822     3.9209    -6.1798  H       1  <O>11       0.0646
  40 H14      15.6833     1.9118    -2.9575  H       1  <O>11       0.0646
  41 H15      13.5025     1.3874    -2.0450  H       1  <O>11       0.0626
@<TRIPOS>BOND
     1     1     2    2
     2     2     3   am
     3     3     4    1
     4     4     5    1
     5     5     6    1
     6     6     7   am
     7     7     8    2
     8     7     9    1
     9     9    10   ar
    10    10    11   ar
    11    11    12   ar
    12    12    13    2
    13    12    14   ar
    14    14    15   ar
    15    15    16   ar
    16    16    17   ar
    17    17    18   ar
    18    18    19   ar
    19     9    19   ar
    20    14    19   ar
    21     2    20    1
    22    20    21   ar
    23    21    22   ar
    24    22    23   ar
    25    23    24    1
    26    23    25   ar
    27    25    26   ar
    28    20    26   ar
    29     3    27    1
    30     4    28    1
    31     4    29    1
    32     5    30    1
    33     5    31    1
    34     6    32    1
    35    11    33    1
    36    15    34    1
    37    16    35    1
    38    17    36    1
    39    18    37    1
    40    21    38    1
    41    22    39    1
    42    25    40    1
    43    26    41    1
@<TRIPOS>MOLECULE
mol34_1_7
 41 43 0 0 0
SMALL
USER_CHARGES
****
VDW energy = -22.99
@<TRIPOS>ATOM
   1 O1       10.5517     2.7793    -2.2805  O.2     1  <O>11      -0.2702
   2 C1       11.1005     2.0164    -3.0615  C.2     1  <O>11       0.2441
   3 N1       10.4790     0.8560    -3.4360  N.am    1  <O>11      -0.3099
   4 C2        9.1600     0.5290    -2.9010  C.3     1  <O>11       0.0275
   5 C3        8.6980    -0.8020    -3.4710  C.3     1  <O>11       0.0275
   6 N2        9.6470    -1.8471    -3.0984  N.am    1  <O>11      -0.3085
   7 C4        9.4365    -3.1380    -3.5029  C.2     1  <O>11       0.2648
   8 O2        8.4542    -3.4155    -4.1750  O.2     1  <O>11      -0.2684
   9 C5       10.3757    -4.1751    -3.1348  C.ar    1  <O>11       0.1533
  10 N3       11.4335    -3.7752    -2.3890  N.ar    1  <O>11      -0.1656
  11 N4       12.4101    -4.6632    -2.0934  N.ar    1  <O>11      -0.2420
  12 C6       12.2999    -5.9371    -2.5423  C.ar    1  <O>11       0.2725
  13 O3       13.3942    -6.7835    -2.2849  O.2     1  <O>11      -0.2658
  14 C7       11.1807    -6.4267    -3.2314  C.ar    1  <O>11       0.0501
  15 C8       11.0362    -7.7687    -3.6513  C.ar    1  <O>11      -0.0487
  16 C9        9.9097    -8.1840    -4.3600  C.ar    1  <O>11      -0.0610
  17 C10       8.9107    -7.2688    -4.6715  C.ar    1  <O>11      -0.0611
  18 C11       9.0397    -5.9370    -4.2716  C.ar    1  <O>11      -0.0516
  19 C12      10.1703    -5.5021    -3.5446  C.ar    1  <O>11       0.0195
  20 C13      12.4170     2.3420    -3.5950  C.ar    1  <O>11       0.0369
  21 C14      12.5365     3.0796    -4.7854  C.ar    1  <O>11      -0.0469
  22 C15      13.8010     3.3816    -5.3037  C.ar    1  <O>11      -0.0257
  23 C16      14.9529     2.9557    -4.6394  C.ar    1  <O>11       0.1234
  24 F1       16.1953     3.2464    -5.1424  F       1  <O>11      -0.2055
  25 C17      14.8332     2.2268    -3.4506  C.ar    1  <O>11      -0.0257
  26 C18      13.5782     1.9214    -2.9249  C.ar    1  <O>11      -0.0469
  27 H1       10.9370     0.2190    -4.0870  H       1  <O>11       0.1491
  28 H2        9.2150     0.4600    -1.8150  H       1  <O>11       0.0477
  29 H3        8.4510     1.3090    -3.1810  H       1  <O>11       0.0477
  30 H4        7.7138    -1.0470    -3.0730  H       1  <O>11       0.0477
  31 H5        8.6428    -0.7325    -4.5571  H       1  <O>11       0.0477
  32 H6       10.4656    -1.6164    -2.5365  H       1  <O>11       0.1491
  33 H7       13.2091    -4.3819    -1.5440  H       1  <O>11       0.1921
  34 H8       11.7768    -8.4524    -3.4296  H       1  <O>11       0.0625
  35 H9        9.8176    -9.1692    -4.6530  H       1  <O>11       0.0618
  36 H10       8.0760    -7.5728    -5.1968  H       1  <O>11       0.0618
  37 H11       8.2981    -5.2604    -4.5108  H       1  <O>11       0.0624
  38 H12      11.6887     3.3997    -5.2791  H       1  <O>11       0.0626
  39 H13      13.8822     3.9209    -6.1798  H       1  <O>11       0.0646
  40 H14      15.6833     1.9118    -2.9575  H       1  <O>11       0.0646
  41 H15      13.5025     1.3874    -2.0450  H       1  <O>11       0.0626
@<TRIPOS>BOND
     1     1     2    2
     2     2     3   am
     3     3     4    1
     4     4     5    1
     5     5     6    1
     6     6     7   am
     7     7     8    2
     8     7     9    1
     9     9    10   ar
    10    10    11   ar
    11    11    12   ar
    12    12    13    2
    13    12    14   ar
    14    14    15   ar
    15    15    16   ar
    16    16    17   ar
    17    17    18   ar
    18    18    19   ar
    19     9    19   ar
    20    14    19   ar
    21     2    20    1
    22    20    21   ar
    23    21    22   ar
    24    22    23   ar
    25    23    24    1
    26    23    25   ar
    27    25    26   ar
    28    20    26   ar
    29     3    27    1
    30     4    28    1
    31     4    29    1
    32     5    30    1
    33     5    31    1
    34     6    32    1
    35    11    33    1
    36    15    34    1
    37    16    35    1
    38    17    36    1
    39    18    37    1
    40    21    38    1
    41    22    39    1
    42    25    40    1
    43    26    41    1
@<TRIPOS>MOLECULE
mol34_1_8
 41 43 0 0 0
SMALL
USER_CHARGES
****
VDW energy = -22.90
@<TRIPOS>ATOM
   1 O1       10.5517     2.7793    -2.2805  O.2     1  <O>11      -0.2702
   2 C1       11.1005     2.0164    -3.0615  C.2     1  <O>11       0.2441
   3 N1       10.4790     0.8560    -3.4360  N.am    1  <O>11      -0.3099
   4 C2        9.1600     0.5290    -2.9010  C.3     1  <O>11       0.0275
   5 C3        8.6980    -0.8020    -3.4710  C.3     1  <O>11       0.0275
   6 N2        8.6235    -0.7091    -4.9262  N.am    1  <O>11      -0.3085
   7 C4        8.2274    -1.7939    -5.6613  C.2     1  <O>11       0.2648
   8 O2        7.9370    -2.8399    -5.0999  O.2     1  <O>11      -0.2684
   9 C5        8.1528    -1.7040    -7.1034  C.ar    1  <O>11       0.1533
  10 N3        8.4934    -0.5068    -7.6381  N.ar    1  <O>11      -0.1656
  11 N4        8.3491    -0.3094    -8.9685  N.ar    1  <O>11      -0.2420
  12 C6        7.8767    -1.3207    -9.7369  C.ar    1  <O>11       0.2725
  13 O3        7.6574    -1.0197   -11.0939  O.2     1  <O>11      -0.2658
  14 C7        7.6043    -2.6076    -9.2504  C.ar    1  <O>11       0.0501
  15 C8        7.1662    -3.6815   -10.0586  C.ar    1  <O>11      -0.0487
  16 C9        6.8837    -4.9299    -9.5060  C.ar    1  <O>11      -0.0610
  17 C10       7.0235    -5.1295    -8.1374  C.ar    1  <O>11      -0.0611
  18 C11       7.4477    -4.0781    -7.3220  C.ar    1  <O>11      -0.0516
  19 C12       7.7473    -2.8098    -7.8674  C.ar    1  <O>11       0.0195
  20 C13      12.4170     2.3420    -3.5950  C.ar    1  <O>11       0.0369
  21 C14      12.5365     3.0796    -4.7854  C.ar    1  <O>11      -0.0469
  22 C15      13.8010     3.3816    -5.3037  C.ar    1  <O>11      -0.0257
  23 C16      14.9529     2.9557    -4.6394  C.ar    1  <O>11       0.1234
  24 F1       16.1953     3.2464    -5.1424  F       1  <O>11      -0.2055
  25 C17      14.8332     2.2268    -3.4506  C.ar    1  <O>11      -0.0257
  26 C18      13.5782     1.9214    -2.9249  C.ar    1  <O>11      -0.0469
  27 H1       10.9370     0.2190    -4.0870  H       1  <O>11       0.1491
  28 H2        9.2150     0.4600    -1.8150  H       1  <O>11       0.0477
  29 H3        8.4510     1.3090    -3.1810  H       1  <O>11       0.0477
  30 H4        9.4053    -1.5827    -3.1931  H       1  <O>11       0.0477
  31 H5        7.7137    -1.0459    -3.0721  H       1  <O>11       0.0477
  32 H6        8.8671     0.1626    -5.3950  H       1  <O>11       0.1491
  33 H7        8.5920     0.5782    -9.3840  H       1  <O>11       0.1921
  34 H8        7.0537    -3.5390   -11.0745  H       1  <O>11       0.0625
  35 H9        6.5713    -5.7046   -10.1119  H       1  <O>11       0.0618
  36 H10       6.8142    -6.0521    -7.7250  H       1  <O>11       0.0618
  37 H11       7.5438    -4.2299    -6.3058  H       1  <O>11       0.0624
  38 H12      11.6887     3.3997    -5.2791  H       1  <O>11       0.0626
  39 H13      13.8822     3.9209    -6.1798  H       1  <O>11       0.0646
  40 H14      15.6833     1.9118    -2.9575  H       1  <O>11       0.0646
  41 H15      13.5025     1.3874    -2.0450  H       1  <O>11       0.0626
@<TRIPOS>BOND
     1     1     2    2
     2     2     3   am
     3     3     4    1
     4     4     5    1
     5     5     6    1
     6     6     7   am
     7     7     8    2
     8     7     9    1
     9     9    10   ar
    10    10    11   ar
    11    11    12   ar
    12    12    13    2
    13    12    14   ar
    14    14    15   ar
    15    15    16   ar
    16    16    17   ar
    17    17    18   ar
    18    18    19   ar
    19     9    19   ar
    20    14    19   ar
    21     2    20    1
    22    20    21   ar
    23    21    22   ar
    24    22    23   ar
    25    23    24    1
    26    23    25   ar
    27    25    26   ar
    28    20    26   ar
    29     3    27    1
    30     4    28    1
    31     4    29    1
    32     5    30    1
    33     5    31    1
    34     6    32    1
    35    11    33    1
    36    15    34    1
    37    16    35    1
    38    17    36    1
    39    18    37    1
    40    21    38    1
    41    22    39    1
    42    25    40    1
    43    26    41    1
@<TRIPOS>MOLECULE
mol34_1_9
 41 43 0 0 0
SMALL
USER_CHARGES
****
VDW energy = -21.95
@<TRIPOS>ATOM
   1 O1       10.5517     2.7793    -2.2805  O.2     1  <O>11      -0.2702
   2 C1       11.1005     2.0164    -3.0615  C.2     1  <O>11       0.2441
   3 N1       10.4790     0.8560    -3.4360  N.am    1  <O>11      -0.3099
   4 C2        9.1600     0.5290    -2.9010  C.3     1  <O>11       0.0275
   5 C3        8.6980    -0.8020    -3.4710  C.3     1  <O>11       0.0275
   6 N2        7.3790    -1.1290    -2.9370  N.am    1  <O>11      -0.3085
   7 C4        6.7579    -2.2899    -3.3122  C.2     1  <O>11       0.2648
   8 O2        7.3068    -3.0518    -4.0943  O.2     1  <O>11      -0.2684
   9 C5        5.4509    -2.6159    -2.7842  C.ar    1  <O>11       0.1533
  10 N3        4.9200    -1.7130    -1.9250  N.ar    1  <O>11      -0.1656
  11 N4        3.7500    -1.9940    -1.3070  N.ar    1  <O>11      -0.2420
  12 C6        3.1309    -3.1699    -1.5722  C.ar    1  <O>11       0.2725
  13 O3        1.9709    -3.4440    -0.8242  O.2     1  <O>11      -0.2658
  14 C7        3.5858    -4.0928    -2.5254  C.ar    1  <O>11       0.0501
  15 C8        2.9127    -5.2937    -2.8465  C.ar    1  <O>11      -0.0487
  16 C9        3.4356    -6.1836    -3.7837  C.ar    1  <O>11      -0.0610
  17 C10       4.6426    -5.8985    -4.4117  C.ar    1  <O>11      -0.0611
  18 C11       5.3257    -4.7206    -4.1015  C.ar    1  <O>11      -0.0516
  19 C12       4.8048    -3.8038    -3.1614  C.ar    1  <O>11       0.0195
  20 C13      12.4170     2.3420    -3.5950  C.ar    1  <O>11       0.0369
  21 C14      12.7214     2.0766    -4.9412  C.ar    1  <O>11      -0.0469
  22 C15      13.9898     2.3784    -5.4498  C.ar    1  <O>11      -0.0257
  23 C16      14.9606     2.9492    -4.6244  C.ar    1  <O>11       0.1234
  24 F1       16.2063     3.2459    -5.1155  F       1  <O>11      -0.2055
  25 C17      14.6547     3.2192    -3.2856  C.ar    1  <O>11      -0.0257
  26 C18      13.3936     2.9234    -2.7689  C.ar    1  <O>11      -0.0469
  27 H1       10.9370     0.2190    -4.0870  H       1  <O>11       0.1491
  28 H2        9.2150     0.4600    -1.8150  H       1  <O>11       0.0477
  29 H3        8.4510     1.3090    -3.1810  H       1  <O>11       0.0477
  30 H4        8.6430    -0.7340    -4.5570  H       1  <O>11       0.0477
  31 H5        9.4060    -1.5820    -3.1920  H       1  <O>11       0.0477
  32 H6        6.9201    -0.4931    -2.2859  H       1  <O>11       0.1491
  33 H7        3.3421    -1.3361    -0.6589  H       1  <O>11       0.1921
  34 H8        2.0195    -5.5153    -2.3795  H       1  <O>11       0.0625
  35 H9        2.9274    -7.0526    -4.0109  H       1  <O>11       0.0618
  36 H10       5.0328    -6.5557    -5.1053  H       1  <O>11       0.0618
  37 H11       6.2244    -4.5169    -4.5660  H       1  <O>11       0.0624
  38 H12      12.0070     1.6577    -5.5568  H       1  <O>11       0.0626
  39 H13      14.2084     2.1783    -6.4384  H       1  <O>11       0.0646
  40 H14      15.3703     3.6418    -2.6739  H       1  <O>11       0.0646
  41 H15      13.1780     3.1314    -1.7813  H       1  <O>11       0.0626
@<TRIPOS>BOND
     1     1     2    2
     2     2     3   am
     3     3     4    1
     4     4     5    1
     5     5     6    1
     6     6     7   am
     7     7     8    2
     8     7     9    1
     9     9    10   ar
    10    10    11   ar
    11    11    12   ar
    12    12    13    2
    13    12    14   ar
    14    14    15   ar
    15    15    16   ar
    16    16    17   ar
    17    17    18   ar
    18    18    19   ar
    19     9    19   ar
    20    14    19   ar
    21     2    20    1
    22    20    21   ar
    23    21    22   ar
    24    22    23   ar
    25    23    24    1
    26    23    25   ar
    27    25    26   ar
    28    20    26   ar
    29     3    27    1
    30     4    28    1
    31     4    29    1
    32     5    30    1
    33     5    31    1
    34     6    32    1
    35    11    33    1
    36    15    34    1
    37    16    35    1
    38    17    36    1
    39    18    37    1
    40    21    38    1
    41    22    39    1
    42    25    40    1
    43    26    41    1
@<TRIPOS>MOLECULE
mol34_1_10
 41 43 0 0 0
SMALL
USER_CHARGES
****
VDW energy = -21.71
@<TRIPOS>ATOM
   1 O1       10.5517     2.7793    -2.2805  O.2     1  <O>11      -0.2702
   2 C1       11.1005     2.0164    -3.0615  C.2     1  <O>11       0.2441
   3 N1       10.4790     0.8560    -3.4360  N.am    1  <O>11      -0.3099
   4 C2        9.1600     0.5290    -2.9010  C.3     1  <O>11       0.0275
   5 C3        9.1340     0.8139    -1.4083  C.3     1  <O>11       0.0275
   6 N2        7.8157     0.4864    -0.8728  N.am    1  <O>11      -0.3085
   7 C4        7.5556     0.6633     0.4595  C.2     1  <O>11       0.2648
   8 O2        8.4266     1.0942     1.2006  O.2     1  <O>11      -0.2684
   9 C5        6.2500     0.3394     0.9922  C.ar    1  <O>11       0.1533
  10 N3        6.2408    -0.2594     2.2074  N.ar    1  <O>11      -0.1656
  11 N4        5.0677    -0.6887     2.7263  N.ar    1  <O>11      -0.2420
  12 C6        3.9265    -0.4984     2.0207  C.ar    1  <O>11       0.2725
  13 O3        2.7564    -1.0548     2.5697  O.2     1  <O>11      -0.2658
  14 C7        3.8680     0.2025     0.8072  C.ar    1  <O>11       0.0501
  15 C8        2.6720     0.4533     0.0965  C.ar    1  <O>11      -0.0487
  16 C9        2.6872     1.1313    -1.1216  C.ar    1  <O>11      -0.0610
  17 C10       3.8940     1.5642    -1.6587  C.ar    1  <O>11      -0.0611
  18 C11       5.0865     1.3188    -0.9746  C.ar    1  <O>11      -0.0516
  19 C12       5.0876     0.6416     0.2653  C.ar    1  <O>11       0.0195
  20 C13      12.4170     2.3420    -3.5950  C.ar    1  <O>11       0.0369
  21 C14      12.5365     3.0796    -4.7854  C.ar    1  <O>11      -0.0469
  22 C15      13.8010     3.3816    -5.3037  C.ar    1  <O>11      -0.0257
  23 C16      14.9529     2.9557    -4.6394  C.ar    1  <O>11       0.1234
  24 F1       16.1953     3.2464    -5.1424  F       1  <O>11      -0.2055
  25 C17      14.8332     2.2268    -3.4506  C.ar    1  <O>11      -0.0257
  26 C18      13.5782     1.9214    -2.9249  C.ar    1  <O>11      -0.0469
  27 H1       10.9370     0.2190    -4.0870  H       1  <O>11       0.1491
  28 H2        8.4047     1.1353    -3.4001  H       1  <O>11       0.0477
  29 H3        8.9505    -0.5276    -3.0721  H       1  <O>11       0.0477
  30 H4        9.8893     0.2083    -0.9085  H       1  <O>11       0.0477
  31 H5        9.3436     1.8694    -1.2363  H       1  <O>11       0.0477
  32 H6        7.0895     0.1255    -1.4902  H       1  <O>11       0.1491
  33 H7        5.0419    -1.1427     3.6277  H       1  <O>11       0.1921
  34 H8        1.7729     0.1290     0.4857  H       1  <O>11       0.0625
  35 H9        1.8038     1.3116    -1.6238  H       1  <O>11       0.0618
  36 H10       3.9087     2.0656    -2.5606  H       1  <O>11       0.0618
  37 H11       5.9802     1.6368    -1.3808  H       1  <O>11       0.0624
  38 H12      11.6887     3.3997    -5.2791  H       1  <O>11       0.0626
  39 H13      13.8822     3.9209    -6.1798  H       1  <O>11       0.0646
  40 H14      15.6833     1.9118    -2.9575  H       1  <O>11       0.0646
  41 H15      13.5025     1.3874    -2.0450  H       1  <O>11       0.0626
@<TRIPOS>BOND
     1     1     2    2
     2     2     3   am
     3     3     4    1
     4     4     5    1
     5     5     6    1
     6     6     7   am
     7     7     8    2
     8     7     9    1
     9     9    10   ar
    10    10    11   ar
    11    11    12   ar
    12    12    13    2
    13    12    14   ar
    14    14    15   ar
    15    15    16   ar
    16    16    17   ar
    17    17    18   ar
    18    18    19   ar
    19     9    19   ar
    20    14    19   ar
    21     2    20    1
    22    20    21   ar
    23    21    22   ar
    24    22    23   ar
    25    23    24    1
    26    23    25   ar
    27    25    26   ar
    28    20    26   ar
    29     3    27    1
    30     4    28    1
    31     4    29    1
    32     5    30    1
    33     5    31    1
    34     6    32    1
    35    11    33    1
    36    15    34    1
    37    16    35    1
    38    17    36    1
    39    18    37    1
    40    21    38    1
    41    22    39    1
    42    25    40    1
    43    26    41    1
@<TRIPOS>MOLECULE
mol34_1_11
 41 43 0 0 0
SMALL
USER_CHARGES
****
VDW energy = -21.44
@<TRIPOS>ATOM
   1 O1       10.5517     2.7793    -2.2805  O.2     1  <O>11      -0.2702
   2 C1       11.1005     2.0164    -3.0615  C.2     1  <O>11       0.2441
   3 N1       10.4790     0.8560    -3.4360  N.am    1  <O>11      -0.3099
   4 C2        9.1600     0.5290    -2.9010  C.3     1  <O>11       0.0275
   5 C3        8.6980    -0.8020    -3.4710  C.3     1  <O>11       0.0275
   6 N2        7.3790    -1.1290    -2.9370  N.am    1  <O>11      -0.3085
   7 C4        7.1175    -0.9524    -1.6048  C.2     1  <O>11       0.2648
   8 O2        7.9880    -0.5221    -0.8627  O.2     1  <O>11      -0.2684
   9 C5        5.8112    -1.2758    -1.0736  C.ar    1  <O>11       0.1533
  10 N3        5.8004    -1.8749     0.1414  N.ar    1  <O>11      -0.1656
  11 N4        4.6266    -2.3038     0.6589  N.ar    1  <O>11      -0.2420
  12 C6        3.4862    -2.1128    -0.0479  C.ar    1  <O>11       0.2725
  13 O3        2.3152    -2.6687     0.4998  O.2     1  <O>11      -0.2658
  14 C7        3.4293    -1.4115    -1.2612  C.ar    1  <O>11       0.0501
  15 C8        2.2343    -1.1600    -1.9732  C.ar    1  <O>11      -0.0487
  16 C9        2.2510    -0.4817    -3.1910  C.ar    1  <O>11      -0.0610
  17 C10       3.4586    -0.0492    -3.7268  C.ar    1  <O>11      -0.0611
  18 C11       4.6503    -0.2953    -3.0414  C.ar    1  <O>11      -0.0516
  19 C12       4.6497    -0.9728    -1.8017  C.ar    1  <O>11       0.0195
  20 C13      12.4170     2.3420    -3.5950  C.ar    1  <O>11       0.0369
  21 C14      12.5365     3.0796    -4.7854  C.ar    1  <O>11      -0.0469
  22 C15      13.8010     3.3816    -5.3037  C.ar    1  <O>11      -0.0257
  23 C16      14.9529     2.9557    -4.6394  C.ar    1  <O>11       0.1234
  24 F1       16.1953     3.2464    -5.1424  F       1  <O>11      -0.2055
  25 C17      14.8332     2.2268    -3.4506  C.ar    1  <O>11      -0.0257
  26 C18      13.5782     1.9214    -2.9249  C.ar    1  <O>11      -0.0469
  27 H1       10.9370     0.2190    -4.0870  H       1  <O>11       0.1491
  28 H2        9.2150     0.4600    -1.8150  H       1  <O>11       0.0477
  29 H3        8.4510     1.3090    -3.1810  H       1  <O>11       0.0477
  30 H4        8.6430    -0.7340    -4.5570  H       1  <O>11       0.0477
  31 H5        9.4060    -1.5820    -3.1920  H       1  <O>11       0.0477
  32 H6        6.6532    -1.4895    -3.5552  H       1  <O>11       0.1491
  33 H7        4.5996    -2.7580     1.5602  H       1  <O>11       0.1921
  34 H8        1.3346    -1.4839    -1.5850  H       1  <O>11       0.0625
  35 H9        1.3682    -0.3008    -3.6941  H       1  <O>11       0.0618
  36 H10       3.4745     0.4524    -4.6285  H       1  <O>11       0.0618
  37 H11       5.5446     0.0224    -3.4466  H       1  <O>11       0.0624
  38 H12      11.6887     3.3997    -5.2791  H       1  <O>11       0.0626
  39 H13      13.8822     3.9209    -6.1798  H       1  <O>11       0.0646
  40 H14      15.6833     1.9118    -2.9575  H       1  <O>11       0.0646
  41 H15      13.5025     1.3874    -2.0450  H       1  <O>11       0.0626
@<TRIPOS>BOND
     1     1     2    2
     2     2     3   am
     3     3     4    1
     4     4     5    1
     5     5     6    1
     6     6     7   am
     7     7     8    2
     8     7     9    1
     9     9    10   ar
    10    10    11   ar
    11    11    12   ar
    12    12    13    2
    13    12    14   ar
    14    14    15   ar
    15    15    16   ar
    16    16    17   ar
    17    17    18   ar
    18    18    19   ar
    19     9    19   ar
    20    14    19   ar
    21     2    20    1
    22    20    21   ar
    23    21    22   ar
    24    22    23   ar
    25    23    24    1
    26    23    25   ar
    27    25    26   ar
    28    20    26   ar
    29     3    27    1
    30     4    28    1
    31     4    29    1
    32     5    30    1
    33     5    31    1
    34     6    32    1
    35    11    33    1
    36    15    34    1
    37    16    35    1
    38    17    36    1
    39    18    37    1
    40    21    38    1
    41    22    39    1
    42    25    40    1
    43    26    41    1
@<TRIPOS>MOLECULE
mol34_1_12
 41 43 0 0 0
SMALL
USER_CHARGES
****
VDW energy = -17.58
@<TRIPOS>ATOM
   1 O1       10.5517     2.7793    -2.2805  O.2     1  <O>11      -0.2702
   2 C1       11.1005     2.0164    -3.0615  C.2     1  <O>11       0.2441
   3 N1       10.4790     0.8560    -3.4360  N.am    1  <O>11      -0.3099
   4 C2        9.1600     0.5290    -2.9010  C.3     1  <O>11       0.0275
   5 C3        8.6980    -0.8020    -3.4710  C.3     1  <O>11       0.0275
   6 N2        7.3790    -1.1290    -2.9370  N.am    1  <O>11      -0.3085
   7 C4        6.7580    -2.2900    -3.3120  C.2     1  <O>11       0.2648
   8 O2        7.3070    -3.0520    -4.0940  O.2     1  <O>11      -0.2684
   9 C5        5.4510    -2.6160    -2.7840  C.ar    1  <O>11       0.1533
  10 N3        4.9200    -1.7130    -1.9250  N.ar    1  <O>11      -0.1656
  11 N4        3.7500    -1.9940    -1.3070  N.ar    1  <O>11      -0.2420
  12 C6        3.1310    -3.1700    -1.5720  C.ar    1  <O>11       0.2725
  13 O3        1.9710    -3.4440    -0.8240  O.2     1  <O>11      -0.2658
  14 C7        3.5860    -4.0930    -2.5250  C.ar    1  <O>11       0.0501
  15 C8        2.9130    -5.2940    -2.8460  C.ar    1  <O>11      -0.0487
  16 C9        3.4360    -6.1840    -3.7830  C.ar    1  <O>11      -0.0610
  17 C10       4.6430    -5.8990    -4.4110  C.ar    1  <O>11      -0.0611
  18 C11       5.3260    -4.7210    -4.1010  C.ar    1  <O>11      -0.0516
  19 C12       4.8050    -3.8040    -3.1610  C.ar    1  <O>11       0.0195
  20 C13      12.4170     2.3420    -3.5950  C.ar    1  <O>11       0.0369
  21 C14      13.0610     3.5320    -3.2150  C.ar    1  <O>11      -0.0469
  22 C15      14.3200     3.8500    -3.7370  C.ar    1  <O>11      -0.0257
  23 C16      14.9470     2.9850    -4.6360  C.ar    1  <O>11       0.1234
  24 F1       16.1800     3.2910    -5.1530  F       1  <O>11      -0.2055
  25 C17      14.3080     1.7970    -5.0090  C.ar    1  <O>11      -0.0257
  26 C18      13.0540     1.4700    -4.4940  C.ar    1  <O>11      -0.0469
  27 H1       10.9370     0.2190    -4.0870  H       1  <O>11       0.1491
  28 H2        9.2150     0.4600    -1.8150  H       1  <O>11       0.0477
  29 H3        8.4510     1.3090    -3.1810  H       1  <O>11       0.0477
  30 H4        8.6430    -0.7340    -4.5570  H       1  <O>11       0.0477
  31 H5        9.4060    -1.5820    -3.1920  H       1  <O>11       0.0477
  32 H6        6.9200    -0.4930    -2.2860  H       1  <O>11       0.1491
  33 H7        3.3420    -1.3360    -0.6590  H       1  <O>11       0.1921
  34 H8        2.0198    -5.5156    -2.3790  H       1  <O>11       0.0625
  35 H9        2.9279    -7.0531    -4.0101  H       1  <O>11       0.0618
  36 H10       5.0333    -6.5562    -5.1044  H       1  <O>11       0.0618
  37 H11       6.2247    -4.5173    -4.5655  H       1  <O>11       0.0624
  38 H12      12.6038     4.1737    -2.5485  H       1  <O>11       0.0626
  39 H13      14.7865     4.7268    -3.4565  H       1  <O>11       0.0646
  40 H14      14.7700     1.1558    -5.6726  H       1  <O>11       0.0646
  41 H15      12.5946     0.5889    -4.7727  H       1  <O>11       0.0626
@<TRIPOS>BOND
     1     1     2    2
     2     2     3   am
     3     3     4    1
     4     4     5    1
     5     5     6    1
     6     6     7   am
     7     7     8    2
     8     7     9    1
     9     9    10   ar
    10    10    11   ar
    11    11    12   ar
    12    12    13    2
    13    12    14   ar
    14    14    15   ar
    15    15    16   ar
    16    16    17   ar
    17    17    18   ar
    18    18    19   ar
    19     9    19   ar
    20    14    19   ar
    21     2    20    1
    22    20    21   ar
    23    21    22   ar
    24    22    23   ar
    25    23    24    1
    26    23    25   ar
    27    25    26   ar
    28    20    26   ar
    29     3    27    1
    30     4    28    1
    31     4    29    1
    32     5    30    1
    33     5    31    1
    34     6    32    1
    35    11    33    1
    36    15    34    1
    37    16    35    1
    38    17    36    1
    39    18    37    1
    40    21    38    1
    41    22    39    1
    42    25    40    1
    43    26    41    1
@<TRIPOS>MOLECULE
mol34_1_13
 41 43 0 0 0
SMALL
USER_CHARGES
****
VDW energy = -17.30
@<TRIPOS>ATOM
   1 O1       10.5517     2.7793    -2.2805  O.2     1  <O>11      -0.2702
   2 C1       11.1005     2.0164    -3.0615  C.2     1  <O>11       0.2441
   3 N1       10.4790     0.8560    -3.4360  N.am    1  <O>11      -0.3099
   4 C2        9.1600     0.5290    -2.9010  C.3     1  <O>11       0.0275
   5 C3        8.6980    -0.8020    -3.4710  C.3     1  <O>11       0.0275
   6 N2        7.3790    -1.1290    -2.9370  N.am    1  <O>11      -0.3085
   7 C4        7.1175    -0.9524    -1.6048  C.2     1  <O>11       0.2648
   8 O2        7.9880    -0.5221    -0.8627  O.2     1  <O>11      -0.2684
   9 C5        5.8112    -1.2758    -1.0736  C.ar    1  <O>11       0.1533
  10 N3        5.3240    -0.4191    -0.1441  N.ar    1  <O>11      -0.1656
  11 N4        4.1576    -0.7078     0.4772  N.ar    1  <O>11      -0.2420
  12 C6        3.4982    -1.8441     0.1451  C.ar    1  <O>11       0.2725
  13 O3        2.3444    -2.1350     0.8963  O.2     1  <O>11      -0.2658
  14 C7        3.9070    -2.7120    -0.8780  C.ar    1  <O>11       0.0501
  15 C8        3.1918    -3.8677    -1.2666  C.ar    1  <O>11      -0.0487
  16 C9        3.6699    -4.7058    -2.2729  C.ar    1  <O>11      -0.0610
  17 C10       4.8732    -4.4135    -2.9046  C.ar    1  <O>11      -0.0611
  18 C11       5.5975    -3.2802    -2.5288  C.ar    1  <O>11      -0.0516
  19 C12       5.1223    -2.4155    -1.5177  C.ar    1  <O>11       0.0195
  20 C13      12.4170     2.3420    -3.5950  C.ar    1  <O>11       0.0369
  21 C14      12.5365     3.0796    -4.7854  C.ar    1  <O>11      -0.0469
  22 C15      13.8010     3.3816    -5.3037  C.ar    1  <O>11      -0.0257
  23 C16      14.9529     2.9557    -4.6394  C.ar    1  <O>11       0.1234
  24 F1       16.1953     3.2464    -5.1424  F       1  <O>11      -0.2055
  25 C17      14.8332     2.2268    -3.4506  C.ar    1  <O>11      -0.0257
  26 C18      13.5782     1.9214    -2.9249  C.ar    1  <O>11      -0.0469
  27 H1       10.9370     0.2190    -4.0870  H       1  <O>11       0.1491
  28 H2        9.2150     0.4600    -1.8150  H       1  <O>11       0.0477
  29 H3        8.4510     1.3090    -3.1810  H       1  <O>11       0.0477
  30 H4        8.6430    -0.7340    -4.5570  H       1  <O>11       0.0477
  31 H5        9.4060    -1.5820    -3.1920  H       1  <O>11       0.0477
  32 H6        6.6532    -1.4895    -3.5552  H       1  <O>11       0.1491
  33 H7        3.7820    -0.0844     1.1770  H       1  <O>11       0.1921
  34 H8        2.3010    -4.0949    -0.7976  H       1  <O>11       0.0625
  35 H9        3.1313    -5.5419    -2.5485  H       1  <O>11       0.0618
  36 H10       5.2303    -5.0324    -3.6493  H       1  <O>11       0.0618
  37 H11       6.4933    -3.0713    -2.9967  H       1  <O>11       0.0624
  38 H12      11.6887     3.3997    -5.2791  H       1  <O>11       0.0626
  39 H13      13.8822     3.9209    -6.1798  H       1  <O>11       0.0646
  40 H14      15.6833     1.9118    -2.9575  H       1  <O>11       0.0646
  41 H15      13.5025     1.3874    -2.0450  H       1  <O>11       0.0626
@<TRIPOS>BOND
     1     1     2    2
     2     2     3   am
     3     3     4    1
     4     4     5    1
     5     5     6    1
     6     6     7   am
     7     7     8    2
     8     7     9    1
     9     9    10   ar
    10    10    11   ar
    11    11    12   ar
    12    12    13    2
    13    12    14   ar
    14    14    15   ar
    15    15    16   ar
    16    16    17   ar
    17    17    18   ar
    18    18    19   ar
    19     9    19   ar
    20    14    19   ar
    21     2    20    1
    22    20    21   ar
    23    21    22   ar
    24    22    23   ar
    25    23    24    1
    26    23    25   ar
    27    25    26   ar
    28    20    26   ar
    29     3    27    1
    30     4    28    1
    31     4    29    1
    32     5    30    1
    33     5    31    1
    34     6    32    1
    35    11    33    1
    36    15    34    1
    37    16    35    1
    38    17    36    1
    39    18    37    1
    40    21    38    1
    41    22    39    1
    42    25    40    1
    43    26    41    1
@<TRIPOS>MOLECULE
mol34_1_14
 41 43 0 0 0
SMALL
USER_CHARGES
****
VDW energy = -14.65
@<TRIPOS>ATOM
   1 O1       10.5517     2.7793    -2.2805  O.2     1  <O>11      -0.2702
   2 C1       11.1005     2.0164    -3.0615  C.2     1  <O>11       0.2441
   3 N1       10.4790     0.8560    -3.4360  N.am    1  <O>11      -0.3099
   4 C2        9.1600     0.5290    -2.9010  C.3     1  <O>11       0.0275
   5 C3        8.6980    -0.8020    -3.4710  C.3     1  <O>11       0.0275
   6 N2        7.3790    -1.1290    -2.9370  N.am    1  <O>11      -0.3085
   7 C4        7.1175    -0.9524    -1.6048  C.2     1  <O>11       0.2648
   8 O2        7.9880    -0.5221    -0.8627  O.2     1  <O>11      -0.2684
   9 C5        5.8112    -1.2758    -1.0736  C.ar    1  <O>11       0.1533
  10 N3        5.3240    -0.4191    -0.1441  N.ar    1  <O>11      -0.1656
  11 N4        4.1576    -0.7078     0.4772  N.ar    1  <O>11      -0.2420
  12 C6        3.4982    -1.8441     0.1451  C.ar    1  <O>11       0.2725
  13 O3        2.3444    -2.1350     0.8963  O.2     1  <O>11      -0.2658
  14 C7        3.9070    -2.7120    -0.8780  C.ar    1  <O>11       0.0501
  15 C8        3.1918    -3.8677    -1.2666  C.ar    1  <O>11      -0.0487
  16 C9        3.6699    -4.7058    -2.2729  C.ar    1  <O>11      -0.0610
  17 C10       4.8732    -4.4135    -2.9046  C.ar    1  <O>11      -0.0611
  18 C11       5.5975    -3.2802    -2.5288  C.ar    1  <O>11      -0.0516
  19 C12       5.1223    -2.4155    -1.5177  C.ar    1  <O>11       0.0195
  20 C13      12.4170     2.3420    -3.5950  C.ar    1  <O>11       0.0369
  21 C14      13.3864     1.3366    -3.7518  C.ar    1  <O>11      -0.0469
  22 C15      14.6546     1.6520    -4.2528  C.ar    1  <O>11      -0.0257
  23 C16      14.9642     2.9673    -4.6044  C.ar    1  <O>11       0.1234
  24 F1       16.2055     3.2841    -5.0944  F       1  <O>11      -0.2055
  25 C17      13.9962     3.9669    -4.4541  C.ar    1  <O>11      -0.0257
  26 C18      12.7292     3.6633    -3.9569  C.ar    1  <O>11      -0.0469
  27 H1       10.9370     0.2190    -4.0870  H       1  <O>11       0.1491
  28 H2        9.2150     0.4600    -1.8150  H       1  <O>11       0.0477
  29 H3        8.4510     1.3090    -3.1810  H       1  <O>11       0.0477
  30 H4        8.6430    -0.7340    -4.5570  H       1  <O>11       0.0477
  31 H5        9.4060    -1.5820    -3.1920  H       1  <O>11       0.0477
  32 H6        6.6532    -1.4895    -3.5552  H       1  <O>11       0.1491
  33 H7        3.7820    -0.0844     1.1770  H       1  <O>11       0.1921
  34 H8        2.3010    -4.0949    -0.7976  H       1  <O>11       0.0625
  35 H9        3.1313    -5.5419    -2.5485  H       1  <O>11       0.0618
  36 H10       5.2303    -5.0324    -3.6493  H       1  <O>11       0.0618
  37 H11       6.4933    -3.0713    -2.9967  H       1  <O>11       0.0624
  38 H12      13.1623     0.3621    -3.4965  H       1  <O>11       0.0626
  39 H13      15.3632     0.9098    -4.3628  H       1  <O>11       0.0646
  40 H14      14.2226     4.9396    -4.7142  H       1  <O>11       0.0646
  41 H15      12.0220     4.4080    -3.8549  H       1  <O>11       0.0626
@<TRIPOS>BOND
     1     1     2    2
     2     2     3   am
     3     3     4    1
     4     4     5    1
     5     5     6    1
     6     6     7   am
     7     7     8    2
     8     7     9    1
     9     9    10   ar
    10    10    11   ar
    11    11    12   ar
    12    12    13    2
    13    12    14   ar
    14    14    15   ar
    15    15    16   ar
    16    16    17   ar
    17    17    18   ar
    18    18    19   ar
    19     9    19   ar
    20    14    19   ar
    21     2    20    1
    22    20    21   ar
    23    21    22   ar
    24    22    23   ar
    25    23    24    1
    26    23    25   ar
    27    25    26   ar
    28    20    26   ar
    29     3    27    1
    30     4    28    1
    31     4    29    1
    32     5    30    1
    33     5    31    1
    34     6    32    1
    35    11    33    1
    36    15    34    1
    37    16    35    1
    38    17    36    1
    39    18    37    1
    40    21    38    1
    41    22    39    1
    42    25    40    1
    43    26    41    1
@<TRIPOS>MOLECULE
mol34_1_15
 41 43 0 0 0
SMALL
USER_CHARGES
****
VDW energy = -14.58
@<TRIPOS>ATOM
   1 O1       10.5517     2.7793    -2.2805  O.2     1  <O>11      -0.2702
   2 C1       11.1005     2.0164    -3.0615  C.2     1  <O>11       0.2441
   3 N1       10.4790     0.8560    -3.4360  N.am    1  <O>11      -0.3099
   4 C2        9.1600     0.5290    -2.9010  C.3     1  <O>11       0.0275
   5 C3        8.2778     1.7660    -2.9374  C.3     1  <O>11       0.0275
   6 N2        6.9592     1.4398    -2.4019  N.am    1  <O>11      -0.3085
   7 C4        6.3372     0.2790    -2.7760  C.2     1  <O>11       0.2648
   8 O2        6.8850    -0.4834    -3.5584  O.2     1  <O>11      -0.2684
   9 C5        5.0306    -0.0462    -2.2465  C.ar    1  <O>11       0.1533
  10 N3        4.1610    -0.6034    -3.1233  N.ar    1  <O>11      -0.1656
  11 N4        2.8870    -0.8391    -2.7346  N.ar    1  <O>11      -0.2420
  12 C6        2.5145    -0.5215    -1.4709  C.ar    1  <O>11       0.2725
  13 O3        1.1535    -0.6999    -1.1609  O.2     1  <O>11      -0.2658
  14 C7        3.3987    -0.0365    -0.4962  C.ar    1  <O>11       0.0501
  15 C8        3.0274     0.2418     0.8391  C.ar    1  <O>11      -0.0487
  16 C9        3.9500     0.7517     1.7515  C.ar    1  <O>11      -0.0610
  17 C10       5.2567     1.0023     1.3489  C.ar    1  <O>11      -0.0611
  18 C11       5.6399     0.7408     0.0317  C.ar    1  <O>11      -0.0516
  19 C12       4.7199     0.2151    -0.9027  C.ar    1  <O>11       0.0195
  20 C13      12.4170     2.3420    -3.5950  C.ar    1  <O>11       0.0369
  21 C14      12.5365     3.0796    -4.7854  C.ar    1  <O>11      -0.0469
  22 C15      13.8010     3.3816    -5.3037  C.ar    1  <O>11      -0.0257
  23 C16      14.9529     2.9557    -4.6394  C.ar    1  <O>11       0.1234
  24 F1       16.1953     3.2464    -5.1424  F       1  <O>11      -0.2055
  25 C17      14.8332     2.2268    -3.4506  C.ar    1  <O>11      -0.0257
  26 C18      13.5782     1.9214    -2.9249  C.ar    1  <O>11      -0.0469
  27 H1       10.9370     0.2190    -4.0870  H       1  <O>11       0.1491
  28 H2        8.7079    -0.2579    -3.5040  H       1  <O>11       0.0477
  29 H3        9.2609     0.1859    -1.8707  H       1  <O>11       0.0477
  30 H4        8.7293     2.5536    -2.3349  H       1  <O>11       0.0477
  31 H5        8.1766     2.1098    -3.9665  H       1  <O>11       0.0477
  32 H6        6.5012     2.0762    -1.7506  H       1  <O>11       0.1491
  33 H7        2.2231    -1.2480    -3.3759  H       1  <O>11       0.1921
  34 H8        2.0574     0.0646     1.1435  H       1  <O>11       0.0625
  35 H9        3.6633     0.9429     2.7243  H       1  <O>11       0.0618
  36 H10       5.9418     1.3806     2.0217  H       1  <O>11       0.0618
  37 H11       6.6096     0.9345    -0.2635  H       1  <O>11       0.0624
  38 H12      11.6887     3.3997    -5.2791  H       1  <O>11       0.0626
  39 H13      13.8822     3.9209    -6.1798  H       1  <O>11       0.0646
  40 H14      15.6833     1.9118    -2.9575  H       1  <O>11       0.0646
  41 H15      13.5025     1.3874    -2.0450  H       1  <O>11       0.0626
@<TRIPOS>BOND
     1     1     2    2
     2     2     3   am
     3     3     4    1
     4     4     5    1
     5     5     6    1
     6     6     7   am
     7     7     8    2
     8     7     9    1
     9     9    10   ar
    10    10    11   ar
    11    11    12   ar
    12    12    13    2
    13    12    14   ar
    14    14    15   ar
    15    15    16   ar
    16    16    17   ar
    17    17    18   ar
    18    18    19   ar
    19     9    19   ar
    20    14    19   ar
    21     2    20    1
    22    20    21   ar
    23    21    22   ar
    24    22    23   ar
    25    23    24    1
    26    23    25   ar
    27    25    26   ar
    28    20    26   ar
    29     3    27    1
    30     4    28    1
    31     4    29    1
    32     5    30    1
    33     5    31    1
    34     6    32    1
    35    11    33    1
    36    15    34    1
    37    16    35    1
    38    17    36    1
    39    18    37    1
    40    21    38    1
    41    22    39    1
    42    25    40    1
    43    26    41    1
@<TRIPOS>MOLECULE
mol34_1_16
 41 43 0 0 0
SMALL
USER_CHARGES
****
VDW energy = -11.62
@<TRIPOS>ATOM
   1 O1       10.5517     2.7793    -2.2805  O.2     1  <O>11      -0.2702
   2 C1       11.1005     2.0164    -3.0615  C.2     1  <O>11       0.2441
   3 N1       10.4790     0.8560    -3.4360  N.am    1  <O>11      -0.3099
   4 C2        9.1600     0.5290    -2.9010  C.3     1  <O>11       0.0275
   5 C3        9.1340     0.8139    -1.4083  C.3     1  <O>11       0.0275
   6 N2        7.8155     0.4872    -0.8730  N.am    1  <O>11      -0.3085
   7 C4        7.5553     0.6641     0.4594  C.2     1  <O>11       0.2648
   8 O2        8.4265     1.0946     1.2005  O.2     1  <O>11      -0.2684
   9 C5        6.2495     0.3410     0.9919  C.ar    1  <O>11       0.1533
  10 N3        5.3479    -0.1302     0.0973  N.ar    1  <O>11      -0.1656
  11 N4        4.0747    -0.3553     0.4948  N.ar    1  <O>11      -0.2420
  12 C6        3.7348    -0.1140     1.7843  C.ar    1  <O>11       0.2725
  13 O3        2.3750    -0.2742     2.1089  O.2     1  <O>11      -0.2658
  14 C7        4.6507     0.2781     2.7715  C.ar    1  <O>11       0.0501
  15 C8        4.3122     0.4754     4.1297  C.ar    1  <O>11      -0.0487
  16 C9        5.2660     0.8955     5.0557  C.ar    1  <O>11      -0.0610
  17 C10       6.5721     1.1355     4.6447  C.ar    1  <O>11      -0.0611
  18 C11       6.9233     0.9534     3.3054  C.ar    1  <O>11      -0.0516
  19 C12       5.9712     0.5190     2.3564  C.ar    1  <O>11       0.0195
  20 C13      12.4170     2.3420    -3.5950  C.ar    1  <O>11       0.0369
  21 C14      12.5365     3.0796    -4.7854  C.ar    1  <O>11      -0.0469
  22 C15      13.8010     3.3816    -5.3037  C.ar    1  <O>11      -0.0257
  23 C16      14.9529     2.9557    -4.6394  C.ar    1  <O>11       0.1234
  24 F1       16.1953     3.2464    -5.1424  F       1  <O>11      -0.2055
  25 C17      14.8332     2.2268    -3.4506  C.ar    1  <O>11      -0.0257
  26 C18      13.5782     1.9214    -2.9249  C.ar    1  <O>11      -0.0469
  27 H1       10.9370     0.2190    -4.0870  H       1  <O>11       0.1491
  28 H2        8.4047     1.1353    -3.4001  H       1  <O>11       0.0477
  29 H3        8.9505    -0.5276    -3.0721  H       1  <O>11       0.0477
  30 H4        9.8889     0.2079    -0.9084  H       1  <O>11       0.0477
  31 H5        9.3441     1.8693    -1.2363  H       1  <O>11       0.0477
  32 H6        7.0891     0.1266    -1.4904  H       1  <O>11       0.1491
  33 H7        3.3873    -0.7006    -0.1591  H       1  <O>11       0.1921
  34 H8        3.3430     0.3057     4.4410  H       1  <O>11       0.0625
  35 H9        5.0029     1.0281     6.0448  H       1  <O>11       0.0618
  36 H10       7.2803     1.4475     5.3275  H       1  <O>11       0.0618
  37 H11       7.8928     1.1390     3.0044  H       1  <O>11       0.0624
  38 H12      11.6887     3.3997    -5.2791  H       1  <O>11       0.0626
  39 H13      13.8822     3.9209    -6.1798  H       1  <O>11       0.0646
  40 H14      15.6833     1.9118    -2.9575  H       1  <O>11       0.0646
  41 H15      13.5025     1.3874    -2.0450  H       1  <O>11       0.0626
@<TRIPOS>BOND
     1     1     2    2
     2     2     3   am
     3     3     4    1
     4     4     5    1
     5     5     6    1
     6     6     7   am
     7     7     8    2
     8     7     9    1
     9     9    10   ar
    10    10    11   ar
    11    11    12   ar
    12    12    13    2
    13    12    14   ar
    14    14    15   ar
    15    15    16   ar
    16    16    17   ar
    17    17    18   ar
    18    18    19   ar
    19     9    19   ar
    20    14    19   ar
    21     2    20    1
    22    20    21   ar
    23    21    22   ar
    24    22    23   ar
    25    23    24    1
    26    23    25   ar
    27    25    26   ar
    28    20    26   ar
    29     3    27    1
    30     4    28    1
    31     4    29    1
    32     5    30    1
    33     5    31    1
    34     6    32    1
    35    11    33    1
    36    15    34    1
    37    16    35    1
    38    17    36    1
    39    18    37    1
    40    21    38    1
    41    22    39    1
    42    25    40    1
    43    26    41    1
@<TRIPOS>MOLECULE
mol34_1_17
 41 43 0 0 0
SMALL
USER_CHARGES
****
VDW energy = -11.58
@<TRIPOS>ATOM
   1 O1       10.5517     2.7793    -2.2805  O.2     1  <O>11      -0.2702
   2 C1       11.1005     2.0164    -3.0615  C.2     1  <O>11       0.2441
   3 N1       10.4790     0.8560    -3.4360  N.am    1  <O>11      -0.3099
   4 C2        9.1600     0.5290    -2.9010  C.3     1  <O>11       0.0275
   5 C3        8.6980    -0.8020    -3.4710  C.3     1  <O>11       0.0275
   6 N2        7.3790    -1.1290    -2.9370  N.am    1  <O>11      -0.3085
   7 C4        7.1175    -0.9524    -1.6048  C.2     1  <O>11       0.2648
   8 O2        7.9880    -0.5221    -0.8627  O.2     1  <O>11      -0.2684
   9 C5        5.8112    -1.2758    -1.0736  C.ar    1  <O>11       0.1533
  10 N3        4.9105    -1.7468    -1.9692  N.ar    1  <O>11      -0.1656
  11 N4        3.6369    -1.9721    -1.5730  N.ar    1  <O>11      -0.2420
  12 C6        3.2958    -1.7312    -0.2838  C.ar    1  <O>11       0.2725
  13 O3        1.9357    -1.8915     0.0395  O.2     1  <O>11      -0.2658
  14 C7        4.2107    -1.3392     0.7044  C.ar    1  <O>11       0.0501
  15 C8        3.8709    -1.1423     2.0624  C.ar    1  <O>11      -0.0487
  16 C9        4.8238    -0.7223     2.9893  C.ar    1  <O>11      -0.0610
  17 C10       6.1303    -0.4821     2.5797  C.ar    1  <O>11      -0.0611
  18 C11       6.4827    -0.6638     1.2406  C.ar    1  <O>11      -0.0516
  19 C12       5.5316    -1.0981     0.2906  C.ar    1  <O>11       0.0195
  20 C13      12.4170     2.3420    -3.5950  C.ar    1  <O>11       0.0369
  21 C14      13.5776     1.9210    -2.9234  C.ar    1  <O>11      -0.0469
  22 C15      14.8416     2.2444    -3.4297  C.ar    1  <O>11      -0.0257
  23 C16      14.9585     2.9841    -4.6082  C.ar    1  <O>11       0.1234
  24 F1       16.1940     3.3062    -5.1093  F       1  <O>11      -0.2055
  25 C17      13.8024     3.3974    -5.2800  C.ar    1  <O>11      -0.0257
  26 C18      12.5381     3.0797    -4.7847  C.ar    1  <O>11      -0.0469
  27 H1       10.9370     0.2190    -4.0870  H       1  <O>11       0.1491
  28 H2        9.2150     0.4600    -1.8150  H       1  <O>11       0.0477
  29 H3        8.4510     1.3090    -3.1810  H       1  <O>11       0.0477
  30 H4        8.6430    -0.7340    -4.5570  H       1  <O>11       0.0477
  31 H5        9.4060    -1.5820    -3.1920  H       1  <O>11       0.0477
  32 H6        6.6532    -1.4895    -3.5552  H       1  <O>11       0.1491
  33 H7        2.9502    -2.3173    -2.2277  H       1  <O>11       0.1921
  34 H8        2.9014    -1.3122     2.3726  H       1  <O>11       0.0625
  35 H9        4.5597    -0.5900     3.9782  H       1  <O>11       0.0618
  36 H10       6.8378    -0.1703     3.2632  H       1  <O>11       0.0618
  37 H11       7.4525    -0.4781     0.9406  H       1  <O>11       0.0624
  38 H12      13.4974     1.3714    -2.0536  H       1  <O>11       0.0626
  39 H13      15.6902     1.9350    -2.9304  H       1  <O>11       0.0646
  40 H14      13.8864     3.9434    -6.1516  H       1  <O>11       0.0646
  41 H15      11.6927     3.3859    -5.2913  H       1  <O>11       0.0626
@<TRIPOS>BOND
     1     1     2    2
     2     2     3   am
     3     3     4    1
     4     4     5    1
     5     5     6    1
     6     6     7   am
     7     7     8    2
     8     7     9    1
     9     9    10   ar
    10    10    11   ar
    11    11    12   ar
    12    12    13    2
    13    12    14   ar
    14    14    15   ar
    15    15    16   ar
    16    16    17   ar
    17    17    18   ar
    18    18    19   ar
    19     9    19   ar
    20    14    19   ar
    21     2    20    1
    22    20    21   ar
    23    21    22   ar
    24    22    23   ar
    25    23    24    1
    26    23    25   ar
    27    25    26   ar
    28    20    26   ar
    29     3    27    1
    30     4    28    1
    31     4    29    1
    32     5    30    1
    33     5    31    1
    34     6    32    1
    35    11    33    1
    36    15    34    1
    37    16    35    1
    38    17    36    1
    39    18    37    1
    40    21    38    1
    41    22    39    1
    42    25    40    1
    43    26    41    1
@<TRIPOS>MOLECULE
mol34_1_18
 41 43 0 0 0
SMALL
USER_CHARGES
****
VDW energy = -11.58
@<TRIPOS>ATOM
   1 O1       10.5517     2.7793    -2.2805  O.2     1  <O>11      -0.2702
   2 C1       11.1005     2.0164    -3.0615  C.2     1  <O>11       0.2441
   3 N1       10.4790     0.8560    -3.4360  N.am    1  <O>11      -0.3099
   4 C2        9.1600     0.5290    -2.9010  C.3     1  <O>11       0.0275
   5 C3        8.6980    -0.8020    -3.4710  C.3     1  <O>11       0.0275
   6 N2        7.3790    -1.1290    -2.9370  N.am    1  <O>11      -0.3085
   7 C4        7.1175    -0.9524    -1.6048  C.2     1  <O>11       0.2648
   8 O2        7.9880    -0.5221    -0.8627  O.2     1  <O>11      -0.2684
   9 C5        5.8112    -1.2758    -1.0736  C.ar    1  <O>11       0.1533
  10 N3        4.9105    -1.7468    -1.9692  N.ar    1  <O>11      -0.1656
  11 N4        3.6369    -1.9721    -1.5730  N.ar    1  <O>11      -0.2420
  12 C6        3.2958    -1.7312    -0.2838  C.ar    1  <O>11       0.2725
  13 O3        1.9357    -1.8915     0.0395  O.2     1  <O>11      -0.2658
  14 C7        4.2107    -1.3392     0.7044  C.ar    1  <O>11       0.0501
  15 C8        3.8709    -1.1423     2.0624  C.ar    1  <O>11      -0.0487
  16 C9        4.8238    -0.7223     2.9893  C.ar    1  <O>11      -0.0610
  17 C10       6.1303    -0.4821     2.5797  C.ar    1  <O>11      -0.0611
  18 C11       6.4827    -0.6638     1.2406  C.ar    1  <O>11      -0.0516
  19 C12       5.5316    -1.0981     0.2906  C.ar    1  <O>11       0.0195
  20 C13      12.4170     2.3420    -3.5950  C.ar    1  <O>11       0.0369
  21 C14      12.5365     3.0796    -4.7854  C.ar    1  <O>11      -0.0469
  22 C15      13.8010     3.3816    -5.3037  C.ar    1  <O>11      -0.0257
  23 C16      14.9529     2.9557    -4.6394  C.ar    1  <O>11       0.1234
  24 F1       16.1953     3.2464    -5.1424  F       1  <O>11      -0.2055
  25 C17      14.8332     2.2268    -3.4506  C.ar    1  <O>11      -0.0257
  26 C18      13.5782     1.9214    -2.9249  C.ar    1  <O>11      -0.0469
  27 H1       10.9370     0.2190    -4.0870  H       1  <O>11       0.1491
  28 H2        9.2150     0.4600    -1.8150  H       1  <O>11       0.0477
  29 H3        8.4510     1.3090    -3.1810  H       1  <O>11       0.0477
  30 H4        8.6430    -0.7340    -4.5570  H       1  <O>11       0.0477
  31 H5        9.4060    -1.5820    -3.1920  H       1  <O>11       0.0477
  32 H6        6.6532    -1.4895    -3.5552  H       1  <O>11       0.1491
  33 H7        2.9502    -2.3173    -2.2277  H       1  <O>11       0.1921
  34 H8        2.9014    -1.3122     2.3726  H       1  <O>11       0.0625
  35 H9        4.5597    -0.5900     3.9782  H       1  <O>11       0.0618
  36 H10       6.8378    -0.1703     3.2632  H       1  <O>11       0.0618
  37 H11       7.4525    -0.4781     0.9406  H       1  <O>11       0.0624
  38 H12      11.6887     3.3997    -5.2791  H       1  <O>11       0.0626
  39 H13      13.8822     3.9209    -6.1798  H       1  <O>11       0.0646
  40 H14      15.6833     1.9118    -2.9575  H       1  <O>11       0.0646
  41 H15      13.5025     1.3874    -2.0450  H       1  <O>11       0.0626
@<TRIPOS>BOND
     1     1     2    2
     2     2     3   am
     3     3     4    1
     4     4     5    1
     5     5     6    1
     6     6     7   am
     7     7     8    2
     8     7     9    1
     9     9    10   ar
    10    10    11   ar
    11    11    12   ar
    12    12    13    2
    13    12    14   ar
    14    14    15   ar
    15    15    16   ar
    16    16    17   ar
    17    17    18   ar
    18    18    19   ar
    19     9    19   ar
    20    14    19   ar
    21     2    20    1
    22    20    21   ar
    23    21    22   ar
    24    22    23   ar
    25    23    24    1
    26    23    25   ar
    27    25    26   ar
    28    20    26   ar
    29     3    27    1
    30     4    28    1
    31     4    29    1
    32     5    30    1
    33     5    31    1
    34     6    32    1
    35    11    33    1
    36    15    34    1
    37    16    35    1
    38    17    36    1
    39    18    37    1
    40    21    38    1
    41    22    39    1
    42    25    40    1
    43    26    41    1
@<TRIPOS>MOLECULE
mol34_1_19
 41 43 0 0 0
SMALL
USER_CHARGES
****
VDW energy = -9.66
@<TRIPOS>ATOM
   1 O1       10.5517     2.7793    -2.2805  O.2     1  <O>11      -0.2702
   2 C1       11.1005     2.0164    -3.0615  C.2     1  <O>11       0.2441
   3 N1       10.4790     0.8560    -3.4360  N.am    1  <O>11      -0.3099
   4 C2        9.1600     0.5290    -2.9010  C.3     1  <O>11       0.0275
   5 C3        9.1340     0.8139    -1.4083  C.3     1  <O>11       0.0275
   6 N2       10.1456     0.0008    -0.7396  N.am    1  <O>11      -0.3085
   7 C4       10.3070     0.0893     0.6170  C.2     1  <O>11       0.2648
   8 O2        9.6053     0.8492     1.2679  O.2     1  <O>11      -0.2684
   9 C5       11.3088    -0.7156     1.2817  C.ar    1  <O>11       0.1533
  10 N3       12.0395    -1.5277     0.4805  N.ar    1  <O>11      -0.1656
  11 N4       12.9227    -2.3882     1.0369  N.ar    1  <O>11      -0.2420
  12 C6       13.0630    -2.4083     2.3846  C.ar    1  <O>11       0.2725
  13 O3       13.9238    -3.3922     2.9051  O.2     1  <O>11      -0.2658
  14 C7       12.4054    -1.5219     3.2500  C.ar    1  <O>11       0.0501
  15 C8       12.5921    -1.5011     4.6511  C.ar    1  <O>11      -0.0487
  16 C9       11.8833    -0.6129     5.4588  C.ar    1  <O>11      -0.0610
  17 C10      10.9692     0.2648     4.8874  C.ar    1  <O>11      -0.0611
  18 C11      10.7657     0.2535     3.5059  C.ar    1  <O>11      -0.0516
  19 C12      11.4828    -0.6336     2.6723  C.ar    1  <O>11       0.0195
  20 C13      12.4170     2.3420    -3.5950  C.ar    1  <O>11       0.0369
  21 C14      12.5365     3.0796    -4.7854  C.ar    1  <O>11      -0.0469
  22 C15      13.8010     3.3816    -5.3037  C.ar    1  <O>11      -0.0257
  23 C16      14.9529     2.9557    -4.6394  C.ar    1  <O>11       0.1234
  24 F1       16.1953     3.2464    -5.1424  F       1  <O>11      -0.2055
  25 C17      14.8332     2.2268    -3.4506  C.ar    1  <O>11      -0.0257
  26 C18      13.5782     1.9214    -2.9249  C.ar    1  <O>11      -0.0469
  27 H1       10.9370     0.2190    -4.0870  H       1  <O>11       0.1491
  28 H2        8.4047     1.1353    -3.4001  H       1  <O>11       0.0477
  29 H3        8.9505    -0.5276    -3.0721  H       1  <O>11       0.0477
  30 H4        9.3439     1.8689    -1.2350  H       1  <O>11       0.0477
  31 H5        8.1500     0.5697    -1.0090  H       1  <O>11       0.0477
  32 H6       10.7323    -0.6320    -1.2822  H       1  <O>11       0.1491
  33 H7       13.4717    -3.0053     0.4563  H       1  <O>11       0.1921
  34 H8       13.2642    -2.1543     5.0832  H       1  <O>11       0.0625
  35 H9       12.0370    -0.6069     6.4793  H       1  <O>11       0.0618
  36 H10      10.4422     0.9229     5.4826  H       1  <O>11       0.0618
  37 H11      10.0814     0.9028     3.0876  H       1  <O>11       0.0624
  38 H12      11.6887     3.3997    -5.2791  H       1  <O>11       0.0626
  39 H13      13.8822     3.9209    -6.1798  H       1  <O>11       0.0646
  40 H14      15.6833     1.9118    -2.9575  H       1  <O>11       0.0646
  41 H15      13.5025     1.3874    -2.0450  H       1  <O>11       0.0626
@<TRIPOS>BOND
     1     1     2    2
     2     2     3   am
     3     3     4    1
     4     4     5    1
     5     5     6    1
     6     6     7   am
     7     7     8    2
     8     7     9    1
     9     9    10   ar
    10    10    11   ar
    11    11    12   ar
    12    12    13    2
    13    12    14   ar
    14    14    15   ar
    15    15    16   ar
    16    16    17   ar
    17    17    18   ar
    18    18    19   ar
    19     9    19   ar
    20    14    19   ar
    21     2    20    1
    22    20    21   ar
    23    21    22   ar
    24    22    23   ar
    25    23    24    1
    26    23    25   ar
    27    25    26   ar
    28    20    26   ar
    29     3    27    1
    30     4    28    1
    31     4    29    1
    32     5    30    1
    33     5    31    1
    34     6    32    1
    35    11    33    1
    36    15    34    1
    37    16    35    1
    38    17    36    1
    39    18    37    1
    40    21    38    1
    41    22    39    1
    42    25    40    1
    43    26    41    1
@<TRIPOS>MOLECULE
mol34_1_20
 41 43 0 0 0
SMALL
USER_CHARGES
****
VDW energy = -8.97
@<TRIPOS>ATOM
   1 O1       10.5517     2.7793    -2.2805  O.2     1  <O>11      -0.2702
   2 C1       11.1005     2.0164    -3.0615  C.2     1  <O>11       0.2441
   3 N1       10.4790     0.8560    -3.4360  N.am    1  <O>11      -0.3099
   4 C2        9.1600     0.5290    -2.9010  C.3     1  <O>11       0.0275
   5 C3        8.6980    -0.8020    -3.4710  C.3     1  <O>11       0.0275
   6 N2        7.3790    -1.1290    -2.9370  N.am    1  <O>11      -0.3085
   7 C4        7.1175    -0.9524    -1.6048  C.2     1  <O>11       0.2648
   8 O2        7.9880    -0.5221    -0.8627  O.2     1  <O>11      -0.2684
   9 C5        5.8112    -1.2758    -1.0736  C.ar    1  <O>11       0.1533
  10 N3        4.9105    -1.7468    -1.9692  N.ar    1  <O>11      -0.1656
  11 N4        3.6369    -1.9721    -1.5730  N.ar    1  <O>11      -0.2420
  12 C6        3.2958    -1.7312    -0.2838  C.ar    1  <O>11       0.2725
  13 O3        1.9357    -1.8915     0.0395  O.2     1  <O>11      -0.2658
  14 C7        4.2107    -1.3392     0.7044  C.ar    1  <O>11       0.0501
  15 C8        3.8709    -1.1423     2.0624  C.ar    1  <O>11      -0.0487
  16 C9        4.8238    -0.7223     2.9893  C.ar    1  <O>11      -0.0610
  17 C10       6.1303    -0.4821     2.5797  C.ar    1  <O>11      -0.0611
  18 C11       6.4827    -0.6638     1.2406  C.ar    1  <O>11      -0.0516
  19 C12       5.5316    -1.0981     0.2906  C.ar    1  <O>11       0.0195
  20 C13      12.4170     2.3420    -3.5950  C.ar    1  <O>11       0.0369
  21 C14      12.7214     2.0766    -4.9412  C.ar    1  <O>11      -0.0469
  22 C15      13.9898     2.3784    -5.4498  C.ar    1  <O>11      -0.0257
  23 C16      14.9606     2.9492    -4.6244  C.ar    1  <O>11       0.1234
  24 F1       16.2063     3.2459    -5.1155  F       1  <O>11      -0.2055
  25 C17      14.6547     3.2192    -3.2856  C.ar    1  <O>11      -0.0257
  26 C18      13.3936     2.9234    -2.7689  C.ar    1  <O>11      -0.0469
  27 H1       10.9370     0.2190    -4.0870  H       1  <O>11       0.1491
  28 H2        9.2150     0.4600    -1.8150  H       1  <O>11       0.0477
  29 H3        8.4510     1.3090    -3.1810  H       1  <O>11       0.0477
  30 H4        8.6430    -0.7340    -4.5570  H       1  <O>11       0.0477
  31 H5        9.4060    -1.5820    -3.1920  H       1  <O>11       0.0477
  32 H6        6.6532    -1.4895    -3.5552  H       1  <O>11       0.1491
  33 H7        2.9502    -2.3173    -2.2277  H       1  <O>11       0.1921
  34 H8        2.9014    -1.3122     2.3726  H       1  <O>11       0.0625
  35 H9        4.5597    -0.5900     3.9782  H       1  <O>11       0.0618
  36 H10       6.8378    -0.1703     3.2632  H       1  <O>11       0.0618
  37 H11       7.4525    -0.4781     0.9406  H       1  <O>11       0.0624
  38 H12      12.0070     1.6577    -5.5568  H       1  <O>11       0.0626
  39 H13      14.2084     2.1783    -6.4384  H       1  <O>11       0.0646
  40 H14      15.3703     3.6418    -2.6739  H       1  <O>11       0.0646
  41 H15      13.1780     3.1314    -1.7813  H       1  <O>11       0.0626
@<TRIPOS>BOND
     1     1     2    2
     2     2     3   am
     3     3     4    1
     4     4     5    1
     5     5     6    1
     6     6     7   am
     7     7     8    2
     8     7     9    1
     9     9    10   ar
    10    10    11   ar
    11    11    12   ar
    12    12    13    2
    13    12    14   ar
    14    14    15   ar
    15    15    16   ar
    16    16    17   ar
    17    17    18   ar
    18    18    19   ar
    19     9    19   ar
    20    14    19   ar
    21     2    20    1
    22    20    21   ar
    23    21    22   ar
    24    22    23   ar
    25    23    24    1
    26    23    25   ar
    27    25    26   ar
    28    20    26   ar
    29     3    27    1
    30     4    28    1
    31     4    29    1
    32     5    30    1
    33     5    31    1
    34     6    32    1
    35    11    33    1
    36    15    34    1
    37    16    35    1
    38    17    36    1
    39    18    37    1
    40    21    38    1
    41    22    39    1
    42    25    40    1
    43    26    41    1
@<TRIPOS>MOLECULE
mol34_1_21
 41 43 0 0 0
SMALL
USER_CHARGES
****
VDW energy = -6.68
@<TRIPOS>ATOM
   1 O1       10.5517     2.7793    -2.2805  O.2     1  <O>11      -0.2702
   2 C1       11.1005     2.0164    -3.0615  C.2     1  <O>11       0.2441
   3 N1       10.4790     0.8560    -3.4360  N.am    1  <O>11      -0.3099
   4 C2        9.1600     0.5290    -2.9010  C.3     1  <O>11       0.0275
   5 C3        8.6980    -0.8020    -3.4710  C.3     1  <O>11       0.0275
   6 N2        8.6235    -0.7091    -4.9262  N.am    1  <O>11      -0.3085
   7 C4        8.0628     0.3933    -5.5133  C.2     1  <O>11       0.2648
   8 O2        7.6241     1.2988    -4.8197  O.2     1  <O>11      -0.2684
   9 C5        7.9880     0.4874    -6.9551  C.ar    1  <O>11       0.1533
  10 N3        8.4984    -0.5629    -7.6419  N.ar    1  <O>11      -0.1656
  11 N4        8.5621    -0.5046    -8.9918  N.ar    1  <O>11      -0.2420
  12 C6        8.1020     0.6013    -9.6257  C.ar    1  <O>11       0.2725
  13 O3        8.2869     0.6403   -11.0202  O.2     1  <O>11      -0.2658
  14 C7        7.4748     1.6711    -8.9706  C.ar    1  <O>11       0.0501
  15 C8        6.9420     2.8004    -9.6333  C.ar    1  <O>11      -0.0487
  16 C9        6.3573     3.8450    -8.9188  C.ar    1  <O>11      -0.0610
  17 C10       6.3004     3.7887    -7.5310  C.ar    1  <O>11      -0.0611
  18 C11       6.8286     2.6846    -6.8585  C.ar    1  <O>11      -0.0516
  19 C12       7.4158     1.6133    -7.5681  C.ar    1  <O>11       0.0195
  20 C13      12.4170     2.3420    -3.5950  C.ar    1  <O>11       0.0369
  21 C14      12.7214     2.0766    -4.9412  C.ar    1  <O>11      -0.0469
  22 C15      13.9898     2.3784    -5.4498  C.ar    1  <O>11      -0.0257
  23 C16      14.9606     2.9492    -4.6244  C.ar    1  <O>11       0.1234
  24 F1       16.2063     3.2459    -5.1155  F       1  <O>11      -0.2055
  25 C17      14.6547     3.2192    -3.2856  C.ar    1  <O>11      -0.0257
  26 C18      13.3936     2.9234    -2.7689  C.ar    1  <O>11      -0.0469
  27 H1       10.9370     0.2190    -4.0870  H       1  <O>11       0.1491
  28 H2        9.2150     0.4600    -1.8150  H       1  <O>11       0.0477
  29 H3        8.4510     1.3090    -3.1810  H       1  <O>11       0.0477
  30 H4        9.4053    -1.5827    -3.1931  H       1  <O>11       0.0477
  31 H5        7.7137    -1.0459    -3.0721  H       1  <O>11       0.0477
  32 H6        8.9878    -1.4648    -5.5051  H       1  <O>11       0.1491
  33 H7        8.9448    -1.2750    -9.5203  H       1  <O>11       0.1921
  34 H8        6.9865     2.8524   -10.6630  H       1  <O>11       0.0625
  35 H9        5.9672     4.6589    -9.4193  H       1  <O>11       0.0618
  36 H10       5.8691     4.5607    -6.9990  H       1  <O>11       0.0618
  37 H11       6.7893     2.6507    -5.8278  H       1  <O>11       0.0624
  38 H12      12.0070     1.6577    -5.5568  H       1  <O>11       0.0626
  39 H13      14.2084     2.1783    -6.4384  H       1  <O>11       0.0646
  40 H14      15.3703     3.6418    -2.6739  H       1  <O>11       0.0646
  41 H15      13.1780     3.1314    -1.7813  H       1  <O>11       0.0626
@<TRIPOS>BOND
     1     1     2    2
     2     2     3   am
     3     3     4    1
     4     4     5    1
     5     5     6    1
     6     6     7   am
     7     7     8    2
     8     7     9    1
     9     9    10   ar
    10    10    11   ar
    11    11    12   ar
    12    12    13    2
    13    12    14   ar
    14    14    15   ar
    15    15    16   ar
    16    16    17   ar
    17    17    18   ar
    18    18    19   ar
    19     9    19   ar
    20    14    19   ar
    21     2    20    1
    22    20    21   ar
    23    21    22   ar
    24    22    23   ar
    25    23    24    1
    26    23    25   ar
    27    25    26   ar
    28    20    26   ar
    29     3    27    1
    30     4    28    1
    31     4    29    1
    32     5    30    1
    33     5    31    1
    34     6    32    1
    35    11    33    1
    36    15    34    1
    37    16    35    1
    38    17    36    1
    39    18    37    1
    40    21    38    1
    41    22    39    1
    42    25    40    1
    43    26    41    1
@<TRIPOS>MOLECULE
mol34_1_22
 41 43 0 0 0
SMALL
USER_CHARGES
****
VDW energy = -5.31
@<TRIPOS>ATOM
   1 O1       10.5517     2.7793    -2.2805  O.2     1  <O>11      -0.2702
   2 C1       11.1005     2.0164    -3.0615  C.2     1  <O>11       0.2441
   3 N1       10.4790     0.8560    -3.4360  N.am    1  <O>11      -0.3099
   4 C2        9.1600     0.5290    -2.9010  C.3     1  <O>11       0.0275
   5 C3        8.2778     1.7660    -2.9374  C.3     1  <O>11       0.0275
   6 N2        6.9592     1.4398    -2.4019  N.am    1  <O>11      -0.3085
   7 C4        6.3372     0.2790    -2.7760  C.2     1  <O>11       0.2648
   8 O2        6.8850    -0.4834    -3.5584  O.2     1  <O>11      -0.2684
   9 C5        5.0306    -0.0462    -2.2465  C.ar    1  <O>11       0.1533
  10 N3        4.5010     0.8572    -1.3872  N.ar    1  <O>11      -0.1656
  11 N4        3.3315     0.5770    -0.7679  N.ar    1  <O>11      -0.2420
  12 C6        2.7116    -0.5988    -1.0319  C.ar    1  <O>11       0.2725
  13 O3        1.5523    -0.8721    -0.2826  O.2     1  <O>11      -0.2658
  14 C7        3.1652    -1.5222    -1.9852  C.ar    1  <O>11       0.0501
  15 C8        2.4912    -2.7230    -2.3052  C.ar    1  <O>11      -0.0487
  16 C9        3.0128    -3.6135    -3.2426  C.ar    1  <O>11      -0.0610
  17 C10       4.2193    -3.3292    -3.8719  C.ar    1  <O>11      -0.0611
  18 C11       4.9032    -2.1515    -3.5629  C.ar    1  <O>11      -0.0516
  19 C12       4.3836    -1.2340    -2.6226  C.ar    1  <O>11       0.0195
  20 C13      12.4170     2.3420    -3.5950  C.ar    1  <O>11       0.0369
  21 C14      13.5776     1.9210    -2.9234  C.ar    1  <O>11      -0.0469
  22 C15      14.8416     2.2444    -3.4297  C.ar    1  <O>11      -0.0257
  23 C16      14.9585     2.9841    -4.6082  C.ar    1  <O>11       0.1234
  24 F1       16.1940     3.3062    -5.1093  F       1  <O>11      -0.2055
  25 C17      13.8024     3.3974    -5.2800  C.ar    1  <O>11      -0.0257
  26 C18      12.5381     3.0797    -4.7847  C.ar    1  <O>11      -0.0469
  27 H1       10.9370     0.2190    -4.0870  H       1  <O>11       0.1491
  28 H2        8.7079    -0.2579    -3.5040  H       1  <O>11       0.0477
  29 H3        9.2609     0.1859    -1.8707  H       1  <O>11       0.0477
  30 H4        8.7293     2.5536    -2.3349  H       1  <O>11       0.0477
  31 H5        8.1766     2.1098    -3.9665  H       1  <O>11       0.0477
  32 H6        6.5012     2.0762    -1.7506  H       1  <O>11       0.1491
  33 H7        2.9245     1.2353    -0.1196  H       1  <O>11       0.1921
  34 H8        1.5984    -2.9440    -1.8372  H       1  <O>11       0.0625
  35 H9        2.5040    -4.4824    -3.4689  H       1  <O>11       0.0618
  36 H10       4.6085    -3.9867    -4.5656  H       1  <O>11       0.0618
  37 H11       5.8015    -1.9483    -4.0284  H       1  <O>11       0.0624
  38 H12      13.4974     1.3714    -2.0536  H       1  <O>11       0.0626
  39 H13      15.6902     1.9350    -2.9304  H       1  <O>11       0.0646
  40 H14      13.8864     3.9434    -6.1516  H       1  <O>11       0.0646
  41 H15      11.6927     3.3859    -5.2913  H       1  <O>11       0.0626
@<TRIPOS>BOND
     1     1     2    2
     2     2     3   am
     3     3     4    1
     4     4     5    1
     5     5     6    1
     6     6     7   am
     7     7     8    2
     8     7     9    1
     9     9    10   ar
    10    10    11   ar
    11    11    12   ar
    12    12    13    2
    13    12    14   ar
    14    14    15   ar
    15    15    16   ar
    16    16    17   ar
    17    17    18   ar
    18    18    19   ar
    19     9    19   ar
    20    14    19   ar
    21     2    20    1
    22    20    21   ar
    23    21    22   ar
    24    22    23   ar
    25    23    24    1
    26    23    25   ar
    27    25    26   ar
    28    20    26   ar
    29     3    27    1
    30     4    28    1
    31     4    29    1
    32     5    30    1
    33     5    31    1
    34     6    32    1
    35    11    33    1
    36    15    34    1
    37    16    35    1
    38    17    36    1
    39    18    37    1
    40    21    38    1
    41    22    39    1
    42    25    40    1
    43    26    41    1
@<TRIPOS>MOLECULE
mol34_1_23
 41 43 0 0 0
SMALL
USER_CHARGES
****
VDW energy = -5.31
@<TRIPOS>ATOM
   1 O1       10.5517     2.7793    -2.2805  O.2     1  <O>11      -0.2702
   2 C1       11.1005     2.0164    -3.0615  C.2     1  <O>11       0.2441
   3 N1       10.4790     0.8560    -3.4360  N.am    1  <O>11      -0.3099
   4 C2        9.1600     0.5290    -2.9010  C.3     1  <O>11       0.0275
   5 C3        8.2778     1.7660    -2.9374  C.3     1  <O>11       0.0275
   6 N2        6.9592     1.4398    -2.4019  N.am    1  <O>11      -0.3085
   7 C4        6.3372     0.2790    -2.7760  C.2     1  <O>11       0.2648
   8 O2        6.8850    -0.4834    -3.5584  O.2     1  <O>11      -0.2684
   9 C5        5.0306    -0.0462    -2.2465  C.ar    1  <O>11       0.1533
  10 N3        4.5010     0.8572    -1.3872  N.ar    1  <O>11      -0.1656
  11 N4        3.3315     0.5770    -0.7679  N.ar    1  <O>11      -0.2420
  12 C6        2.7116    -0.5988    -1.0319  C.ar    1  <O>11       0.2725
  13 O3        1.5523    -0.8721    -0.2826  O.2     1  <O>11      -0.2658
  14 C7        3.1652    -1.5222    -1.9852  C.ar    1  <O>11       0.0501
  15 C8        2.4912    -2.7230    -2.3052  C.ar    1  <O>11      -0.0487
  16 C9        3.0128    -3.6135    -3.2426  C.ar    1  <O>11      -0.0610
  17 C10       4.2193    -3.3292    -3.8719  C.ar    1  <O>11      -0.0611
  18 C11       4.9032    -2.1515    -3.5629  C.ar    1  <O>11      -0.0516
  19 C12       4.3836    -1.2340    -2.6226  C.ar    1  <O>11       0.0195
  20 C13      12.4170     2.3420    -3.5950  C.ar    1  <O>11       0.0369
  21 C14      12.5365     3.0796    -4.7854  C.ar    1  <O>11      -0.0469
  22 C15      13.8010     3.3816    -5.3037  C.ar    1  <O>11      -0.0257
  23 C16      14.9529     2.9557    -4.6394  C.ar    1  <O>11       0.1234
  24 F1       16.1953     3.2464    -5.1424  F       1  <O>11      -0.2055
  25 C17      14.8332     2.2268    -3.4506  C.ar    1  <O>11      -0.0257
  26 C18      13.5782     1.9214    -2.9249  C.ar    1  <O>11      -0.0469
  27 H1       10.9370     0.2190    -4.0870  H       1  <O>11       0.1491
  28 H2        8.7079    -0.2579    -3.5040  H       1  <O>11       0.0477
  29 H3        9.2609     0.1859    -1.8707  H       1  <O>11       0.0477
  30 H4        8.7293     2.5536    -2.3349  H       1  <O>11       0.0477
  31 H5        8.1766     2.1098    -3.9665  H       1  <O>11       0.0477
  32 H6        6.5012     2.0762    -1.7506  H       1  <O>11       0.1491
  33 H7        2.9245     1.2353    -0.1196  H       1  <O>11       0.1921
  34 H8        1.5984    -2.9440    -1.8372  H       1  <O>11       0.0625
  35 H9        2.5040    -4.4824    -3.4689  H       1  <O>11       0.0618
  36 H10       4.6085    -3.9867    -4.5656  H       1  <O>11       0.0618
  37 H11       5.8015    -1.9483    -4.0284  H       1  <O>11       0.0624
  38 H12      11.6887     3.3997    -5.2791  H       1  <O>11       0.0626
  39 H13      13.8822     3.9209    -6.1798  H       1  <O>11       0.0646
  40 H14      15.6833     1.9118    -2.9575  H       1  <O>11       0.0646
  41 H15      13.5025     1.3874    -2.0450  H       1  <O>11       0.0626
@<TRIPOS>BOND
     1     1     2    2
     2     2     3   am
     3     3     4    1
     4     4     5    1
     5     5     6    1
     6     6     7   am
     7     7     8    2
     8     7     9    1
     9     9    10   ar
    10    10    11   ar
    11    11    12   ar
    12    12    13    2
    13    12    14   ar
    14    14    15   ar
    15    15    16   ar
    16    16    17   ar
    17    17    18   ar
    18    18    19   ar
    19     9    19   ar
    20    14    19   ar
    21     2    20    1
    22    20    21   ar
    23    21    22   ar
    24    22    23   ar
    25    23    24    1
    26    23    25   ar
    27    25    26   ar
    28    20    26   ar
    29     3    27    1
    30     4    28    1
    31     4    29    1
    32     5    30    1
    33     5    31    1
    34     6    32    1
    35    11    33    1
    36    15    34    1
    37    16    35    1
    38    17    36    1
    39    18    37    1
    40    21    38    1
    41    22    39    1
    42    25    40    1
    43    26    41    1
@<TRIPOS>MOLECULE
mol34_1_24
 41 43 0 0 0
SMALL
USER_CHARGES
****
VDW energy = -4.62
@<TRIPOS>ATOM
   1 O1       10.5517     2.7793    -2.2805  O.2     1  <O>11      -0.2702
   2 C1       11.1005     2.0164    -3.0615  C.2     1  <O>11       0.2441
   3 N1       10.4790     0.8560    -3.4360  N.am    1  <O>11      -0.3099
   4 C2        9.1600     0.5290    -2.9010  C.3     1  <O>11       0.0275
   5 C3        8.6980    -0.8020    -3.4710  C.3     1  <O>11       0.0275
   6 N2        7.3790    -1.1290    -2.9370  N.am    1  <O>11      -0.3085
   7 C4        7.1175    -0.9524    -1.6048  C.2     1  <O>11       0.2648
   8 O2        7.9880    -0.5221    -0.8627  O.2     1  <O>11      -0.2684
   9 C5        5.8112    -1.2758    -1.0736  C.ar    1  <O>11       0.1533
  10 N3        4.9105    -1.7468    -1.9692  N.ar    1  <O>11      -0.1656
  11 N4        3.6369    -1.9721    -1.5730  N.ar    1  <O>11      -0.2420
  12 C6        3.2958    -1.7312    -0.2838  C.ar    1  <O>11       0.2725
  13 O3        1.9357    -1.8915     0.0395  O.2     1  <O>11      -0.2658
  14 C7        4.2107    -1.3392     0.7044  C.ar    1  <O>11       0.0501
  15 C8        3.8709    -1.1423     2.0624  C.ar    1  <O>11      -0.0487
  16 C9        4.8238    -0.7223     2.9893  C.ar    1  <O>11      -0.0610
  17 C10       6.1303    -0.4821     2.5797  C.ar    1  <O>11      -0.0611
  18 C11       6.4827    -0.6638     1.2406  C.ar    1  <O>11      -0.0516
  19 C12       5.5316    -1.0981     0.2906  C.ar    1  <O>11       0.0195
  20 C13      12.4170     2.3420    -3.5950  C.ar    1  <O>11       0.0369
  21 C14      13.0610     3.5320    -3.2150  C.ar    1  <O>11      -0.0469
  22 C15      14.3200     3.8500    -3.7370  C.ar    1  <O>11      -0.0257
  23 C16      14.9470     2.9850    -4.6360  C.ar    1  <O>11       0.1234
  24 F1       16.1800     3.2910    -5.1530  F       1  <O>11      -0.2055
  25 C17      14.3080     1.7970    -5.0090  C.ar    1  <O>11      -0.0257
  26 C18      13.0540     1.4700    -4.4940  C.ar    1  <O>11      -0.0469
  27 H1       10.9370     0.2190    -4.0870  H       1  <O>11       0.1491
  28 H2        9.2150     0.4600    -1.8150  H       1  <O>11       0.0477
  29 H3        8.4510     1.3090    -3.1810  H       1  <O>11       0.0477
  30 H4        8.6430    -0.7340    -4.5570  H       1  <O>11       0.0477
  31 H5        9.4060    -1.5820    -3.1920  H       1  <O>11       0.0477
  32 H6        6.6532    -1.4895    -3.5552  H       1  <O>11       0.1491
  33 H7        2.9502    -2.3173    -2.2277  H       1  <O>11       0.1921
  34 H8        2.9014    -1.3122     2.3726  H       1  <O>11       0.0625
  35 H9        4.5597    -0.5900     3.9782  H       1  <O>11       0.0618
  36 H10       6.8378    -0.1703     3.2632  H       1  <O>11       0.0618
  37 H11       7.4525    -0.4781     0.9406  H       1  <O>11       0.0624
  38 H12      12.6038     4.1737    -2.5485  H       1  <O>11       0.0626
  39 H13      14.7865     4.7268    -3.4565  H       1  <O>11       0.0646
  40 H14      14.7700     1.1558    -5.6726  H       1  <O>11       0.0646
  41 H15      12.5946     0.5889    -4.7727  H       1  <O>11       0.0626
@<TRIPOS>BOND
     1     1     2    2
     2     2     3   am
     3     3     4    1
     4     4     5    1
     5     5     6    1
     6     6     7   am
     7     7     8    2
     8     7     9    1
     9     9    10   ar
    10    10    11   ar
    11    11    12   ar
    12    12    13    2
    13    12    14   ar
    14    14    15   ar
    15    15    16   ar
    16    16    17   ar
    17    17    18   ar
    18    18    19   ar
    19     9    19   ar
    20    14    19   ar
    21     2    20    1
    22    20    21   ar
    23    21    22   ar
    24    22    23   ar
    25    23    24    1
    26    23    25   ar
    27    25    26   ar
    28    20    26   ar
    29     3    27    1
    30     4    28    1
    31     4    29    1
    32     5    30    1
    33     5    31    1
    34     6    32    1
    35    11    33    1
    36    15    34    1
    37    16    35    1
    38    17    36    1
    39    18    37    1
    40    21    38    1
    41    22    39    1
    42    25    40    1
    43    26    41    1
@<TRIPOS>MOLECULE
mol34_1_25
 41 43 0 0 0
SMALL
USER_CHARGES
****
VDW energy = -4.60
@<TRIPOS>ATOM
   1 O1       10.5517     2.7793    -2.2805  O.2     1  <O>11      -0.2702
   2 C1       11.1005     2.0164    -3.0615  C.2     1  <O>11       0.2441
   3 N1       10.4790     0.8560    -3.4360  N.am    1  <O>11      -0.3099
   4 C2        9.1600     0.5290    -2.9010  C.3     1  <O>11       0.0275
   5 C3        8.2778     1.7660    -2.9374  C.3     1  <O>11       0.0275
   6 N2        6.9592     1.4398    -2.4019  N.am    1  <O>11      -0.3085
   7 C4        5.9902     2.4046    -2.3354  C.2     1  <O>11       0.2648
   8 O2        6.2290     3.5387    -2.7233  O.2     1  <O>11      -0.2684
   9 C5        4.6829     2.0835    -1.8052  C.ar    1  <O>11       0.1533
  10 N3        4.5096     0.8027    -1.3992  N.ar    1  <O>11      -0.1656
  11 N4        3.2859     0.3966    -0.9901  N.ar    1  <O>11      -0.2420
  12 C6        2.2639     1.2865    -0.9860  C.ar    1  <O>11       0.2725
  13 O3        0.9975     0.7768    -0.6442  O.2     1  <O>11      -0.2658
  14 C7        2.4120     2.6452    -1.3009  C.ar    1  <O>11       0.0501
  15 C8        1.3612     3.5889    -1.2425  C.ar    1  <O>11      -0.0487
  16 C9        1.5691     4.9207    -1.5984  C.ar    1  <O>11      -0.0610
  17 C10       2.8246     5.3355    -2.0274  C.ar    1  <O>11      -0.0611
  18 C11       3.8730     4.4156    -2.0989  C.ar    1  <O>11      -0.0516
  19 C12       3.6815     3.0646    -1.7328  C.ar    1  <O>11       0.0195
  20 C13      12.4170     2.3420    -3.5950  C.ar    1  <O>11       0.0369
  21 C14      13.0610     3.5320    -3.2150  C.ar    1  <O>11      -0.0469
  22 C15      14.3200     3.8500    -3.7370  C.ar    1  <O>11      -0.0257
  23 C16      14.9470     2.9850    -4.6360  C.ar    1  <O>11       0.1234
  24 F1       16.1800     3.2910    -5.1530  F       1  <O>11      -0.2055
  25 C17      14.3080     1.7970    -5.0090  C.ar    1  <O>11      -0.0257
  26 C18      13.0540     1.4700    -4.4940  C.ar    1  <O>11      -0.0469
  27 H1       10.9370     0.2190    -4.0870  H       1  <O>11       0.1491
  28 H2        8.7079    -0.2579    -3.5040  H       1  <O>11       0.0477
  29 H3        9.2609     0.1859    -1.8707  H       1  <O>11       0.0477
  30 H4        8.7293     2.5536    -2.3349  H       1  <O>11       0.0477
  31 H5        8.1766     2.1098    -3.9665  H       1  <O>11       0.0477
  32 H6        6.7600     0.4945    -2.0768  H       1  <O>11       0.1491
  33 H7        3.1360    -0.5556    -0.6898  H       1  <O>11       0.1921
  34 H8        0.4247     3.2870    -0.9314  H       1  <O>11       0.0625
  35 H9        0.7921     5.5977    -1.5434  H       1  <O>11       0.0618
  36 H10       2.9815     6.3205    -2.2924  H       1  <O>11       0.0618
  37 H11       4.8014     4.7274    -2.4240  H       1  <O>11       0.0624
  38 H12      12.6038     4.1737    -2.5485  H       1  <O>11       0.0626
  39 H13      14.7865     4.7268    -3.4565  H       1  <O>11       0.0646
  40 H14      14.7700     1.1558    -5.6726  H       1  <O>11       0.0646
  41 H15      12.5946     0.5889    -4.7727  H       1  <O>11       0.0626
@<TRIPOS>BOND
     1     1     2    2
     2     2     3   am
     3     3     4    1
     4     4     5    1
     5     5     6    1
     6     6     7   am
     7     7     8    2
     8     7     9    1
     9     9    10   ar
    10    10    11   ar
    11    11    12   ar
    12    12    13    2
    13    12    14   ar
    14    14    15   ar
    15    15    16   ar
    16    16    17   ar
    17    17    18   ar
    18    18    19   ar
    19     9    19   ar
    20    14    19   ar
    21     2    20    1
    22    20    21   ar
    23    21    22   ar
    24    22    23   ar
    25    23    24    1
    26    23    25   ar
    27    25    26   ar
    28    20    26   ar
    29     3    27    1
    30     4    28    1
    31     4    29    1
    32     5    30    1
    33     5    31    1
    34     6    32    1
    35    11    33    1
    36    15    34    1
    37    16    35    1
    38    17    36    1
    39    18    37    1
    40    21    38    1
    41    22    39    1
    42    25    40    1
    43    26    41    1
@<TRIPOS>MOLECULE
mol34_1_26
 41 43 0 0 0
SMALL
USER_CHARGES
****
VDW energy = -2.88
@<TRIPOS>ATOM
   1 O1       10.5517     2.7793    -2.2805  O.2     1  <O>11      -0.2702
   2 C1       11.1005     2.0164    -3.0615  C.2     1  <O>11       0.2441
   3 N1       10.4790     0.8560    -3.4360  N.am    1  <O>11      -0.3099
   4 C2        9.1600     0.5290    -2.9010  C.3     1  <O>11       0.0275
   5 C3        8.6980    -0.8020    -3.4710  C.3     1  <O>11       0.0275
   6 N2        9.6470    -1.8471    -3.0984  N.am    1  <O>11      -0.3085
   7 C4        9.4365    -3.1380    -3.5029  C.2     1  <O>11       0.2648
   8 O2       10.2306    -4.0133    -3.1922  O.2     1  <O>11      -0.2684
   9 C5        8.2744    -3.4674    -4.2994  C.ar    1  <O>11       0.1533
  10 N3        7.4504    -2.4337    -4.5959  N.ar    1  <O>11      -0.1656
  11 N4        6.2894    -2.6767    -5.2461  N.ar    1  <O>11      -0.2420
  12 C6        5.9841    -3.9499    -5.5955  C.ar    1  <O>11       0.2725
  13 O3        4.7195    -4.1475    -6.1802  O.2     1  <O>11      -0.2658
  14 C7        6.8456    -5.0394    -5.4013  C.ar    1  <O>11       0.0501
  15 C8        6.5559    -6.3595    -5.8158  C.ar    1  <O>11      -0.0487
  16 C9        7.4442    -7.4042    -5.5646  C.ar    1  <O>11      -0.0610
  17 C10       8.6330    -7.1555    -4.8883  C.ar    1  <O>11      -0.0611
  18 C11       8.9328    -5.8591    -4.4644  C.ar    1  <O>11      -0.0516
  19 C12       8.0480    -4.7877    -4.7194  C.ar    1  <O>11       0.0195
  20 C13      12.4170     2.3420    -3.5950  C.ar    1  <O>11       0.0369
  21 C14      12.5365     3.0796    -4.7854  C.ar    1  <O>11      -0.0469
  22 C15      13.8010     3.3816    -5.3037  C.ar    1  <O>11      -0.0257
  23 C16      14.9529     2.9557    -4.6394  C.ar    1  <O>11       0.1234
  24 F1       16.1953     3.2464    -5.1424  F       1  <O>11      -0.2055
  25 C17      14.8332     2.2268    -3.4506  C.ar    1  <O>11      -0.0257
  26 C18      13.5782     1.9214    -2.9249  C.ar    1  <O>11      -0.0469
  27 H1       10.9370     0.2190    -4.0870  H       1  <O>11       0.1491
  28 H2        9.2150     0.4600    -1.8150  H       1  <O>11       0.0477
  29 H3        8.4510     1.3090    -3.1810  H       1  <O>11       0.0477
  30 H4        7.7138    -1.0470    -3.0730  H       1  <O>11       0.0477
  31 H5        8.6428    -0.7325    -4.5571  H       1  <O>11       0.0477
  32 H6       10.4656    -1.6164    -2.5365  H       1  <O>11       0.1491
  33 H7        5.6597    -1.9199    -5.4702  H       1  <O>11       0.1921
  34 H8        5.6723    -6.5531    -6.3125  H       1  <O>11       0.0625
  35 H9        7.2196    -8.3608    -5.8802  H       1  <O>11       0.0618
  36 H10       9.2923    -7.9269    -4.7000  H       1  <O>11       0.0618
  37 H11       9.8137    -5.6811    -3.9573  H       1  <O>11       0.0624
  38 H12      11.6887     3.3997    -5.2791  H       1  <O>11       0.0626
  39 H13      13.8822     3.9209    -6.1798  H       1  <O>11       0.0646
  40 H14      15.6833     1.9118    -2.9575  H       1  <O>11       0.0646
  41 H15      13.5025     1.3874    -2.0450  H       1  <O>11       0.0626
@<TRIPOS>BOND
     1     1     2    2
     2     2     3   am
     3     3     4    1
     4     4     5    1
     5     5     6    1
     6     6     7   am
     7     7     8    2
     8     7     9    1
     9     9    10   ar
    10    10    11   ar
    11    11    12   ar
    12    12    13    2
    13    12    14   ar
    14    14    15   ar
    15    15    16   ar
    16    16    17   ar
    17    17    18   ar
    18    18    19   ar
    19     9    19   ar
    20    14    19   ar
    21     2    20    1
    22    20    21   ar
    23    21    22   ar
    24    22    23   ar
    25    23    24    1
    26    23    25   ar
    27    25    26   ar
    28    20    26   ar
    29     3    27    1
    30     4    28    1
    31     4    29    1
    32     5    30    1
    33     5    31    1
    34     6    32    1
    35    11    33    1
    36    15    34    1
    37    16    35    1
    38    17    36    1
    39    18    37    1
    40    21    38    1
    41    22    39    1
    42    25    40    1
    43    26    41    1
@<TRIPOS>MOLECULE
mol34_1_27
 41 43 0 0 0
SMALL
USER_CHARGES
****
VDW energy = -2.28
@<TRIPOS>ATOM
   1 O1       10.5517     2.7793    -2.2805  O.2     1  <O>11      -0.2702
   2 C1       11.1005     2.0164    -3.0615  C.2     1  <O>11       0.2441
   3 N1       10.4790     0.8560    -3.4360  N.am    1  <O>11      -0.3099
   4 C2        9.1600     0.5290    -2.9010  C.3     1  <O>11       0.0275
   5 C3        9.1340     0.8139    -1.4083  C.3     1  <O>11       0.0275
   6 N2        7.8157     0.4864    -0.8728  N.am    1  <O>11      -0.3085
   7 C4        6.6886     0.8669    -1.5503  C.2     1  <O>11       0.2648
   8 O2        6.7857     1.4811    -2.6024  O.2     1  <O>11      -0.2684
   9 C5        5.3813     0.5434    -1.0215  C.ar    1  <O>11       0.1533
  10 N3        5.3709    -0.1382     0.1492  N.ar    1  <O>11      -0.1656
  11 N4        4.1929    -0.5697     0.6549  N.ar    1  <O>11      -0.2420
  12 C6        3.0484    -0.2989    -0.0183  C.ar    1  <O>11       0.2725
  13 O3        1.8701    -0.8592     0.5086  O.2     1  <O>11      -0.2658
  14 C7        2.9941     0.4863    -1.1792  C.ar    1  <O>11       0.0501
  15 C8        1.7966     0.8193    -1.8526  C.ar    1  <O>11      -0.0487
  16 C9        1.8152     1.5800    -3.0208  C.ar    1  <O>11      -0.0610
  17 C10       3.0269     2.0154    -3.5450  C.ar    1  <O>11      -0.0611
  18 C11       4.2207     1.6896    -2.8978  C.ar    1  <O>11      -0.0516
  19 C12       4.2187     0.9279    -1.7079  C.ar    1  <O>11       0.0195
  20 C13      12.4170     2.3420    -3.5950  C.ar    1  <O>11       0.0369
  21 C14      13.5776     1.9210    -2.9234  C.ar    1  <O>11      -0.0469
  22 C15      14.8416     2.2444    -3.4297  C.ar    1  <O>11      -0.0257
  23 C16      14.9585     2.9841    -4.6082  C.ar    1  <O>11       0.1234
  24 F1       16.1940     3.3062    -5.1093  F       1  <O>11      -0.2055
  25 C17      13.8024     3.3974    -5.2800  C.ar    1  <O>11      -0.0257
  26 C18      12.5381     3.0797    -4.7847  C.ar    1  <O>11      -0.0469
  27 H1       10.9370     0.2190    -4.0870  H       1  <O>11       0.1491
  28 H2        8.4047     1.1353    -3.4001  H       1  <O>11       0.0477
  29 H3        8.9505    -0.5276    -3.0721  H       1  <O>11       0.0477
  30 H4        9.8893     0.2083    -0.9085  H       1  <O>11       0.0477
  31 H5        9.3436     1.8694    -1.2363  H       1  <O>11       0.0477
  32 H6        7.7342    -0.0244     0.0054  H       1  <O>11       0.1491
  33 H7        4.1659    -1.0845     1.5230  H       1  <O>11       0.1921
  34 H8        0.8937     0.4940    -1.4732  H       1  <O>11       0.0625
  35 H9        0.9308     1.8194    -3.4958  H       1  <O>11       0.0618
  36 H10       3.0441     2.5778    -4.4101  H       1  <O>11       0.0618
  37 H11       5.1178     2.0101    -3.2945  H       1  <O>11       0.0624
  38 H12      13.4974     1.3714    -2.0536  H       1  <O>11       0.0626
  39 H13      15.6902     1.9350    -2.9304  H       1  <O>11       0.0646
  40 H14      13.8864     3.9434    -6.1516  H       1  <O>11       0.0646
  41 H15      11.6927     3.3859    -5.2913  H       1  <O>11       0.0626
@<TRIPOS>BOND
     1     1     2    2
     2     2     3   am
     3     3     4    1
     4     4     5    1
     5     5     6    1
     6     6     7   am
     7     7     8    2
     8     7     9    1
     9     9    10   ar
    10    10    11   ar
    11    11    12   ar
    12    12    13    2
    13    12    14   ar
    14    14    15   ar
    15    15    16   ar
    16    16    17   ar
    17    17    18   ar
    18    18    19   ar
    19     9    19   ar
    20    14    19   ar
    21     2    20    1
    22    20    21   ar
    23    21    22   ar
    24    22    23   ar
    25    23    24    1
    26    23    25   ar
    27    25    26   ar
    28    20    26   ar
    29     3    27    1
    30     4    28    1
    31     4    29    1
    32     5    30    1
    33     5    31    1
    34     6    32    1
    35    11    33    1
    36    15    34    1
    37    16    35    1
    38    17    36    1
    39    18    37    1
    40    21    38    1
    41    22    39    1
    42    25    40    1
    43    26    41    1
@<TRIPOS>MOLECULE
mol34_1_28
 41 43 0 0 0
SMALL
USER_CHARGES
****
VDW energy = -2.09
@<TRIPOS>ATOM
   1 O1       10.5517     2.7793    -2.2805  O.2     1  <O>11      -0.2702
   2 C1       11.1005     2.0164    -3.0615  C.2     1  <O>11       0.2441
   3 N1       10.4790     0.8560    -3.4360  N.am    1  <O>11      -0.3099
   4 C2        9.1600     0.5290    -2.9010  C.3     1  <O>11       0.0275
   5 C3        8.2778     1.7660    -2.9374  C.3     1  <O>11       0.0275
   6 N2        6.9592     1.4398    -2.4019  N.am    1  <O>11      -0.3085
   7 C4        6.8505     0.6897    -1.2619  C.2     1  <O>11       0.2648
   8 O2        7.8566     0.2926    -0.6931  O.2     1  <O>11      -0.2684
   9 C5        5.5449     0.3653    -0.7295  C.ar    1  <O>11       0.1533
  10 N3        4.4876     0.8472    -1.4262  N.ar    1  <O>11      -0.1656
  11 N4        3.2380     0.6775    -0.9368  N.ar    1  <O>11      -0.2420
  12 C6        3.0738     0.0179     0.2356  C.ar    1  <O>11       0.2725
  13 O3        1.7606    -0.0386     0.7381  O.2     1  <O>11      -0.2658
  14 C7        4.1230    -0.5857     0.9441  C.ar    1  <O>11       0.0501
  15 C8        3.9491    -1.3237     2.1372  C.ar    1  <O>11      -0.0487
  16 C9        5.0399    -1.8733     2.8092  C.ar    1  <O>11      -0.0610
  17 C10       6.3247    -1.6907     2.3107  C.ar    1  <O>11      -0.0611
  18 C11       6.5167    -0.9580     1.1374  C.ar    1  <O>11      -0.0516
  19 C12       5.4213    -0.4026     0.4391  C.ar    1  <O>11       0.0195
  20 C13      12.4170     2.3420    -3.5950  C.ar    1  <O>11       0.0369
  21 C14      12.5365     3.0796    -4.7854  C.ar    1  <O>11      -0.0469
  22 C15      13.8010     3.3816    -5.3037  C.ar    1  <O>11      -0.0257
  23 C16      14.9529     2.9557    -4.6394  C.ar    1  <O>11       0.1234
  24 F1       16.1953     3.2464    -5.1424  F       1  <O>11      -0.2055
  25 C17      14.8332     2.2268    -3.4506  C.ar    1  <O>11      -0.0257
  26 C18      13.5782     1.9214    -2.9249  C.ar    1  <O>11      -0.0469
  27 H1       10.9370     0.2190    -4.0870  H       1  <O>11       0.1491
  28 H2        8.7079    -0.2579    -3.5040  H       1  <O>11       0.0477
  29 H3        9.2609     0.1859    -1.8707  H       1  <O>11       0.0477
  30 H4        8.7293     2.5536    -2.3349  H       1  <O>11       0.0477
  31 H5        8.1766     2.1098    -3.9665  H       1  <O>11       0.0477
  32 H6        6.1197     1.7694    -2.8769  H       1  <O>11       0.1491
  33 H7        2.4383     1.0350    -1.4388  H       1  <O>11       0.1921
  34 H8        2.9990    -1.4578     2.5169  H       1  <O>11       0.0625
  35 H9        4.8939    -2.4149     3.6755  H       1  <O>11       0.0618
  36 H10       7.1343    -2.0954     2.8063  H       1  <O>11       0.0618
  37 H11       7.4731    -0.8202     0.7751  H       1  <O>11       0.0624
  38 H12      11.6887     3.3997    -5.2791  H       1  <O>11       0.0626
  39 H13      13.8822     3.9209    -6.1798  H       1  <O>11       0.0646
  40 H14      15.6833     1.9118    -2.9575  H       1  <O>11       0.0646
  41 H15      13.5025     1.3874    -2.0450  H       1  <O>11       0.0626
@<TRIPOS>BOND
     1     1     2    2
     2     2     3   am
     3     3     4    1
     4     4     5    1
     5     5     6    1
     6     6     7   am
     7     7     8    2
     8     7     9    1
     9     9    10   ar
    10    10    11   ar
    11    11    12   ar
    12    12    13    2
    13    12    14   ar
    14    14    15   ar
    15    15    16   ar
    16    16    17   ar
    17    17    18   ar
    18    18    19   ar
    19     9    19   ar
    20    14    19   ar
    21     2    20    1
    22    20    21   ar
    23    21    22   ar
    24    22    23   ar
    25    23    24    1
    26    23    25   ar
    27    25    26   ar
    28    20    26   ar
    29     3    27    1
    30     4    28    1
    31     4    29    1
    32     5    30    1
    33     5    31    1
    34     6    32    1
    35    11    33    1
    36    15    34    1
    37    16    35    1
    38    17    36    1
    39    18    37    1
    40    21    38    1
    41    22    39    1
    42    25    40    1
    43    26    41    1
@<TRIPOS>MOLECULE
mol34_1_29
 41 43 0 0 0
SMALL
USER_CHARGES
****
VDW energy = -1.75
@<TRIPOS>ATOM
   1 O1       10.5517     2.7793    -2.2805  O.2     1  <O>11      -0.2702
   2 C1       11.1005     2.0164    -3.0615  C.2     1  <O>11       0.2441
   3 N1       10.4790     0.8560    -3.4360  N.am    1  <O>11      -0.3099
   4 C2       11.1355    -0.0550    -4.3699  C.3     1  <O>11       0.0275
   5 C3       10.2402    -1.2579    -4.6178  C.3     1  <O>11       0.0275
   6 N2        8.9707    -0.8117    -5.1845  N.am    1  <O>11      -0.3085
   7 C4        7.9999    -1.7266    -5.4920  C.2     1  <O>11       0.2648
   8 O2        6.9367    -1.3540    -5.9657  O.2     1  <O>11      -0.2684
   9 C5        8.2307    -3.1352    -5.2560  C.ar    1  <O>11       0.1533
  10 N3        9.4368    -3.4549    -4.7284  N.ar    1  <O>11      -0.1656
  11 N4        9.7701    -4.7570    -4.5763  N.ar    1  <O>11      -0.2420
  12 C6        8.8822    -5.7116    -4.9461  C.ar    1  <O>11       0.2725
  13 O3        9.3274    -7.0434    -4.8544  O.2     1  <O>11      -0.2658
  14 C7        7.5854    -5.4350    -5.4034  C.ar    1  <O>11       0.0501
  15 C8        6.6361    -6.4283    -5.7358  C.ar    1  <O>11      -0.0487
  16 C9        5.3724    -6.0850    -6.2141  C.ar    1  <O>11      -0.0610
  17 C10       5.0338    -4.7468    -6.3787  C.ar    1  <O>11      -0.0611
  18 C11       5.9614    -3.7518    -6.0629  C.ar    1  <O>11      -0.0516
  19 C12       7.2427    -4.0824    -5.5681  C.ar    1  <O>11       0.0195
  20 C13      12.4170     2.3420    -3.5950  C.ar    1  <O>11       0.0369
  21 C14      12.5365     3.0796    -4.7854  C.ar    1  <O>11      -0.0469
  22 C15      13.8010     3.3816    -5.3037  C.ar    1  <O>11      -0.0257
  23 C16      14.9529     2.9557    -4.6394  C.ar    1  <O>11       0.1234
  24 F1       16.1953     3.2464    -5.1424  F       1  <O>11      -0.2055
  25 C17      14.8332     2.2268    -3.4506  C.ar    1  <O>11      -0.0257
  26 C18      13.5782     1.9214    -2.9249  C.ar    1  <O>11      -0.0469
  27 H1        9.5573     0.6280    -3.0647  H       1  <O>11       0.1491
  28 H2       11.3205     0.4608    -5.3116  H       1  <O>11       0.0477
  29 H3       12.0828    -0.3895    -3.9455  H       1  <O>11       0.0477
  30 H4       10.7289    -1.9386    -5.3141  H       1  <O>11       0.0477
  31 H5       10.0557    -1.7737    -3.6757  H       1  <O>11       0.0477
  32 H6        8.8073     0.1804    -5.3521  H       1  <O>11       0.1491
  33 H7       10.6668    -5.0146    -4.1906  H       1  <O>11       0.1921
  34 H8        6.8826    -7.4240    -5.6225  H       1  <O>11       0.0625
  35 H9        4.6893    -6.8231    -6.4455  H       1  <O>11       0.0618
  36 H10       4.0994    -4.4894    -6.7335  H       1  <O>11       0.0618
  37 H11       5.7071    -2.7601    -6.1929  H       1  <O>11       0.0624
  38 H12      11.6887     3.3997    -5.2791  H       1  <O>11       0.0626
  39 H13      13.8822     3.9209    -6.1798  H       1  <O>11       0.0646
  40 H14      15.6833     1.9118    -2.9575  H       1  <O>11       0.0646
  41 H15      13.5025     1.3874    -2.0450  H       1  <O>11       0.0626
@<TRIPOS>BOND
     1     1     2    2
     2     2     3   am
     3     3     4    1
     4     4     5    1
     5     5     6    1
     6     6     7   am
     7     7     8    2
     8     7     9    1
     9     9    10   ar
    10    10    11   ar
    11    11    12   ar
    12    12    13    2
    13    12    14   ar
    14    14    15   ar
    15    15    16   ar
    16    16    17   ar
    17    17    18   ar
    18    18    19   ar
    19     9    19   ar
    20    14    19   ar
    21     2    20    1
    22    20    21   ar
    23    21    22   ar
    24    22    23   ar
    25    23    24    1
    26    23    25   ar
    27    25    26   ar
    28    20    26   ar
    29     3    27    1
    30     4    28    1
    31     4    29    1
    32     5    30    1
    33     5    31    1
    34     6    32    1
    35    11    33    1
    36    15    34    1
    37    16    35    1
    38    17    36    1
    39    18    37    1
    40    21    38    1
    41    22    39    1
    42    25    40    1
    43    26    41    1
@<TRIPOS>MOLECULE
mol34_1_30
 41 43 0 0 0
SMALL
USER_CHARGES
****
VDW energy = 4.03
@<TRIPOS>ATOM
   1 O1       10.5517     2.7793    -2.2805  O.2     1  <O>11      -0.2702
   2 C1       11.1005     2.0164    -3.0615  C.2     1  <O>11       0.2441
   3 N1       10.4790     0.8560    -3.4360  N.am    1  <O>11      -0.3099
   4 C2        9.1600     0.5290    -2.9010  C.3     1  <O>11       0.0275
   5 C3        9.1340     0.8139    -1.4083  C.3     1  <O>11       0.0275
   6 N2        7.8155     0.4872    -0.8730  N.am    1  <O>11      -0.3085
   7 C4        7.5553     0.6641     0.4594  C.2     1  <O>11       0.2648
   8 O2        6.4518     0.3916     0.9083  O.2     1  <O>11      -0.2684
   9 C5        8.5857     1.1746     1.3374  C.ar    1  <O>11       0.1533
  10 N3        9.7763     1.4493     0.7523  N.ar    1  <O>11      -0.1656
  11 N4       10.8215     1.8296     1.5221  N.ar    1  <O>11      -0.2420
  12 C6       10.6480     1.9374     2.8618  C.ar    1  <O>11       0.2725
  13 O3       11.7974     2.2407     3.6148  O.2     1  <O>11      -0.2658
  14 C7        9.4138     1.7616     3.5046  C.ar    1  <O>11       0.0501
  15 C8        9.2158     1.9293     4.8942  C.ar    1  <O>11      -0.0487
  16 C9        7.9677     1.7092     5.4752  C.ar    1  <O>11      -0.0610
  17 C10       6.8962     1.3096     4.6849  C.ar    1  <O>11      -0.0611
  18 C11       7.0748     1.1314     3.3113  C.ar    1  <O>11      -0.0516
  19 C12       8.3305     1.3595     2.7054  C.ar    1  <O>11       0.0195
  20 C13      12.4170     2.3420    -3.5950  C.ar    1  <O>11       0.0369
  21 C14      12.5365     3.0796    -4.7854  C.ar    1  <O>11      -0.0469
  22 C15      13.8010     3.3816    -5.3037  C.ar    1  <O>11      -0.0257
  23 C16      14.9529     2.9557    -4.6394  C.ar    1  <O>11       0.1234
  24 F1       16.1953     3.2464    -5.1424  F       1  <O>11      -0.2055
  25 C17      14.8332     2.2268    -3.4506  C.ar    1  <O>11      -0.0257
  26 C18      13.5782     1.9214    -2.9249  C.ar    1  <O>11      -0.0469
  27 H1       10.9370     0.2190    -4.0870  H       1  <O>11       0.1491
  28 H2        8.4047     1.1353    -3.4001  H       1  <O>11       0.0477
  29 H3        8.9505    -0.5276    -3.0721  H       1  <O>11       0.0477
  30 H4        9.8889     0.2079    -0.9084  H       1  <O>11       0.0477
  31 H5        9.3441     1.8693    -1.2363  H       1  <O>11       0.0477
  32 H6        7.0891     0.1266    -1.4904  H       1  <O>11       0.1491
  33 H7       11.7181     2.0326     1.1047  H       1  <O>11       0.1921
  34 H8       10.0081     2.2193     5.4884  H       1  <O>11       0.0625
  35 H9        7.8395     1.8428     6.4905  H       1  <O>11       0.0618
  36 H10       5.9713     1.1450     5.1120  H       1  <O>11       0.0618
  37 H11       6.2775     0.8286     2.7302  H       1  <O>11       0.0624
  38 H12      11.6887     3.3997    -5.2791  H       1  <O>11       0.0626
  39 H13      13.8822     3.9209    -6.1798  H       1  <O>11       0.0646
  40 H14      15.6833     1.9118    -2.9575  H       1  <O>11       0.0646
  41 H15      13.5025     1.3874    -2.0450  H       1  <O>11       0.0626
@<TRIPOS>BOND
     1     1     2    2
     2     2     3   am
     3     3     4    1
     4     4     5    1
     5     5     6    1
     6     6     7   am
     7     7     8    2
     8     7     9    1
     9     9    10   ar
    10    10    11   ar
    11    11    12   ar
    12    12    13    2
    13    12    14   ar
    14    14    15   ar
    15    15    16   ar
    16    16    17   ar
    17    17    18   ar
    18    18    19   ar
    19     9    19   ar
    20    14    19   ar
    21     2    20    1
    22    20    21   ar
    23    21    22   ar
    24    22    23   ar
    25    23    24    1
    26    23    25   ar
    27    25    26   ar
    28    20    26   ar
    29     3    27    1
    30     4    28    1
    31     4    29    1
    32     5    30    1
    33     5    31    1
    34     6    32    1
    35    11    33    1
    36    15    34    1
    37    16    35    1
    38    17    36    1
    39    18    37    1
    40    21    38    1
    41    22    39    1
    42    25    40    1
    43    26    41    1
