@<TRIPOS>MOLECULE
mol32_1_1
 35 37 0 0 0
SMALL
USER_CHARGES
****
VDW energy = 50.37
@<TRIPOS>ATOM
   1 C1        1.4617   -10.1611    -4.6036  C.ar    1  <O>11      -0.0617
   2 C2        0.8050   -10.8783    -3.6012  C.ar    1  <O>11      -0.0611
   3 C3       -0.5391   -11.2290    -3.7692  C.ar    1  <O>11      -0.0524
   4 C4       -1.2224   -10.8607    -4.9311  C.ar    1  <O>11       0.0039
   5 C5       -2.6120   -11.2220    -5.1120  C.2     1  <O>11       0.1142
   6 N1       -2.9363   -12.4028    -5.7128  N.2     1  <O>11      -0.1787
   7 N2       -1.9678   -13.2298    -6.1355  N.pl3   1  <O>11      -0.2204
   8 C6       -2.3134   -14.4855    -6.7746  C.ar    1  <O>11       0.1380
   9 C7       -3.3845   -15.2586    -6.2550  C.ar    1  <O>11      -0.0203
  10 C8       -3.7173   -16.4577    -6.8813  C.ar    1  <O>11      -0.0570
  11 C9       -2.9589   -16.8636    -7.9859  C.ar    1  <O>11      -0.0435
  12 C10      -1.9189   -16.0544    -8.4411  C.ar    1  <O>11       0.0297
  13 N3       -1.6119   -14.8915    -7.8462  N.ar    1  <O>11      -0.2389
  14 C11      -3.6642   -10.3244    -4.6538  C.ar    1  <O>11       0.0912
  15 C12      -4.5957    -9.8083    -5.5931  C.ar    1  <O>11      -0.0341
  16 C13      -5.6037    -8.9586    -5.1460  C.ar    1  <O>11      -0.0583
  17 C14      -5.6404    -8.6282    -3.7855  C.ar    1  <O>11      -0.0436
  18 C15      -4.6919    -9.1705    -2.9184  C.ar    1  <O>11       0.0283
  19 N4       -3.7311   -10.0022    -3.3510  N.ar    1  <O>11      -0.2534
  20 C16      -0.5527   -10.1366    -5.9237  C.ar    1  <O>11      -0.0524
  21 C17       0.7874    -9.7806    -5.7650  C.ar    1  <O>11      -0.0611
  22 H1       -0.9880   -12.9745    -6.0077  H       1  <O>11       0.1760
  23 H2        2.4555    -9.9099    -4.4844  H       1  <O>11       0.0618
  24 H3        1.3082   -11.1481    -2.7415  H       1  <O>11       0.0618
  25 H4       -1.0275   -11.7615    -3.0324  H       1  <O>11       0.0624
  26 H5       -3.9086   -14.9375    -5.4260  H       1  <O>11       0.0652
  27 H6       -4.5034   -17.0325    -6.5395  H       1  <O>11       0.0619
  28 H7       -3.1684   -17.7559    -8.4601  H       1  <O>11       0.0633
  29 H8       -1.3689   -16.3587    -9.2596  H       1  <O>11       0.0830
  30 H9       -4.5266   -10.0592    -6.5917  H       1  <O>11       0.0639
  31 H10      -6.3065    -8.5815    -5.8009  H       1  <O>11       0.0619
  32 H11      -6.3651    -7.9870    -3.4266  H       1  <O>11       0.0633
  33 H12      -4.7299    -8.9256    -1.9166  H       1  <O>11       0.0830
  34 H13      -1.0552    -9.8628    -6.7825  H       1  <O>11       0.0624
  35 H14       1.2744    -9.2420    -6.4983  H       1  <O>11       0.0618
@<TRIPOS>BOND
     1     1     2   ar
     2     2     3   ar
     3     3     4   ar
     4     4     5    1
     5     5     6    2
     6     6     7    1
     7     7     8    1
     8     8     9   ar
     9     9    10   ar
    10    10    11   ar
    11    11    12   ar
    12    12    13   ar
    13     8    13   ar
    14     5    14    1
    15    14    15   ar
    16    15    16   ar
    17    16    17   ar
    18    17    18   ar
    19    18    19   ar
    20    14    19   ar
    21     4    20   ar
    22    20    21   ar
    23     1    21   ar
    24     7    22    1
    25     1    23    1
    26     2    24    1
    27     3    25    1
    28     9    26    1
    29    10    27    1
    30    11    28    1
    31    12    29    1
    32    15    30    1
    33    16    31    1
    34    17    32    1
    35    18    33    1
    36    20    34    1
    37    21    35    1
@<TRIPOS>MOLECULE
mol32_1_2
 35 37 0 0 0
SMALL
USER_CHARGES
****
VDW energy = 51.99
@<TRIPOS>ATOM
   1 C1        1.4617   -10.1611    -4.6036  C.ar    1  <O>11      -0.0617
   2 C2        0.8050   -10.8783    -3.6012  C.ar    1  <O>11      -0.0611
   3 C3       -0.5391   -11.2290    -3.7692  C.ar    1  <O>11      -0.0524
   4 C4       -1.2224   -10.8607    -4.9311  C.ar    1  <O>11       0.0039
   5 C5       -2.6120   -11.2220    -5.1120  C.2     1  <O>11       0.1142
   6 N1       -2.9363   -12.4028    -5.7128  N.2     1  <O>11      -0.1787
   7 N2       -1.9678   -13.2298    -6.1355  N.pl3   1  <O>11      -0.2204
   8 C6       -2.3134   -14.4855    -6.7746  C.ar    1  <O>11       0.1380
   9 C7       -3.3845   -15.2586    -6.2550  C.ar    1  <O>11      -0.0203
  10 C8       -3.7173   -16.4577    -6.8813  C.ar    1  <O>11      -0.0570
  11 C9       -2.9589   -16.8636    -7.9859  C.ar    1  <O>11      -0.0435
  12 C10      -1.9189   -16.0544    -8.4411  C.ar    1  <O>11       0.0297
  13 N3       -1.6119   -14.8915    -7.8462  N.ar    1  <O>11      -0.2389
  14 C11      -3.6642   -10.3244    -4.6538  C.ar    1  <O>11       0.0912
  15 C12      -4.1649   -10.4577    -3.3317  C.ar    1  <O>11      -0.0341
  16 C13      -5.1637    -9.5904    -2.8983  C.ar    1  <O>11      -0.0583
  17 C14      -5.6515    -8.6346    -3.7984  C.ar    1  <O>11      -0.0436
  18 C15      -5.1147    -8.5608    -5.0836  C.ar    1  <O>11       0.0283
  19 N4       -4.1404    -9.3887    -5.4924  N.ar    1  <O>11      -0.2534
  20 C16      -0.5527   -10.1366    -5.9237  C.ar    1  <O>11      -0.0524
  21 C17       0.7874    -9.7806    -5.7650  C.ar    1  <O>11      -0.0611
  22 H1       -0.9880   -12.9745    -6.0077  H       1  <O>11       0.1760
  23 H2        2.4555    -9.9099    -4.4844  H       1  <O>11       0.0618
  24 H3        1.3082   -11.1481    -2.7415  H       1  <O>11       0.0618
  25 H4       -1.0275   -11.7615    -3.0324  H       1  <O>11       0.0624
  26 H5       -3.9086   -14.9375    -5.4260  H       1  <O>11       0.0652
  27 H6       -4.5034   -17.0325    -6.5395  H       1  <O>11       0.0619
  28 H7       -3.1684   -17.7559    -8.4601  H       1  <O>11       0.0633
  29 H8       -1.3689   -16.3587    -9.2596  H       1  <O>11       0.0830
  30 H9       -3.7941   -11.1863    -2.7019  H       1  <O>11       0.0639
  31 H10      -5.5356    -9.6501    -1.9374  H       1  <O>11       0.0619
  32 H11      -6.4038    -7.9887    -3.5123  H       1  <O>11       0.0633
  33 H12      -5.4766    -7.8499    -5.7384  H       1  <O>11       0.0830
  34 H13      -1.0552    -9.8628    -6.7825  H       1  <O>11       0.0624
  35 H14       1.2744    -9.2420    -6.4983  H       1  <O>11       0.0618
@<TRIPOS>BOND
     1     1     2   ar
     2     2     3   ar
     3     3     4   ar
     4     4     5    1
     5     5     6    2
     6     6     7    1
     7     7     8    1
     8     8     9   ar
     9     9    10   ar
    10    10    11   ar
    11    11    12   ar
    12    12    13   ar
    13     8    13   ar
    14     5    14    1
    15    14    15   ar
    16    15    16   ar
    17    16    17   ar
    18    17    18   ar
    19    18    19   ar
    20    14    19   ar
    21     4    20   ar
    22    20    21   ar
    23     1    21   ar
    24     7    22    1
    25     1    23    1
    26     2    24    1
    27     3    25    1
    28     9    26    1
    29    10    27    1
    30    11    28    1
    31    12    29    1
    32    15    30    1
    33    16    31    1
    34    17    32    1
    35    18    33    1
    36    20    34    1
    37    21    35    1
@<TRIPOS>MOLECULE
mol32_1_3
 35 37 0 0 0
SMALL
USER_CHARGES
****
VDW energy = 53.51
@<TRIPOS>ATOM
   1 C1        1.4617   -10.1611    -4.6036  C.ar    1  <O>11      -0.0617
   2 C2        0.8050   -10.8783    -3.6012  C.ar    1  <O>11      -0.0611
   3 C3       -0.5391   -11.2290    -3.7692  C.ar    1  <O>11      -0.0524
   4 C4       -1.2224   -10.8607    -4.9311  C.ar    1  <O>11       0.0039
   5 C5       -2.6120   -11.2220    -5.1120  C.2     1  <O>11       0.1142
   6 N1       -3.5962   -10.3814    -4.6815  N.2     1  <O>11      -0.1787
   7 N2       -3.2766    -9.2195    -4.0912  N.pl3   1  <O>11      -0.2204
   8 C6       -4.3238    -8.3260    -3.6334  C.ar    1  <O>11       0.1380
   9 C7       -4.8228    -8.4590    -2.3111  C.ar    1  <O>11      -0.0203
  10 C8       -5.8206    -7.5898    -1.8756  C.ar    1  <O>11      -0.0570
  11 C9       -6.3096    -6.6350    -2.7752  C.ar    1  <O>11      -0.0435
  12 C10      -5.7739    -6.5626    -4.0603  C.ar    1  <O>11       0.0297
  13 N3       -4.8008    -7.3900    -4.4711  N.ar    1  <O>11      -0.2389
  14 C11      -2.9598   -12.4836    -5.7525  C.ar    1  <O>11       0.0912
  15 C12      -3.1289   -12.5245    -7.1618  C.ar    1  <O>11      -0.0341
  16 C13      -3.4521   -13.7355    -7.7673  C.ar    1  <O>11      -0.0583
  17 C14      -3.6217   -14.8622    -6.9527  C.ar    1  <O>11      -0.0436
  18 C15      -3.4417   -14.7497    -5.5742  C.ar    1  <O>11       0.0283
  19 N4       -3.1144   -13.5833    -4.9959  N.ar    1  <O>11      -0.2534
  20 C16      -0.5527   -10.1366    -5.9237  C.ar    1  <O>11      -0.0524
  21 C17       0.7874    -9.7806    -5.7650  C.ar    1  <O>11      -0.0611
  22 H1       -2.2965    -8.9652    -3.9638  H       1  <O>11       0.1760
  23 H2        2.4555    -9.9099    -4.4844  H       1  <O>11       0.0618
  24 H3        1.3082   -11.1481    -2.7415  H       1  <O>11       0.0618
  25 H4       -1.0275   -11.7615    -3.0324  H       1  <O>11       0.0624
  26 H5       -4.4522    -9.1884    -1.6822  H       1  <O>11       0.0652
  27 H6       -6.1901    -7.6482    -0.9138  H       1  <O>11       0.0619
  28 H7       -7.0617    -5.9889    -2.4889  H       1  <O>11       0.0633
  29 H8       -6.1364    -5.8518    -4.7148  H       1  <O>11       0.0830
  30 H9       -3.0140   -11.6696    -7.7283  H       1  <O>11       0.0639
  31 H10      -3.5640   -13.8015    -8.7911  H       1  <O>11       0.0619
  32 H11      -3.8783   -15.7704    -7.3702  H       1  <O>11       0.0633
  33 H12      -3.5635   -15.5863    -4.9824  H       1  <O>11       0.0830
  34 H13      -1.0552    -9.8628    -6.7825  H       1  <O>11       0.0624
  35 H14       1.2744    -9.2420    -6.4983  H       1  <O>11       0.0618
@<TRIPOS>BOND
     1     1     2   ar
     2     2     3   ar
     3     3     4   ar
     4     4     5    1
     5     5     6    2
     6     6     7    1
     7     7     8    1
     8     8     9   ar
     9     9    10   ar
    10    10    11   ar
    11    11    12   ar
    12    12    13   ar
    13     8    13   ar
    14     5    14    1
    15    14    15   ar
    16    15    16   ar
    17    16    17   ar
    18    17    18   ar
    19    18    19   ar
    20    14    19   ar
    21     4    20   ar
    22    20    21   ar
    23     1    21   ar
    24     7    22    1
    25     1    23    1
    26     2    24    1
    27     3    25    1
    28     9    26    1
    29    10    27    1
    30    11    28    1
    31    12    29    1
    32    15    30    1
    33    16    31    1
    34    17    32    1
    35    18    33    1
    36    20    34    1
    37    21    35    1
@<TRIPOS>MOLECULE
mol32_1_4
 35 37 0 0 0
SMALL
USER_CHARGES
****
VDW energy = 54.48
@<TRIPOS>ATOM
   1 C1        1.4617   -10.1611    -4.6036  C.ar    1  <O>11      -0.0617
   2 C2        0.8050   -10.8783    -3.6012  C.ar    1  <O>11      -0.0611
   3 C3       -0.5391   -11.2290    -3.7692  C.ar    1  <O>11      -0.0524
   4 C4       -1.2224   -10.8607    -4.9311  C.ar    1  <O>11       0.0039
   5 C5       -2.6120   -11.2220    -5.1120  C.2     1  <O>11       0.1142
   6 N1       -3.5962   -10.3814    -4.6815  N.2     1  <O>11      -0.1787
   7 N2       -3.2766    -9.2195    -4.0912  N.pl3   1  <O>11      -0.2204
   8 C6       -4.3238    -8.3260    -3.6334  C.ar    1  <O>11       0.1380
   9 C7       -4.4777    -7.0588    -4.2545  C.ar    1  <O>11      -0.0203
  10 C8       -5.4929    -6.2113    -3.8165  C.ar    1  <O>11      -0.0570
  11 C9       -6.3046    -6.6377    -2.7585  C.ar    1  <O>11      -0.0435
  12 C10      -6.0951    -7.8952    -2.1941  C.ar    1  <O>11       0.0297
  13 N3       -5.1275    -8.7163    -2.6298  N.ar    1  <O>11      -0.2389
  14 C11      -2.9598   -12.4836    -5.7525  C.ar    1  <O>11       0.0912
  15 C12      -3.7297   -12.4686    -6.9456  C.ar    1  <O>11      -0.0341
  16 C13      -4.0501   -13.6777    -7.5565  C.ar    1  <O>11      -0.0583
  17 C14      -3.6177   -14.8642    -6.9509  C.ar    1  <O>11      -0.0436
  18 C15      -2.8658   -14.8052    -5.7776  C.ar    1  <O>11       0.0283
  19 N4       -2.5455   -13.6364    -5.2002  N.ar    1  <O>11      -0.2534
  20 C16      -0.5527   -10.1366    -5.9237  C.ar    1  <O>11      -0.0524
  21 C17       0.7874    -9.7806    -5.7650  C.ar    1  <O>11      -0.0611
  22 H1       -2.2965    -8.9652    -3.9638  H       1  <O>11       0.1760
  23 H2        2.4555    -9.9099    -4.4844  H       1  <O>11       0.0618
  24 H3        1.3082   -11.1481    -2.7415  H       1  <O>11       0.0618
  25 H4       -1.0275   -11.7615    -3.0324  H       1  <O>11       0.0624
  26 H5       -3.8472    -6.7699    -5.0186  H       1  <O>11       0.0652
  27 H6       -5.6429    -5.2921    -4.2609  H       1  <O>11       0.0619
  28 H7       -7.0532    -6.0252    -2.3987  H       1  <O>11       0.0633
  29 H8       -6.7020    -8.2035    -1.4185  H       1  <O>11       0.0830
  30 H9       -4.0468   -11.5753    -7.3534  H       1  <O>11       0.0639
  31 H10      -4.5928   -13.6992    -8.4341  H       1  <O>11       0.0619
  32 H11      -3.8540   -15.7770    -7.3704  H       1  <O>11       0.0633
  33 H12      -2.5470   -15.6843    -5.3412  H       1  <O>11       0.0830
  34 H13      -1.0552    -9.8628    -6.7825  H       1  <O>11       0.0624
  35 H14       1.2744    -9.2420    -6.4983  H       1  <O>11       0.0618
@<TRIPOS>BOND
     1     1     2   ar
     2     2     3   ar
     3     3     4   ar
     4     4     5    1
     5     5     6    2
     6     6     7    1
     7     7     8    1
     8     8     9   ar
     9     9    10   ar
    10    10    11   ar
    11    11    12   ar
    12    12    13   ar
    13     8    13   ar
    14     5    14    1
    15    14    15   ar
    16    15    16   ar
    17    16    17   ar
    18    17    18   ar
    19    18    19   ar
    20    14    19   ar
    21     4    20   ar
    22    20    21   ar
    23     1    21   ar
    24     7    22    1
    25     1    23    1
    26     2    24    1
    27     3    25    1
    28     9    26    1
    29    10    27    1
    30    11    28    1
    31    12    29    1
    32    15    30    1
    33    16    31    1
    34    17    32    1
    35    18    33    1
    36    20    34    1
    37    21    35    1
@<TRIPOS>MOLECULE
mol32_1_5
 35 37 0 0 0
SMALL
USER_CHARGES
****
VDW energy = 54.50
@<TRIPOS>ATOM
   1 C1        1.4617   -10.1611    -4.6036  C.ar    1  <O>11      -0.0617
   2 C2        0.8050   -10.8783    -3.6012  C.ar    1  <O>11      -0.0611
   3 C3       -0.5391   -11.2290    -3.7692  C.ar    1  <O>11      -0.0524
   4 C4       -1.2224   -10.8607    -4.9311  C.ar    1  <O>11       0.0039
   5 C5       -2.6120   -11.2220    -5.1120  C.2     1  <O>11       0.1142
   6 N1       -3.5962   -10.3814    -4.6815  N.2     1  <O>11      -0.1787
   7 N2       -3.2766    -9.2195    -4.0912  N.pl3   1  <O>11      -0.2204
   8 C6       -4.3238    -8.3260    -3.6334  C.ar    1  <O>11       0.1380
   9 C7       -4.4721    -8.0830    -2.2427  C.ar    1  <O>11      -0.0203
  10 C8       -5.4730    -7.2149    -1.8122  C.ar    1  <O>11      -0.0570
  11 C9       -6.3114    -6.6379    -2.7735  C.ar    1  <O>11      -0.0435
  12 C10      -6.1091    -6.9233    -4.1231  C.ar    1  <O>11       0.0297
  13 N3       -5.1331    -7.7463    -4.5359  N.ar    1  <O>11      -0.2389
  14 C11      -2.9598   -12.4836    -5.7525  C.ar    1  <O>11       0.0912
  15 C12      -3.7241   -13.4406    -5.0339  C.ar    1  <O>11      -0.0341
  16 C13      -4.0602   -14.6398    -5.6560  C.ar    1  <O>11      -0.0583
  17 C14      -3.6061   -14.8617    -6.9622  C.ar    1  <O>11      -0.0436
  18 C15      -2.8574   -13.8781    -7.6083  C.ar    1  <O>11       0.0283
  19 N4       -2.5490   -12.7164    -7.0105  N.ar    1  <O>11      -0.2534
  20 C16      -0.5527   -10.1366    -5.9237  C.ar    1  <O>11      -0.0524
  21 C17       0.7874    -9.7806    -5.7650  C.ar    1  <O>11      -0.0611
  22 H1       -2.2965    -8.9652    -3.9638  H       1  <O>11       0.1760
  23 H2        2.4555    -9.9099    -4.4844  H       1  <O>11       0.0618
  24 H3        1.3082   -11.1481    -2.7415  H       1  <O>11       0.0618
  25 H4       -1.0275   -11.7615    -3.0324  H       1  <O>11       0.0624
  26 H5       -3.8480    -8.5422    -1.5611  H       1  <O>11       0.0652
  27 H6       -5.5935    -7.0025    -0.8094  H       1  <O>11       0.0619
  28 H7       -7.0741    -6.0053    -2.4851  H       1  <O>11       0.0633
  29 H8       -6.7282    -6.4889    -4.8252  H       1  <O>11       0.0830
  30 H9       -4.0258   -13.2501    -4.0656  H       1  <O>11       0.0639
  31 H10      -4.6298   -15.3477    -5.1667  H       1  <O>11       0.0619
  32 H11      -3.8242   -15.7479    -7.4438  H       1  <O>11       0.0633
  33 H12      -2.5315   -14.0481    -8.5726  H       1  <O>11       0.0830
  34 H13      -1.0552    -9.8628    -6.7825  H       1  <O>11       0.0624
  35 H14       1.2744    -9.2420    -6.4983  H       1  <O>11       0.0618
@<TRIPOS>BOND
     1     1     2   ar
     2     2     3   ar
     3     3     4   ar
     4     4     5    1
     5     5     6    2
     6     6     7    1
     7     7     8    1
     8     8     9   ar
     9     9    10   ar
    10    10    11   ar
    11    11    12   ar
    12    12    13   ar
    13     8    13   ar
    14     5    14    1
    15    14    15   ar
    16    15    16   ar
    17    16    17   ar
    18    17    18   ar
    19    18    19   ar
    20    14    19   ar
    21     4    20   ar
    22    20    21   ar
    23     1    21   ar
    24     7    22    1
    25     1    23    1
    26     2    24    1
    27     3    25    1
    28     9    26    1
    29    10    27    1
    30    11    28    1
    31    12    29    1
    32    15    30    1
    33    16    31    1
    34    17    32    1
    35    18    33    1
    36    20    34    1
    37    21    35    1
@<TRIPOS>MOLECULE
mol32_1_6
 35 37 0 0 0
SMALL
USER_CHARGES
****
VDW energy = 55.44
@<TRIPOS>ATOM
   1 C1        1.4617   -10.1611    -4.6036  C.ar    1  <O>11      -0.0617
   2 C2        0.8050   -10.8783    -3.6012  C.ar    1  <O>11      -0.0611
   3 C3       -0.5391   -11.2290    -3.7692  C.ar    1  <O>11      -0.0524
   4 C4       -1.2224   -10.8607    -4.9311  C.ar    1  <O>11       0.0039
   5 C5       -2.6120   -11.2220    -5.1120  C.2     1  <O>11       0.1142
   6 N1       -2.9363   -12.4028    -5.7128  N.2     1  <O>11      -0.1787
   7 N2       -1.9678   -13.2298    -6.1355  N.pl3   1  <O>11      -0.2204
   8 C6       -2.3134   -14.4855    -6.7746  C.ar    1  <O>11       0.1380
   9 C7       -1.9882   -14.6825    -8.1422  C.ar    1  <O>11      -0.0203
  10 C8       -2.3135   -15.8954    -8.7454  C.ar    1  <O>11      -0.0570
  11 C9       -2.9753   -16.8624    -7.9794  C.ar    1  <O>11      -0.0435
  12 C10      -3.2654   -16.5998    -6.6412  C.ar    1  <O>11       0.0297
  13 N3       -2.9352   -15.4372    -6.0584  N.ar    1  <O>11      -0.2389
  14 C11      -3.6642   -10.3244    -4.6538  C.ar    1  <O>11       0.0912
  15 C12      -4.1649   -10.4577    -3.3317  C.ar    1  <O>11      -0.0341
  16 C13      -5.1637    -9.5904    -2.8983  C.ar    1  <O>11      -0.0583
  17 C14      -5.6515    -8.6346    -3.7984  C.ar    1  <O>11      -0.0436
  18 C15      -5.1147    -8.5608    -5.0836  C.ar    1  <O>11       0.0283
  19 N4       -4.1404    -9.3887    -5.4924  N.ar    1  <O>11      -0.2534
  20 C16      -0.5527   -10.1366    -5.9237  C.ar    1  <O>11      -0.0524
  21 C17       0.7874    -9.7806    -5.7650  C.ar    1  <O>11      -0.0611
  22 H1       -0.9880   -12.9745    -6.0077  H       1  <O>11       0.1760
  23 H2        2.4555    -9.9099    -4.4844  H       1  <O>11       0.0618
  24 H3        1.3082   -11.1481    -2.7415  H       1  <O>11       0.0618
  25 H4       -1.0275   -11.7615    -3.0324  H       1  <O>11       0.0624
  26 H5       -1.5180   -13.9387    -8.6814  H       1  <O>11       0.0652
  27 H6       -2.0726   -16.0765    -9.7325  H       1  <O>11       0.0619
  28 H7       -3.2465   -17.7638    -8.4024  H       1  <O>11       0.0633
  29 H8       -3.7482   -17.3208    -6.0826  H       1  <O>11       0.0830
  30 H9       -3.7941   -11.1863    -2.7019  H       1  <O>11       0.0639
  31 H10      -5.5356    -9.6501    -1.9374  H       1  <O>11       0.0619
  32 H11      -6.4038    -7.9887    -3.5123  H       1  <O>11       0.0633
  33 H12      -5.4766    -7.8499    -5.7384  H       1  <O>11       0.0830
  34 H13      -1.0552    -9.8628    -6.7825  H       1  <O>11       0.0624
  35 H14       1.2744    -9.2420    -6.4983  H       1  <O>11       0.0618
@<TRIPOS>BOND
     1     1     2   ar
     2     2     3   ar
     3     3     4   ar
     4     4     5    1
     5     5     6    2
     6     6     7    1
     7     7     8    1
     8     8     9   ar
     9     9    10   ar
    10    10    11   ar
    11    11    12   ar
    12    12    13   ar
    13     8    13   ar
    14     5    14    1
    15    14    15   ar
    16    15    16   ar
    17    16    17   ar
    18    17    18   ar
    19    18    19   ar
    20    14    19   ar
    21     4    20   ar
    22    20    21   ar
    23     1    21   ar
    24     7    22    1
    25     1    23    1
    26     2    24    1
    27     3    25    1
    28     9    26    1
    29    10    27    1
    30    11    28    1
    31    12    29    1
    32    15    30    1
    33    16    31    1
    34    17    32    1
    35    18    33    1
    36    20    34    1
    37    21    35    1
@<TRIPOS>MOLECULE
mol32_1_7
 35 37 0 0 0
SMALL
USER_CHARGES
****
VDW energy = 55.44
@<TRIPOS>ATOM
   1 C1        1.4617   -10.1611    -4.6036  C.ar    1  <O>11      -0.0617
   2 C2        0.8050   -10.8783    -3.6012  C.ar    1  <O>11      -0.0611
   3 C3       -0.5391   -11.2290    -3.7692  C.ar    1  <O>11      -0.0524
   4 C4       -1.2224   -10.8607    -4.9311  C.ar    1  <O>11       0.0039
   5 C5       -2.6120   -11.2220    -5.1120  C.2     1  <O>11       0.1142
   6 N1       -3.5962   -10.3814    -4.6815  N.2     1  <O>11      -0.1787
   7 N2       -3.2766    -9.2195    -4.0912  N.pl3   1  <O>11      -0.2204
   8 C6       -4.3238    -8.3260    -3.6334  C.ar    1  <O>11       0.1380
   9 C7       -4.4721    -8.0830    -2.2427  C.ar    1  <O>11      -0.0203
  10 C8       -5.4730    -7.2149    -1.8122  C.ar    1  <O>11      -0.0570
  11 C9       -6.3114    -6.6379    -2.7735  C.ar    1  <O>11      -0.0435
  12 C10      -6.1091    -6.9233    -4.1231  C.ar    1  <O>11       0.0297
  13 N3       -5.1331    -7.7463    -4.5359  N.ar    1  <O>11      -0.2389
  14 C11      -2.9598   -12.4836    -5.7525  C.ar    1  <O>11       0.0912
  15 C12      -3.1289   -12.5245    -7.1618  C.ar    1  <O>11      -0.0341
  16 C13      -3.4521   -13.7355    -7.7673  C.ar    1  <O>11      -0.0583
  17 C14      -3.6217   -14.8622    -6.9527  C.ar    1  <O>11      -0.0436
  18 C15      -3.4417   -14.7497    -5.5742  C.ar    1  <O>11       0.0283
  19 N4       -3.1144   -13.5833    -4.9959  N.ar    1  <O>11      -0.2534
  20 C16      -0.5527   -10.1366    -5.9237  C.ar    1  <O>11      -0.0524
  21 C17       0.7874    -9.7806    -5.7650  C.ar    1  <O>11      -0.0611
  22 H1       -2.2965    -8.9652    -3.9638  H       1  <O>11       0.1760
  23 H2        2.4555    -9.9099    -4.4844  H       1  <O>11       0.0618
  24 H3        1.3082   -11.1481    -2.7415  H       1  <O>11       0.0618
  25 H4       -1.0275   -11.7615    -3.0324  H       1  <O>11       0.0624
  26 H5       -3.8480    -8.5422    -1.5611  H       1  <O>11       0.0652
  27 H6       -5.5935    -7.0025    -0.8094  H       1  <O>11       0.0619
  28 H7       -7.0741    -6.0053    -2.4851  H       1  <O>11       0.0633
  29 H8       -6.7282    -6.4889    -4.8252  H       1  <O>11       0.0830
  30 H9       -3.0140   -11.6696    -7.7283  H       1  <O>11       0.0639
  31 H10      -3.5640   -13.8015    -8.7911  H       1  <O>11       0.0619
  32 H11      -3.8783   -15.7704    -7.3702  H       1  <O>11       0.0633
  33 H12      -3.5635   -15.5863    -4.9824  H       1  <O>11       0.0830
  34 H13      -1.0552    -9.8628    -6.7825  H       1  <O>11       0.0624
  35 H14       1.2744    -9.2420    -6.4983  H       1  <O>11       0.0618
@<TRIPOS>BOND
     1     1     2   ar
     2     2     3   ar
     3     3     4   ar
     4     4     5    1
     5     5     6    2
     6     6     7    1
     7     7     8    1
     8     8     9   ar
     9     9    10   ar
    10    10    11   ar
    11    11    12   ar
    12    12    13   ar
    13     8    13   ar
    14     5    14    1
    15    14    15   ar
    16    15    16   ar
    17    16    17   ar
    18    17    18   ar
    19    18    19   ar
    20    14    19   ar
    21     4    20   ar
    22    20    21   ar
    23     1    21   ar
    24     7    22    1
    25     1    23    1
    26     2    24    1
    27     3    25    1
    28     9    26    1
    29    10    27    1
    30    11    28    1
    31    12    29    1
    32    15    30    1
    33    16    31    1
    34    17    32    1
    35    18    33    1
    36    20    34    1
    37    21    35    1
@<TRIPOS>MOLECULE
mol32_1_8
 35 37 0 0 0
SMALL
USER_CHARGES
****
VDW energy = 55.45
@<TRIPOS>ATOM
   1 C1        1.4617   -10.1611    -4.6036  C.ar    1  <O>11      -0.0617
   2 C2        0.8050   -10.8783    -3.6012  C.ar    1  <O>11      -0.0611
   3 C3       -0.5391   -11.2290    -3.7692  C.ar    1  <O>11      -0.0524
   4 C4       -1.2224   -10.8607    -4.9311  C.ar    1  <O>11       0.0039
   5 C5       -2.6120   -11.2220    -5.1120  C.2     1  <O>11       0.1142
   6 N1       -3.5962   -10.3814    -4.6815  N.2     1  <O>11      -0.1787
   7 N2       -3.2766    -9.2195    -4.0912  N.pl3   1  <O>11      -0.2204
   8 C6       -4.3238    -8.3260    -3.6334  C.ar    1  <O>11       0.1380
   9 C7       -4.4777    -7.0588    -4.2545  C.ar    1  <O>11      -0.0203
  10 C8       -5.4929    -6.2113    -3.8165  C.ar    1  <O>11      -0.0570
  11 C9       -6.3046    -6.6377    -2.7585  C.ar    1  <O>11      -0.0435
  12 C10      -6.0951    -7.8952    -2.1941  C.ar    1  <O>11       0.0297
  13 N3       -5.1275    -8.7163    -2.6298  N.ar    1  <O>11      -0.2389
  14 C11      -2.9598   -12.4836    -5.7525  C.ar    1  <O>11       0.0912
  15 C12      -3.1225   -13.6468    -4.9544  C.ar    1  <O>11      -0.0341
  16 C13      -3.4638   -14.8464    -5.5727  C.ar    1  <O>11      -0.0583
  17 C14      -3.6083   -14.8592    -6.9658  C.ar    1  <O>11      -0.0436
  18 C15      -3.4320   -13.6792    -7.6881  C.ar    1  <O>11       0.0283
  19 N4       -3.1185   -12.5210    -7.0862  N.ar    1  <O>11      -0.2534
  20 C16      -0.5527   -10.1366    -5.9237  C.ar    1  <O>11      -0.0524
  21 C17       0.7874    -9.7806    -5.7650  C.ar    1  <O>11      -0.0611
  22 H1       -2.2965    -8.9652    -3.9638  H       1  <O>11       0.1760
  23 H2        2.4555    -9.9099    -4.4844  H       1  <O>11       0.0618
  24 H3        1.3082   -11.1481    -2.7415  H       1  <O>11       0.0618
  25 H4       -1.0275   -11.7615    -3.0324  H       1  <O>11       0.0624
  26 H5       -3.8472    -6.7699    -5.0186  H       1  <O>11       0.0652
  27 H6       -5.6429    -5.2921    -4.2609  H       1  <O>11       0.0619
  28 H7       -7.0532    -6.0252    -2.3987  H       1  <O>11       0.0633
  29 H8       -6.7020    -8.2035    -1.4185  H       1  <O>11       0.0830
  30 H9       -2.9898   -13.6036    -3.9319  H       1  <O>11       0.0639
  31 H10      -3.6068   -15.7050    -5.0183  H       1  <O>11       0.0619
  32 H11      -3.8440   -15.7369    -7.4549  H       1  <O>11       0.0633
  33 H12      -3.5457   -13.6970    -8.7137  H       1  <O>11       0.0830
  34 H13      -1.0552    -9.8628    -6.7825  H       1  <O>11       0.0624
  35 H14       1.2744    -9.2420    -6.4983  H       1  <O>11       0.0618
@<TRIPOS>BOND
     1     1     2   ar
     2     2     3   ar
     3     3     4   ar
     4     4     5    1
     5     5     6    2
     6     6     7    1
     7     7     8    1
     8     8     9   ar
     9     9    10   ar
    10    10    11   ar
    11    11    12   ar
    12    12    13   ar
    13     8    13   ar
    14     5    14    1
    15    14    15   ar
    16    15    16   ar
    17    16    17   ar
    18    17    18   ar
    19    18    19   ar
    20    14    19   ar
    21     4    20   ar
    22    20    21   ar
    23     1    21   ar
    24     7    22    1
    25     1    23    1
    26     2    24    1
    27     3    25    1
    28     9    26    1
    29    10    27    1
    30    11    28    1
    31    12    29    1
    32    15    30    1
    33    16    31    1
    34    17    32    1
    35    18    33    1
    36    20    34    1
    37    21    35    1
@<TRIPOS>MOLECULE
mol32_1_9
 35 37 0 0 0
SMALL
USER_CHARGES
****
VDW energy = 56.18
@<TRIPOS>ATOM
   1 C1        1.4617   -10.1611    -4.6036  C.ar    1  <O>11      -0.0617
   2 C2        0.8050   -10.8783    -3.6012  C.ar    1  <O>11      -0.0611
   3 C3       -0.5391   -11.2290    -3.7692  C.ar    1  <O>11      -0.0524
   4 C4       -1.2224   -10.8607    -4.9311  C.ar    1  <O>11       0.0039
   5 C5       -2.6120   -11.2220    -5.1120  C.2     1  <O>11       0.1142
   6 N1       -3.5962   -10.3814    -4.6815  N.2     1  <O>11      -0.1787
   7 N2       -3.2766    -9.2195    -4.0912  N.pl3   1  <O>11      -0.2204
   8 C6       -4.3238    -8.3260    -3.6334  C.ar    1  <O>11       0.1380
   9 C7       -4.4721    -8.0830    -2.2427  C.ar    1  <O>11      -0.0203
  10 C8       -5.4730    -7.2149    -1.8122  C.ar    1  <O>11      -0.0570
  11 C9       -6.3114    -6.6379    -2.7735  C.ar    1  <O>11      -0.0435
  12 C10      -6.1091    -6.9233    -4.1231  C.ar    1  <O>11       0.0297
  13 N3       -5.1331    -7.7463    -4.5359  N.ar    1  <O>11      -0.2389
  14 C11      -2.9598   -12.4836    -5.7525  C.ar    1  <O>11       0.0912
  15 C12      -3.1225   -13.6468    -4.9544  C.ar    1  <O>11      -0.0341
  16 C13      -3.4638   -14.8464    -5.5727  C.ar    1  <O>11      -0.0583
  17 C14      -3.6083   -14.8592    -6.9658  C.ar    1  <O>11      -0.0436
  18 C15      -3.4320   -13.6792    -7.6881  C.ar    1  <O>11       0.0283
  19 N4       -3.1185   -12.5210    -7.0862  N.ar    1  <O>11      -0.2534
  20 C16      -0.5527   -10.1366    -5.9237  C.ar    1  <O>11      -0.0524
  21 C17       0.7874    -9.7806    -5.7650  C.ar    1  <O>11      -0.0611
  22 H1       -2.2965    -8.9652    -3.9638  H       1  <O>11       0.1760
  23 H2        2.4555    -9.9099    -4.4844  H       1  <O>11       0.0618
  24 H3        1.3082   -11.1481    -2.7415  H       1  <O>11       0.0618
  25 H4       -1.0275   -11.7615    -3.0324  H       1  <O>11       0.0624
  26 H5       -3.8480    -8.5422    -1.5611  H       1  <O>11       0.0652
  27 H6       -5.5935    -7.0025    -0.8094  H       1  <O>11       0.0619
  28 H7       -7.0741    -6.0053    -2.4851  H       1  <O>11       0.0633
  29 H8       -6.7282    -6.4889    -4.8252  H       1  <O>11       0.0830
  30 H9       -2.9898   -13.6036    -3.9319  H       1  <O>11       0.0639
  31 H10      -3.6068   -15.7050    -5.0183  H       1  <O>11       0.0619
  32 H11      -3.8440   -15.7369    -7.4549  H       1  <O>11       0.0633
  33 H12      -3.5457   -13.6970    -8.7137  H       1  <O>11       0.0830
  34 H13      -1.0552    -9.8628    -6.7825  H       1  <O>11       0.0624
  35 H14       1.2744    -9.2420    -6.4983  H       1  <O>11       0.0618
@<TRIPOS>BOND
     1     1     2   ar
     2     2     3   ar
     3     3     4   ar
     4     4     5    1
     5     5     6    2
     6     6     7    1
     7     7     8    1
     8     8     9   ar
     9     9    10   ar
    10    10    11   ar
    11    11    12   ar
    12    12    13   ar
    13     8    13   ar
    14     5    14    1
    15    14    15   ar
    16    15    16   ar
    17    16    17   ar
    18    17    18   ar
    19    18    19   ar
    20    14    19   ar
    21     4    20   ar
    22    20    21   ar
    23     1    21   ar
    24     7    22    1
    25     1    23    1
    26     2    24    1
    27     3    25    1
    28     9    26    1
    29    10    27    1
    30    11    28    1
    31    12    29    1
    32    15    30    1
    33    16    31    1
    34    17    32    1
    35    18    33    1
    36    20    34    1
    37    21    35    1
@<TRIPOS>MOLECULE
mol32_1_10
 35 37 0 0 0
SMALL
USER_CHARGES
****
VDW energy = 59.25
@<TRIPOS>ATOM
   1 C1        1.4617   -10.1611    -4.6036  C.ar    1  <O>11      -0.0617
   2 C2        0.8050   -10.8783    -3.6012  C.ar    1  <O>11      -0.0611
   3 C3       -0.5391   -11.2290    -3.7692  C.ar    1  <O>11      -0.0524
   4 C4       -1.2224   -10.8607    -4.9311  C.ar    1  <O>11       0.0039
   5 C5       -2.6120   -11.2220    -5.1120  C.2     1  <O>11       0.1142
   6 N1       -2.9363   -12.4028    -5.7128  N.2     1  <O>11      -0.1787
   7 N2       -1.9678   -13.2298    -6.1355  N.pl3   1  <O>11      -0.2204
   8 C6       -2.3134   -14.4855    -6.7746  C.ar    1  <O>11       0.1380
   9 C7       -3.3845   -15.2586    -6.2550  C.ar    1  <O>11      -0.0203
  10 C8       -3.7173   -16.4577    -6.8813  C.ar    1  <O>11      -0.0570
  11 C9       -2.9589   -16.8636    -7.9859  C.ar    1  <O>11      -0.0435
  12 C10      -1.9189   -16.0544    -8.4411  C.ar    1  <O>11       0.0297
  13 N3       -1.6119   -14.8915    -7.8462  N.ar    1  <O>11      -0.2389
  14 C11      -3.6642   -10.3244    -4.6538  C.ar    1  <O>11       0.0912
  15 C12      -3.4557    -9.5494    -3.4823  C.ar    1  <O>11      -0.0341
  16 C13      -4.4621    -8.6874    -3.0561  C.ar    1  <O>11      -0.0583
  17 C14      -5.6531    -8.6400    -3.7915  C.ar    1  <O>11      -0.0436
  18 C15      -5.7908    -9.4306    -4.9323  C.ar    1  <O>11       0.0283
  19 N4       -4.8116   -10.2488    -5.3489  N.ar    1  <O>11      -0.2534
  20 C16      -0.5527   -10.1366    -5.9237  C.ar    1  <O>11      -0.0524
  21 C17       0.7874    -9.7806    -5.7650  C.ar    1  <O>11      -0.0611
  22 H1       -0.9880   -12.9745    -6.0077  H       1  <O>11       0.1760
  23 H2        2.4555    -9.9099    -4.4844  H       1  <O>11       0.0618
  24 H3        1.3082   -11.1481    -2.7415  H       1  <O>11       0.0618
  25 H4       -1.0275   -11.7615    -3.0324  H       1  <O>11       0.0624
  26 H5       -3.9086   -14.9375    -5.4260  H       1  <O>11       0.0652
  27 H6       -4.5034   -17.0325    -6.5395  H       1  <O>11       0.0619
  28 H7       -3.1684   -17.7559    -8.4601  H       1  <O>11       0.0633
  29 H8       -1.3689   -16.3587    -9.2596  H       1  <O>11       0.0830
  30 H9       -2.5717    -9.6242    -2.9550  H       1  <O>11       0.0639
  31 H10      -4.3338    -8.0977    -2.2188  H       1  <O>11       0.0619
  32 H11      -6.4244    -8.0236    -3.4911  H       1  <O>11       0.0633
  33 H12      -6.6699    -9.3852    -5.4710  H       1  <O>11       0.0830
  34 H13      -1.0552    -9.8628    -6.7825  H       1  <O>11       0.0624
  35 H14       1.2744    -9.2420    -6.4983  H       1  <O>11       0.0618
@<TRIPOS>BOND
     1     1     2   ar
     2     2     3   ar
     3     3     4   ar
     4     4     5    1
     5     5     6    2
     6     6     7    1
     7     7     8    1
     8     8     9   ar
     9     9    10   ar
    10    10    11   ar
    11    11    12   ar
    12    12    13   ar
    13     8    13   ar
    14     5    14    1
    15    14    15   ar
    16    15    16   ar
    17    16    17   ar
    18    17    18   ar
    19    18    19   ar
    20    14    19   ar
    21     4    20   ar
    22    20    21   ar
    23     1    21   ar
    24     7    22    1
    25     1    23    1
    26     2    24    1
    27     3    25    1
    28     9    26    1
    29    10    27    1
    30    11    28    1
    31    12    29    1
    32    15    30    1
    33    16    31    1
    34    17    32    1
    35    18    33    1
    36    20    34    1
    37    21    35    1
@<TRIPOS>MOLECULE
mol32_1_11
 35 37 0 0 0
SMALL
USER_CHARGES
****
VDW energy = 61.07
@<TRIPOS>ATOM
   1 C1        1.4617   -10.1611    -4.6036  C.ar    1  <O>11      -0.0617
   2 C2        0.8050   -10.8783    -3.6012  C.ar    1  <O>11      -0.0611
   3 C3       -0.5391   -11.2290    -3.7692  C.ar    1  <O>11      -0.0524
   4 C4       -1.2224   -10.8607    -4.9311  C.ar    1  <O>11       0.0039
   5 C5       -2.6120   -11.2220    -5.1120  C.2     1  <O>11       0.1142
   6 N1       -2.9363   -12.4028    -5.7128  N.2     1  <O>11      -0.1787
   7 N2       -1.9678   -13.2298    -6.1355  N.pl3   1  <O>11      -0.2204
   8 C6       -2.3134   -14.4855    -6.7746  C.ar    1  <O>11       0.1380
   9 C7       -2.4810   -14.5257    -8.1836  C.ar    1  <O>11      -0.0203
  10 C8       -2.8018   -15.7378    -8.7908  C.ar    1  <O>11      -0.0570
  11 C9       -2.9728   -16.8642    -7.9772  C.ar    1  <O>11      -0.0435
  12 C10      -2.7944   -16.7509    -6.5991  C.ar    1  <O>11       0.0297
  13 N3       -2.4683   -15.5858    -6.0191  N.ar    1  <O>11      -0.2389
  14 C11      -3.6642   -10.3244    -4.6538  C.ar    1  <O>11       0.0912
  15 C12      -3.4557    -9.5494    -3.4823  C.ar    1  <O>11      -0.0341
  16 C13      -4.4621    -8.6874    -3.0561  C.ar    1  <O>11      -0.0583
  17 C14      -5.6531    -8.6400    -3.7915  C.ar    1  <O>11      -0.0436
  18 C15      -5.7908    -9.4306    -4.9323  C.ar    1  <O>11       0.0283
  19 N4       -4.8116   -10.2488    -5.3489  N.ar    1  <O>11      -0.2534
  20 C16      -0.5527   -10.1366    -5.9237  C.ar    1  <O>11      -0.0524
  21 C17       0.7874    -9.7806    -5.7650  C.ar    1  <O>11      -0.0611
  22 H1       -0.9880   -12.9745    -6.0077  H       1  <O>11       0.1760
  23 H2        2.4555    -9.9099    -4.4844  H       1  <O>11       0.0618
  24 H3        1.3082   -11.1481    -2.7415  H       1  <O>11       0.0618
  25 H4       -1.0275   -11.7615    -3.0324  H       1  <O>11       0.0624
  26 H5       -2.3669   -13.6703    -8.7495  H       1  <O>11       0.0652
  27 H6       -2.9108   -15.8038    -9.8149  H       1  <O>11       0.0619
  28 H7       -3.2291   -17.7725    -8.3947  H       1  <O>11       0.0633
  29 H8       -2.9167   -17.5878    -6.0077  H       1  <O>11       0.0830
  30 H9       -2.5717    -9.6242    -2.9550  H       1  <O>11       0.0639
  31 H10      -4.3338    -8.0977    -2.2188  H       1  <O>11       0.0619
  32 H11      -6.4244    -8.0236    -3.4911  H       1  <O>11       0.0633
  33 H12      -6.6699    -9.3852    -5.4710  H       1  <O>11       0.0830
  34 H13      -1.0552    -9.8628    -6.7825  H       1  <O>11       0.0624
  35 H14       1.2744    -9.2420    -6.4983  H       1  <O>11       0.0618
@<TRIPOS>BOND
     1     1     2   ar
     2     2     3   ar
     3     3     4   ar
     4     4     5    1
     5     5     6    2
     6     6     7    1
     7     7     8    1
     8     8     9   ar
     9     9    10   ar
    10    10    11   ar
    11    11    12   ar
    12    12    13   ar
    13     8    13   ar
    14     5    14    1
    15    14    15   ar
    16    15    16   ar
    17    16    17   ar
    18    17    18   ar
    19    18    19   ar
    20    14    19   ar
    21     4    20   ar
    22    20    21   ar
    23     1    21   ar
    24     7    22    1
    25     1    23    1
    26     2    24    1
    27     3    25    1
    28     9    26    1
    29    10    27    1
    30    11    28    1
    31    12    29    1
    32    15    30    1
    33    16    31    1
    34    17    32    1
    35    18    33    1
    36    20    34    1
    37    21    35    1
@<TRIPOS>MOLECULE
mol32_1_12
 35 37 0 0 0
SMALL
USER_CHARGES
****
VDW energy = 61.10
@<TRIPOS>ATOM
   1 C1        1.4617   -10.1611    -4.6036  C.ar    1  <O>11      -0.0617
   2 C2        0.8050   -10.8783    -3.6012  C.ar    1  <O>11      -0.0611
   3 C3       -0.5391   -11.2290    -3.7692  C.ar    1  <O>11      -0.0524
   4 C4       -1.2224   -10.8607    -4.9311  C.ar    1  <O>11       0.0039
   5 C5       -2.6120   -11.2220    -5.1120  C.2     1  <O>11       0.1142
   6 N1       -3.5962   -10.3814    -4.6815  N.2     1  <O>11      -0.1787
   7 N2       -3.2766    -9.2195    -4.0912  N.pl3   1  <O>11      -0.2204
   8 C6       -4.3238    -8.3260    -3.6334  C.ar    1  <O>11       0.1380
   9 C7       -4.8228    -8.4590    -2.3111  C.ar    1  <O>11      -0.0203
  10 C8       -5.8206    -7.5898    -1.8756  C.ar    1  <O>11      -0.0570
  11 C9       -6.3096    -6.6350    -2.7752  C.ar    1  <O>11      -0.0435
  12 C10      -5.7739    -6.5626    -4.0603  C.ar    1  <O>11       0.0297
  13 N3       -4.8008    -7.3900    -4.4711  N.ar    1  <O>11      -0.2389
  14 C11      -2.9598   -12.4836    -5.7525  C.ar    1  <O>11       0.0912
  15 C12      -2.1309   -12.9888    -6.7889  C.ar    1  <O>11      -0.0341
  16 C13      -2.4648   -14.1994    -7.3896  C.ar    1  <O>11      -0.0583
  17 C14      -3.6240   -14.8578    -6.9601  C.ar    1  <O>11      -0.0436
  18 C15      -4.3932   -14.3030    -5.9374  C.ar    1  <O>11       0.0283
  19 N4       -4.0590   -13.1433    -5.3498  N.ar    1  <O>11      -0.2534
  20 C16      -0.5527   -10.1366    -5.9237  C.ar    1  <O>11      -0.0524
  21 C17       0.7874    -9.7806    -5.7650  C.ar    1  <O>11      -0.0611
  22 H1       -2.2965    -8.9652    -3.9638  H       1  <O>11       0.1760
  23 H2        2.4555    -9.9099    -4.4844  H       1  <O>11       0.0618
  24 H3        1.3082   -11.1481    -2.7415  H       1  <O>11       0.0618
  25 H4       -1.0275   -11.7615    -3.0324  H       1  <O>11       0.0624
  26 H5       -4.4522    -9.1884    -1.6822  H       1  <O>11       0.0652
  27 H6       -6.1901    -7.6482    -0.9138  H       1  <O>11       0.0619
  28 H7       -7.0617    -5.9889    -2.4889  H       1  <O>11       0.0633
  29 H8       -6.1364    -5.8518    -4.7148  H       1  <O>11       0.0830
  30 H9       -1.2941   -12.4667    -7.0922  H       1  <O>11       0.0639
  31 H10      -1.8728   -14.6018    -8.1331  H       1  <O>11       0.0619
  32 H11      -3.9073   -15.7484    -7.3979  H       1  <O>11       0.0633
  33 H12      -5.2427   -14.7978    -5.6237  H       1  <O>11       0.0830
  34 H13      -1.0552    -9.8628    -6.7825  H       1  <O>11       0.0624
  35 H14       1.2744    -9.2420    -6.4983  H       1  <O>11       0.0618
@<TRIPOS>BOND
     1     1     2   ar
     2     2     3   ar
     3     3     4   ar
     4     4     5    1
     5     5     6    2
     6     6     7    1
     7     7     8    1
     8     8     9   ar
     9     9    10   ar
    10    10    11   ar
    11    11    12   ar
    12    12    13   ar
    13     8    13   ar
    14     5    14    1
    15    14    15   ar
    16    15    16   ar
    17    16    17   ar
    18    17    18   ar
    19    18    19   ar
    20    14    19   ar
    21     4    20   ar
    22    20    21   ar
    23     1    21   ar
    24     7    22    1
    25     1    23    1
    26     2    24    1
    27     3    25    1
    28     9    26    1
    29    10    27    1
    30    11    28    1
    31    12    29    1
    32    15    30    1
    33    16    31    1
    34    17    32    1
    35    18    33    1
    36    20    34    1
    37    21    35    1
@<TRIPOS>MOLECULE
mol32_1_13
 35 37 0 0 0
SMALL
USER_CHARGES
****
VDW energy = 61.63
@<TRIPOS>ATOM
   1 C1        1.4617   -10.1611    -4.6036  C.ar    1  <O>11      -0.0617
   2 C2        0.8050   -10.8783    -3.6012  C.ar    1  <O>11      -0.0611
   3 C3       -0.5391   -11.2290    -3.7692  C.ar    1  <O>11      -0.0524
   4 C4       -1.2224   -10.8607    -4.9311  C.ar    1  <O>11       0.0039
   5 C5       -2.6120   -11.2220    -5.1120  C.2     1  <O>11       0.1142
   6 N1       -2.9363   -12.4028    -5.7128  N.2     1  <O>11      -0.1787
   7 N2       -1.9678   -13.2298    -6.1355  N.pl3   1  <O>11      -0.2204
   8 C6       -2.3134   -14.4855    -6.7746  C.ar    1  <O>11       0.1380
   9 C7       -2.4773   -15.6492    -5.9784  C.ar    1  <O>11      -0.0203
  10 C8       -2.8203   -16.8486    -6.5986  C.ar    1  <O>11      -0.0570
  11 C9       -2.9625   -16.8599    -7.9913  C.ar    1  <O>11      -0.0435
  12 C10      -2.7846   -15.6789    -8.7106  C.ar    1  <O>11       0.0297
  13 N3       -2.4714   -14.5215    -8.1084  N.ar    1  <O>11      -0.2389
  14 C11      -3.6642   -10.3244    -4.6538  C.ar    1  <O>11       0.0912
  15 C12      -3.4557    -9.5494    -3.4823  C.ar    1  <O>11      -0.0341
  16 C13      -4.4621    -8.6874    -3.0561  C.ar    1  <O>11      -0.0583
  17 C14      -5.6531    -8.6400    -3.7915  C.ar    1  <O>11      -0.0436
  18 C15      -5.7908    -9.4306    -4.9323  C.ar    1  <O>11       0.0283
  19 N4       -4.8116   -10.2488    -5.3489  N.ar    1  <O>11      -0.2534
  20 C16      -0.5527   -10.1366    -5.9237  C.ar    1  <O>11      -0.0524
  21 C17       0.7874    -9.7806    -5.7650  C.ar    1  <O>11      -0.0611
  22 H1       -0.9880   -12.9745    -6.0077  H       1  <O>11       0.1760
  23 H2        2.4555    -9.9099    -4.4844  H       1  <O>11       0.0618
  24 H3        1.3082   -11.1481    -2.7415  H       1  <O>11       0.0618
  25 H4       -1.0275   -11.7615    -3.0324  H       1  <O>11       0.0624
  26 H5       -2.3445   -15.6074    -4.9558  H       1  <O>11       0.0652
  27 H6       -2.9659   -17.7074    -6.0451  H       1  <O>11       0.0619
  28 H7       -3.1976   -17.7366    -8.4823  H       1  <O>11       0.0633
  29 H8       -2.8972   -15.6954    -9.7363  H       1  <O>11       0.0830
  30 H9       -2.5717    -9.6242    -2.9550  H       1  <O>11       0.0639
  31 H10      -4.3338    -8.0977    -2.2188  H       1  <O>11       0.0619
  32 H11      -6.4244    -8.0236    -3.4911  H       1  <O>11       0.0633
  33 H12      -6.6699    -9.3852    -5.4710  H       1  <O>11       0.0830
  34 H13      -1.0552    -9.8628    -6.7825  H       1  <O>11       0.0624
  35 H14       1.2744    -9.2420    -6.4983  H       1  <O>11       0.0618
@<TRIPOS>BOND
     1     1     2   ar
     2     2     3   ar
     3     3     4   ar
     4     4     5    1
     5     5     6    2
     6     6     7    1
     7     7     8    1
     8     8     9   ar
     9     9    10   ar
    10    10    11   ar
    11    11    12   ar
    12    12    13   ar
    13     8    13   ar
    14     5    14    1
    15    14    15   ar
    16    15    16   ar
    17    16    17   ar
    18    17    18   ar
    19    18    19   ar
    20    14    19   ar
    21     4    20   ar
    22    20    21   ar
    23     1    21   ar
    24     7    22    1
    25     1    23    1
    26     2    24    1
    27     3    25    1
    28     9    26    1
    29    10    27    1
    30    11    28    1
    31    12    29    1
    32    15    30    1
    33    16    31    1
    34    17    32    1
    35    18    33    1
    36    20    34    1
    37    21    35    1
@<TRIPOS>MOLECULE
mol32_1_14
 35 37 0 0 0
SMALL
USER_CHARGES
****
VDW energy = 63.25
@<TRIPOS>ATOM
   1 C1        1.4617   -10.1611    -4.6036  C.ar    1  <O>11      -0.0617
   2 C2        0.8050   -10.8783    -3.6012  C.ar    1  <O>11      -0.0611
   3 C3       -0.5391   -11.2290    -3.7692  C.ar    1  <O>11      -0.0524
   4 C4       -1.2224   -10.8607    -4.9311  C.ar    1  <O>11       0.0039
   5 C5       -2.6120   -11.2220    -5.1120  C.2     1  <O>11       0.1142
   6 N1       -3.5962   -10.3814    -4.6815  N.2     1  <O>11      -0.1787
   7 N2       -3.2766    -9.2195    -4.0912  N.pl3   1  <O>11      -0.2204
   8 C6       -4.3238    -8.3260    -3.6334  C.ar    1  <O>11       0.1380
   9 C7       -4.4721    -8.0830    -2.2427  C.ar    1  <O>11      -0.0203
  10 C8       -5.4730    -7.2149    -1.8122  C.ar    1  <O>11      -0.0570
  11 C9       -6.3114    -6.6379    -2.7735  C.ar    1  <O>11      -0.0435
  12 C10      -6.1091    -6.9233    -4.1231  C.ar    1  <O>11       0.0297
  13 N3       -5.1331    -7.7463    -4.5359  N.ar    1  <O>11      -0.2389
  14 C11      -2.9598   -12.4836    -5.7525  C.ar    1  <O>11       0.0912
  15 C12      -2.1309   -12.9888    -6.7889  C.ar    1  <O>11      -0.0341
  16 C13      -2.4648   -14.1994    -7.3896  C.ar    1  <O>11      -0.0583
  17 C14      -3.6240   -14.8578    -6.9601  C.ar    1  <O>11      -0.0436
  18 C15      -4.3932   -14.3030    -5.9374  C.ar    1  <O>11       0.0283
  19 N4       -4.0590   -13.1433    -5.3498  N.ar    1  <O>11      -0.2534
  20 C16      -0.5527   -10.1366    -5.9237  C.ar    1  <O>11      -0.0524
  21 C17       0.7874    -9.7806    -5.7650  C.ar    1  <O>11      -0.0611
  22 H1       -2.2965    -8.9652    -3.9638  H       1  <O>11       0.1760
  23 H2        2.4555    -9.9099    -4.4844  H       1  <O>11       0.0618
  24 H3        1.3082   -11.1481    -2.7415  H       1  <O>11       0.0618
  25 H4       -1.0275   -11.7615    -3.0324  H       1  <O>11       0.0624
  26 H5       -3.8480    -8.5422    -1.5611  H       1  <O>11       0.0652
  27 H6       -5.5935    -7.0025    -0.8094  H       1  <O>11       0.0619
  28 H7       -7.0741    -6.0053    -2.4851  H       1  <O>11       0.0633
  29 H8       -6.7282    -6.4889    -4.8252  H       1  <O>11       0.0830
  30 H9       -1.2941   -12.4667    -7.0922  H       1  <O>11       0.0639
  31 H10      -1.8728   -14.6018    -8.1331  H       1  <O>11       0.0619
  32 H11      -3.9073   -15.7484    -7.3979  H       1  <O>11       0.0633
  33 H12      -5.2427   -14.7978    -5.6237  H       1  <O>11       0.0830
  34 H13      -1.0552    -9.8628    -6.7825  H       1  <O>11       0.0624
  35 H14       1.2744    -9.2420    -6.4983  H       1  <O>11       0.0618
@<TRIPOS>BOND
     1     1     2   ar
     2     2     3   ar
     3     3     4   ar
     4     4     5    1
     5     5     6    2
     6     6     7    1
     7     7     8    1
     8     8     9   ar
     9     9    10   ar
    10    10    11   ar
    11    11    12   ar
    12    12    13   ar
    13     8    13   ar
    14     5    14    1
    15    14    15   ar
    16    15    16   ar
    17    16    17   ar
    18    17    18   ar
    19    18    19   ar
    20    14    19   ar
    21     4    20   ar
    22    20    21   ar
    23     1    21   ar
    24     7    22    1
    25     1    23    1
    26     2    24    1
    27     3    25    1
    28     9    26    1
    29    10    27    1
    30    11    28    1
    31    12    29    1
    32    15    30    1
    33    16    31    1
    34    17    32    1
    35    18    33    1
    36    20    34    1
    37    21    35    1
@<TRIPOS>MOLECULE
mol32_1_15
 35 37 0 0 0
SMALL
USER_CHARGES
****
VDW energy = 63.91
@<TRIPOS>ATOM
   1 C1        1.4617   -10.1611    -4.6036  C.ar    1  <O>11      -0.0617
   2 C2        0.8050   -10.8783    -3.6012  C.ar    1  <O>11      -0.0611
   3 C3       -0.5391   -11.2290    -3.7692  C.ar    1  <O>11      -0.0524
   4 C4       -1.2224   -10.8607    -4.9311  C.ar    1  <O>11       0.0039
   5 C5       -2.6120   -11.2220    -5.1120  C.2     1  <O>11       0.1142
   6 N1       -2.9363   -12.4028    -5.7128  N.2     1  <O>11      -0.1787
   7 N2       -1.9678   -13.2298    -6.1355  N.pl3   1  <O>11      -0.2204
   8 C6       -2.3134   -14.4855    -6.7746  C.ar    1  <O>11       0.1380
   9 C7       -1.9848   -15.7072    -6.1308  C.ar    1  <O>11      -0.0203
  10 C8       -2.3303   -16.9085    -6.7459  C.ar    1  <O>11      -0.0570
  11 C9       -2.9659   -16.8584    -7.9923  C.ar    1  <O>11      -0.0435
  12 C10      -3.2564   -15.6220    -8.5672  C.ar    1  <O>11       0.0297
  13 N3       -2.9380   -14.4665    -7.9641  N.ar    1  <O>11      -0.2389
  14 C11      -3.6642   -10.3244    -4.6538  C.ar    1  <O>11       0.0912
  15 C12      -3.4557    -9.5494    -3.4823  C.ar    1  <O>11      -0.0341
  16 C13      -4.4621    -8.6874    -3.0561  C.ar    1  <O>11      -0.0583
  17 C14      -5.6531    -8.6400    -3.7915  C.ar    1  <O>11      -0.0436
  18 C15      -5.7908    -9.4306    -4.9323  C.ar    1  <O>11       0.0283
  19 N4       -4.8116   -10.2488    -5.3489  N.ar    1  <O>11      -0.2534
  20 C16      -0.5527   -10.1366    -5.9237  C.ar    1  <O>11      -0.0524
  21 C17       0.7874    -9.7806    -5.7650  C.ar    1  <O>11      -0.0611
  22 H1       -0.9880   -12.9745    -6.0077  H       1  <O>11       0.1760
  23 H2        2.4555    -9.9099    -4.4844  H       1  <O>11       0.0618
  24 H3        1.3082   -11.1481    -2.7415  H       1  <O>11       0.0618
  25 H4       -1.0275   -11.7615    -3.0324  H       1  <O>11       0.0624
  26 H5       -1.4975   -15.7055    -5.2211  H       1  <O>11       0.0652
  27 H6       -2.1228   -17.8128    -6.2939  H       1  <O>11       0.0619
  28 H7       -3.2177   -17.7311    -8.4823  H       1  <O>11       0.0633
  29 H8       -3.7304   -15.5947    -9.4835  H       1  <O>11       0.0830
  30 H9       -2.5717    -9.6242    -2.9550  H       1  <O>11       0.0639
  31 H10      -4.3338    -8.0977    -2.2188  H       1  <O>11       0.0619
  32 H11      -6.4244    -8.0236    -3.4911  H       1  <O>11       0.0633
  33 H12      -6.6699    -9.3852    -5.4710  H       1  <O>11       0.0830
  34 H13      -1.0552    -9.8628    -6.7825  H       1  <O>11       0.0624
  35 H14       1.2744    -9.2420    -6.4983  H       1  <O>11       0.0618
@<TRIPOS>BOND
     1     1     2   ar
     2     2     3   ar
     3     3     4   ar
     4     4     5    1
     5     5     6    2
     6     6     7    1
     7     7     8    1
     8     8     9   ar
     9     9    10   ar
    10    10    11   ar
    11    11    12   ar
    12    12    13   ar
    13     8    13   ar
    14     5    14    1
    15    14    15   ar
    16    15    16   ar
    17    16    17   ar
    18    17    18   ar
    19    18    19   ar
    20    14    19   ar
    21     4    20   ar
    22    20    21   ar
    23     1    21   ar
    24     7    22    1
    25     1    23    1
    26     2    24    1
    27     3    25    1
    28     9    26    1
    29    10    27    1
    30    11    28    1
    31    12    29    1
    32    15    30    1
    33    16    31    1
    34    17    32    1
    35    18    33    1
    36    20    34    1
    37    21    35    1
@<TRIPOS>MOLECULE
mol32_1_16
 35 37 0 0 0
SMALL
USER_CHARGES
****
VDW energy = 63.93
@<TRIPOS>ATOM
   1 C1        1.4617   -10.1611    -4.6036  C.ar    1  <O>11      -0.0617
   2 C2        0.8050   -10.8783    -3.6012  C.ar    1  <O>11      -0.0611
   3 C3       -0.5391   -11.2290    -3.7692  C.ar    1  <O>11      -0.0524
   4 C4       -1.2224   -10.8607    -4.9311  C.ar    1  <O>11       0.0039
   5 C5       -2.6120   -11.2220    -5.1120  C.2     1  <O>11       0.1142
   6 N1       -3.5962   -10.3814    -4.6815  N.2     1  <O>11      -0.1787
   7 N2       -3.2766    -9.2195    -4.0912  N.pl3   1  <O>11      -0.2204
   8 C6       -4.3238    -8.3260    -3.6334  C.ar    1  <O>11       0.1380
   9 C7       -4.4777    -7.0588    -4.2545  C.ar    1  <O>11      -0.0203
  10 C8       -5.4929    -6.2113    -3.8165  C.ar    1  <O>11      -0.0570
  11 C9       -6.3046    -6.6377    -2.7585  C.ar    1  <O>11      -0.0435
  12 C10      -6.0951    -7.8952    -2.1941  C.ar    1  <O>11       0.0297
  13 N3       -5.1275    -8.7163    -2.6298  N.ar    1  <O>11      -0.2389
  14 C11      -2.9598   -12.4836    -5.7525  C.ar    1  <O>11       0.0912
  15 C12      -2.1309   -12.9888    -6.7889  C.ar    1  <O>11      -0.0341
  16 C13      -2.4648   -14.1994    -7.3896  C.ar    1  <O>11      -0.0583
  17 C14      -3.6240   -14.8578    -6.9601  C.ar    1  <O>11      -0.0436
  18 C15      -4.3932   -14.3030    -5.9374  C.ar    1  <O>11       0.0283
  19 N4       -4.0590   -13.1433    -5.3498  N.ar    1  <O>11      -0.2534
  20 C16      -0.5527   -10.1366    -5.9237  C.ar    1  <O>11      -0.0524
  21 C17       0.7874    -9.7806    -5.7650  C.ar    1  <O>11      -0.0611
  22 H1       -2.2965    -8.9652    -3.9638  H       1  <O>11       0.1760
  23 H2        2.4555    -9.9099    -4.4844  H       1  <O>11       0.0618
  24 H3        1.3082   -11.1481    -2.7415  H       1  <O>11       0.0618
  25 H4       -1.0275   -11.7615    -3.0324  H       1  <O>11       0.0624
  26 H5       -3.8472    -6.7699    -5.0186  H       1  <O>11       0.0652
  27 H6       -5.6429    -5.2921    -4.2609  H       1  <O>11       0.0619
  28 H7       -7.0532    -6.0252    -2.3987  H       1  <O>11       0.0633
  29 H8       -6.7020    -8.2035    -1.4185  H       1  <O>11       0.0830
  30 H9       -1.2941   -12.4667    -7.0922  H       1  <O>11       0.0639
  31 H10      -1.8728   -14.6018    -8.1331  H       1  <O>11       0.0619
  32 H11      -3.9073   -15.7484    -7.3979  H       1  <O>11       0.0633
  33 H12      -5.2427   -14.7978    -5.6237  H       1  <O>11       0.0830
  34 H13      -1.0552    -9.8628    -6.7825  H       1  <O>11       0.0624
  35 H14       1.2744    -9.2420    -6.4983  H       1  <O>11       0.0618
@<TRIPOS>BOND
     1     1     2   ar
     2     2     3   ar
     3     3     4   ar
     4     4     5    1
     5     5     6    2
     6     6     7    1
     7     7     8    1
     8     8     9   ar
     9     9    10   ar
    10    10    11   ar
    11    11    12   ar
    12    12    13   ar
    13     8    13   ar
    14     5    14    1
    15    14    15   ar
    16    15    16   ar
    17    16    17   ar
    18    17    18   ar
    19    18    19   ar
    20    14    19   ar
    21     4    20   ar
    22    20    21   ar
    23     1    21   ar
    24     7    22    1
    25     1    23    1
    26     2    24    1
    27     3    25    1
    28     9    26    1
    29    10    27    1
    30    11    28    1
    31    12    29    1
    32    15    30    1
    33    16    31    1
    34    17    32    1
    35    18    33    1
    36    20    34    1
    37    21    35    1
@<TRIPOS>MOLECULE
mol32_1_17
 35 37 0 0 0
SMALL
USER_CHARGES
****
VDW energy = 73.83
@<TRIPOS>ATOM
   1 C1        1.4617   -10.1611    -4.6036  C.ar    1  <O>11      -0.0617
   2 C2        0.8050   -10.8783    -3.6012  C.ar    1  <O>11      -0.0611
   3 C3       -0.5391   -11.2290    -3.7692  C.ar    1  <O>11      -0.0524
   4 C4       -1.2224   -10.8607    -4.9311  C.ar    1  <O>11       0.0039
   5 C5       -2.6120   -11.2220    -5.1120  C.2     1  <O>11       0.1142
   6 N1       -3.0573   -11.6250    -6.3367  N.2     1  <O>11      -0.1787
   7 N2       -2.2077   -11.6874    -7.3734  N.pl3   1  <O>11      -0.2204
   8 C6       -2.6820   -12.1159    -8.6756  C.ar    1  <O>11       0.1380
   9 C7       -3.1763   -11.1481    -9.5889  C.ar    1  <O>11      -0.0203
  10 C8       -3.6194   -11.5665   -10.8416  C.ar    1  <O>11      -0.0570
  11 C9       -3.5832   -12.9346   -11.1368  C.ar    1  <O>11      -0.0435
  12 C10      -3.0864   -13.8296   -10.1902  C.ar    1  <O>11       0.0297
  13 N3       -2.6441   -13.4215    -8.9911  N.ar    1  <O>11      -0.2389
  14 C11      -3.5353   -11.1541    -3.9869  C.ar    1  <O>11       0.0912
  15 C12      -3.7093   -12.2957    -3.1605  C.ar    1  <O>11      -0.0341
  16 C13      -4.5863   -12.2200    -2.0821  C.ar    1  <O>11      -0.0583
  17 C14      -5.2814   -11.0223    -1.8727  C.ar    1  <O>11      -0.0436
  18 C15      -5.0630    -9.9403    -2.7254  C.ar    1  <O>11       0.0283
  19 N4       -4.2045   -10.0123    -3.7548  N.ar    1  <O>11      -0.2534
  20 C16      -0.5527   -10.1366    -5.9237  C.ar    1  <O>11      -0.0524
  21 C17       0.7874    -9.7806    -5.7650  C.ar    1  <O>11      -0.0611
  22 H1       -1.2278   -11.4324    -7.2453  H       1  <O>11       0.1760
  23 H2        2.4555    -9.9099    -4.4844  H       1  <O>11       0.0618
  24 H3        1.3082   -11.1481    -2.7415  H       1  <O>11       0.0618
  25 H4       -1.0275   -11.7615    -3.0324  H       1  <O>11       0.0624
  26 H5       -3.2068   -10.1499    -9.3289  H       1  <O>11       0.0652
  27 H6       -3.9658   -10.8850   -11.5348  H       1  <O>11       0.0619
  28 H7       -3.9219   -13.2783   -12.0490  H       1  <O>11       0.0633
  29 H8       -3.0581   -14.8356   -10.4187  H       1  <O>11       0.0830
  30 H9       -3.1936   -13.1679    -3.3563  H       1  <O>11       0.0639
  31 H10      -4.7209   -13.0265    -1.4524  H       1  <O>11       0.0619
  32 H11      -5.9514   -10.9408    -1.0920  H       1  <O>11       0.0633
  33 H12      -5.5757    -9.0600    -2.5603  H       1  <O>11       0.0830
  34 H13      -1.0552    -9.8628    -6.7825  H       1  <O>11       0.0624
  35 H14       1.2744    -9.2420    -6.4983  H       1  <O>11       0.0618
@<TRIPOS>BOND
     1     1     2   ar
     2     2     3   ar
     3     3     4   ar
     4     4     5    1
     5     5     6    2
     6     6     7    1
     7     7     8    1
     8     8     9   ar
     9     9    10   ar
    10    10    11   ar
    11    11    12   ar
    12    12    13   ar
    13     8    13   ar
    14     5    14    1
    15    14    15   ar
    16    15    16   ar
    17    16    17   ar
    18    17    18   ar
    19    18    19   ar
    20    14    19   ar
    21     4    20   ar
    22    20    21   ar
    23     1    21   ar
    24     7    22    1
    25     1    23    1
    26     2    24    1
    27     3    25    1
    28     9    26    1
    29    10    27    1
    30    11    28    1
    31    12    29    1
    32    15    30    1
    33    16    31    1
    34    17    32    1
    35    18    33    1
    36    20    34    1
    37    21    35    1
@<TRIPOS>MOLECULE
mol32_1_18
 35 37 0 0 0
SMALL
USER_CHARGES
****
VDW energy = 74.27
@<TRIPOS>ATOM
   1 C1        1.4617   -10.1611    -4.6036  C.ar    1  <O>11      -0.0617
   2 C2        0.8050   -10.8783    -3.6012  C.ar    1  <O>11      -0.0611
   3 C3       -0.5391   -11.2290    -3.7692  C.ar    1  <O>11      -0.0524
   4 C4       -1.2224   -10.8607    -4.9311  C.ar    1  <O>11       0.0039
   5 C5       -2.6120   -11.2220    -5.1120  C.2     1  <O>11       0.1142
   6 N1       -3.0573   -11.6250    -6.3367  N.2     1  <O>11      -0.1787
   7 N2       -2.2077   -11.6874    -7.3734  N.pl3   1  <O>11      -0.2204
   8 C6       -2.6820   -12.1159    -8.6756  C.ar    1  <O>11       0.1380
   9 C7       -3.1763   -11.1481    -9.5889  C.ar    1  <O>11      -0.0203
  10 C8       -3.6194   -11.5665   -10.8416  C.ar    1  <O>11      -0.0570
  11 C9       -3.5832   -12.9346   -11.1368  C.ar    1  <O>11      -0.0435
  12 C10      -3.0864   -13.8296   -10.1902  C.ar    1  <O>11       0.0297
  13 N3       -2.6441   -13.4215    -8.9911  N.ar    1  <O>11      -0.2389
  14 C11      -3.5353   -11.1541    -3.9869  C.ar    1  <O>11       0.0912
  15 C12      -4.2424    -9.9478    -3.7397  C.ar    1  <O>11      -0.0341
  16 C13      -5.1296    -9.8937    -2.6683  C.ar    1  <O>11      -0.0583
  17 C14      -5.2684   -11.0301    -1.8615  C.ar    1  <O>11      -0.0436
  18 C15      -4.5408   -12.1817    -2.1616  C.ar    1  <O>11       0.0283
  19 N4       -3.6982   -12.2348    -3.2052  N.ar    1  <O>11      -0.2534
  20 C16      -0.5527   -10.1366    -5.9237  C.ar    1  <O>11      -0.0524
  21 C17       0.7874    -9.7806    -5.7650  C.ar    1  <O>11      -0.0611
  22 H1       -1.2278   -11.4324    -7.2453  H       1  <O>11       0.1760
  23 H2        2.4555    -9.9099    -4.4844  H       1  <O>11       0.0618
  24 H3        1.3082   -11.1481    -2.7415  H       1  <O>11       0.0618
  25 H4       -1.0275   -11.7615    -3.0324  H       1  <O>11       0.0624
  26 H5       -3.2068   -10.1499    -9.3289  H       1  <O>11       0.0652
  27 H6       -3.9658   -10.8850   -11.5348  H       1  <O>11       0.0619
  28 H7       -3.9219   -13.2783   -12.0490  H       1  <O>11       0.0633
  29 H8       -3.0581   -14.8356   -10.4187  H       1  <O>11       0.0830
  30 H9       -4.1008    -9.1239    -4.3448  H       1  <O>11       0.0639
  31 H10      -5.6717    -9.0374    -2.4734  H       1  <O>11       0.0619
  32 H11      -5.9054   -11.0155    -1.0497  H       1  <O>11       0.0633
  33 H12      -4.6534   -13.0160    -1.5647  H       1  <O>11       0.0830
  34 H13      -1.0552    -9.8628    -6.7825  H       1  <O>11       0.0624
  35 H14       1.2744    -9.2420    -6.4983  H       1  <O>11       0.0618
@<TRIPOS>BOND
     1     1     2   ar
     2     2     3   ar
     3     3     4   ar
     4     4     5    1
     5     5     6    2
     6     6     7    1
     7     7     8    1
     8     8     9   ar
     9     9    10   ar
    10    10    11   ar
    11    11    12   ar
    12    12    13   ar
    13     8    13   ar
    14     5    14    1
    15    14    15   ar
    16    15    16   ar
    17    16    17   ar
    18    17    18   ar
    19    18    19   ar
    20    14    19   ar
    21     4    20   ar
    22    20    21   ar
    23     1    21   ar
    24     7    22    1
    25     1    23    1
    26     2    24    1
    27     3    25    1
    28     9    26    1
    29    10    27    1
    30    11    28    1
    31    12    29    1
    32    15    30    1
    33    16    31    1
    34    17    32    1
    35    18    33    1
    36    20    34    1
    37    21    35    1
@<TRIPOS>MOLECULE
mol32_1_19
 35 37 0 0 0
SMALL
USER_CHARGES
****
VDW energy = 75.67
@<TRIPOS>ATOM
   1 C1        1.4617   -10.1611    -4.6036  C.ar    1  <O>11      -0.0617
   2 C2        0.8050   -10.8783    -3.6012  C.ar    1  <O>11      -0.0611
   3 C3       -0.5391   -11.2290    -3.7692  C.ar    1  <O>11      -0.0524
   4 C4       -1.2224   -10.8607    -4.9311  C.ar    1  <O>11       0.0039
   5 C5       -2.6120   -11.2220    -5.1120  C.2     1  <O>11       0.1142
   6 N1       -3.4788   -10.3338    -5.6779  N.2     1  <O>11      -0.1787
   7 N2       -3.0437    -9.1257    -6.0675  N.pl3   1  <O>11      -0.2204
   8 C6       -3.9662    -8.1815    -6.6691  C.ar    1  <O>11       0.1380
   9 C7       -4.2727    -6.9762    -5.9847  C.ar    1  <O>11      -0.0203
  10 C8       -5.1508    -6.0696    -6.5745  C.ar    1  <O>11      -0.0570
  11 C9       -5.7171    -6.4011    -7.8111  C.ar    1  <O>11      -0.0435
  12 C10      -5.3720    -7.6041    -8.4255  C.ar    1  <O>11       0.0297
  13 N3       -4.5125    -8.4673    -7.8630  N.ar    1  <O>11      -0.2389
  14 C11      -3.0853   -12.5333    -4.6888  C.ar    1  <O>11       0.0912
  15 C12      -3.0476   -13.6158    -5.6071  C.ar    1  <O>11      -0.0341
  16 C13      -3.4930   -14.8678    -5.1923  C.ar    1  <O>11      -0.0583
  17 C14      -3.9848   -15.0002    -3.8876  C.ar    1  <O>11      -0.0436
  18 C15      -3.9944   -13.8935    -3.0387  C.ar    1  <O>11       0.0283
  19 N4       -3.5491   -12.6916    -3.4376  N.ar    1  <O>11      -0.2534
  20 C16      -0.5527   -10.1366    -5.9237  C.ar    1  <O>11      -0.0524
  21 C17       0.7874    -9.7806    -5.7650  C.ar    1  <O>11      -0.0611
  22 H1       -2.0637    -8.8714    -5.9396  H       1  <O>11       0.1760
  23 H2        2.4555    -9.9099    -4.4844  H       1  <O>11       0.0618
  24 H3        1.3082   -11.1481    -2.7415  H       1  <O>11       0.0618
  25 H4       -1.0275   -11.7615    -3.0324  H       1  <O>11       0.0624
  26 H5       -3.8515    -6.7746    -5.0644  H       1  <O>11       0.0652
  27 H6       -5.3782    -5.1759    -6.1112  H       1  <O>11       0.0619
  28 H7       -6.3856    -5.7592    -8.2650  H       1  <O>11       0.0633
  29 H8       -5.7899    -7.8375    -9.3398  H       1  <O>11       0.0830
  30 H9       -2.6954   -13.4766    -6.5670  H       1  <O>11       0.0639
  31 H10      -3.4615   -15.6783    -5.8303  H       1  <O>11       0.0619
  32 H11      -4.3382   -15.9115    -3.5563  H       1  <O>11       0.0633
  33 H12      -4.3537   -14.0017    -2.0774  H       1  <O>11       0.0830
  34 H13      -1.0552    -9.8628    -6.7825  H       1  <O>11       0.0624
  35 H14       1.2744    -9.2420    -6.4983  H       1  <O>11       0.0618
@<TRIPOS>BOND
     1     1     2   ar
     2     2     3   ar
     3     3     4   ar
     4     4     5    1
     5     5     6    2
     6     6     7    1
     7     7     8    1
     8     8     9   ar
     9     9    10   ar
    10    10    11   ar
    11    11    12   ar
    12    12    13   ar
    13     8    13   ar
    14     5    14    1
    15    14    15   ar
    16    15    16   ar
    17    16    17   ar
    18    17    18   ar
    19    18    19   ar
    20    14    19   ar
    21     4    20   ar
    22    20    21   ar
    23     1    21   ar
    24     7    22    1
    25     1    23    1
    26     2    24    1
    27     3    25    1
    28     9    26    1
    29    10    27    1
    30    11    28    1
    31    12    29    1
    32    15    30    1
    33    16    31    1
    34    17    32    1
    35    18    33    1
    36    20    34    1
    37    21    35    1
@<TRIPOS>MOLECULE
mol32_1_20
 35 37 0 0 0
SMALL
USER_CHARGES
****
VDW energy = 76.27
@<TRIPOS>ATOM
   1 C1        1.4617   -10.1611    -4.6036  C.ar    1  <O>11      -0.0617
   2 C2        0.8050   -10.8783    -3.6012  C.ar    1  <O>11      -0.0611
   3 C3       -0.5391   -11.2290    -3.7692  C.ar    1  <O>11      -0.0524
   4 C4       -1.2224   -10.8607    -4.9311  C.ar    1  <O>11       0.0039
   5 C5       -2.6120   -11.2220    -5.1120  C.2     1  <O>11       0.1142
   6 N1       -3.0573   -11.6250    -6.3367  N.2     1  <O>11      -0.1787
   7 N2       -2.2077   -11.6874    -7.3734  N.pl3   1  <O>11      -0.2204
   8 C6       -2.6820   -12.1159    -8.6756  C.ar    1  <O>11       0.1380
   9 C7       -2.6861   -11.1917    -9.7531  C.ar    1  <O>11      -0.0203
  10 C8       -3.1326   -11.6144   -11.0032  C.ar    1  <O>11      -0.0570
  11 C9       -3.5861   -12.9322   -11.1365  C.ar    1  <O>11      -0.0435
  12 C10      -3.5555   -13.7851   -10.0340  C.ar    1  <O>11       0.0297
  13 N3       -3.1085   -13.3800    -8.8355  N.ar    1  <O>11      -0.2389
  14 C11      -3.5353   -11.1541    -3.9869  C.ar    1  <O>11       0.0912
  15 C12      -4.2424    -9.9478    -3.7397  C.ar    1  <O>11      -0.0341
  16 C13      -5.1296    -9.8937    -2.6683  C.ar    1  <O>11      -0.0583
  17 C14      -5.2684   -11.0301    -1.8615  C.ar    1  <O>11      -0.0436
  18 C15      -4.5408   -12.1817    -2.1616  C.ar    1  <O>11       0.0283
  19 N4       -3.6982   -12.2348    -3.2052  N.ar    1  <O>11      -0.2534
  20 C16      -0.5527   -10.1366    -5.9237  C.ar    1  <O>11      -0.0524
  21 C17       0.7874    -9.7806    -5.7650  C.ar    1  <O>11      -0.0611
  22 H1       -1.2278   -11.4324    -7.2453  H       1  <O>11       0.1760
  23 H2        2.4555    -9.9099    -4.4844  H       1  <O>11       0.0618
  24 H3        1.3082   -11.1481    -2.7415  H       1  <O>11       0.0618
  25 H4       -1.0275   -11.7615    -3.0324  H       1  <O>11       0.0624
  26 H5       -2.3632   -10.2217    -9.6126  H       1  <O>11       0.0652
  27 H6       -3.1292   -10.9721   -11.8109  H       1  <O>11       0.0619
  28 H7       -3.9407   -13.2701   -12.0448  H       1  <O>11       0.0633
  29 H8       -3.8863   -14.7566   -10.1430  H       1  <O>11       0.0830
  30 H9       -4.1008    -9.1239    -4.3448  H       1  <O>11       0.0639
  31 H10      -5.6717    -9.0374    -2.4734  H       1  <O>11       0.0619
  32 H11      -5.9054   -11.0155    -1.0497  H       1  <O>11       0.0633
  33 H12      -4.6534   -13.0160    -1.5647  H       1  <O>11       0.0830
  34 H13      -1.0552    -9.8628    -6.7825  H       1  <O>11       0.0624
  35 H14       1.2744    -9.2420    -6.4983  H       1  <O>11       0.0618
@<TRIPOS>BOND
     1     1     2   ar
     2     2     3   ar
     3     3     4   ar
     4     4     5    1
     5     5     6    2
     6     6     7    1
     7     7     8    1
     8     8     9   ar
     9     9    10   ar
    10    10    11   ar
    11    11    12   ar
    12    12    13   ar
    13     8    13   ar
    14     5    14    1
    15    14    15   ar
    16    15    16   ar
    17    16    17   ar
    18    17    18   ar
    19    18    19   ar
    20    14    19   ar
    21     4    20   ar
    22    20    21   ar
    23     1    21   ar
    24     7    22    1
    25     1    23    1
    26     2    24    1
    27     3    25    1
    28     9    26    1
    29    10    27    1
    30    11    28    1
    31    12    29    1
    32    15    30    1
    33    16    31    1
    34    17    32    1
    35    18    33    1
    36    20    34    1
    37    21    35    1
@<TRIPOS>MOLECULE
mol32_1_21
 35 37 0 0 0
SMALL
USER_CHARGES
****
VDW energy = 76.63
@<TRIPOS>ATOM
   1 C1        1.4617   -10.1611    -4.6036  C.ar    1  <O>11      -0.0617
   2 C2        0.8050   -10.8783    -3.6012  C.ar    1  <O>11      -0.0611
   3 C3       -0.5391   -11.2290    -3.7692  C.ar    1  <O>11      -0.0524
   4 C4       -1.2224   -10.8607    -4.9311  C.ar    1  <O>11       0.0039
   5 C5       -2.6120   -11.2220    -5.1120  C.2     1  <O>11       0.1142
   6 N1       -3.4788   -10.3338    -5.6779  N.2     1  <O>11      -0.1787
   7 N2       -3.0437    -9.1257    -6.0675  N.pl3   1  <O>11      -0.2204
   8 C6       -3.9662    -8.1815    -6.6691  C.ar    1  <O>11       0.1380
   9 C7       -4.2727    -6.9762    -5.9847  C.ar    1  <O>11      -0.0203
  10 C8       -5.1508    -6.0696    -6.5745  C.ar    1  <O>11      -0.0570
  11 C9       -5.7171    -6.4011    -7.8111  C.ar    1  <O>11      -0.0435
  12 C10      -5.3720    -7.6041    -8.4255  C.ar    1  <O>11       0.0297
  13 N3       -4.5125    -8.4673    -7.8630  N.ar    1  <O>11      -0.2389
  14 C11      -3.0853   -12.5333    -4.6888  C.ar    1  <O>11       0.0912
  15 C12      -3.5748   -12.7024    -3.3665  C.ar    1  <O>11      -0.0341
  16 C13      -4.0338   -13.9562    -2.9726  C.ar    1  <O>11      -0.0583
  17 C14      -3.9694   -15.0082    -3.8950  C.ar    1  <O>11      -0.0436
  18 C15      -3.4749   -14.7713    -5.1775  C.ar    1  <O>11       0.0283
  19 N4       -3.0480   -13.5570    -5.5584  N.ar    1  <O>11      -0.2534
  20 C16      -0.5527   -10.1366    -5.9237  C.ar    1  <O>11      -0.0524
  21 C17       0.7874    -9.7806    -5.7650  C.ar    1  <O>11      -0.0611
  22 H1       -2.0637    -8.8714    -5.9396  H       1  <O>11       0.1760
  23 H2        2.4555    -9.9099    -4.4844  H       1  <O>11       0.0618
  24 H3        1.3082   -11.1481    -2.7415  H       1  <O>11       0.0618
  25 H4       -1.0275   -11.7615    -3.0324  H       1  <O>11       0.0624
  26 H5       -3.8515    -6.7746    -5.0644  H       1  <O>11       0.0652
  27 H6       -5.3782    -5.1759    -6.1112  H       1  <O>11       0.0619
  28 H7       -6.3856    -5.7592    -8.2650  H       1  <O>11       0.0633
  29 H8       -5.7899    -7.8375    -9.3398  H       1  <O>11       0.0830
  30 H9       -3.5900   -11.9081    -2.7078  H       1  <O>11       0.0639
  31 H10      -4.4121   -14.1068    -2.0243  H       1  <O>11       0.0619
  32 H11      -4.2860   -15.9532    -3.6272  H       1  <O>11       0.0633
  33 H12      -3.4361   -15.5512    -5.8522  H       1  <O>11       0.0830
  34 H13      -1.0552    -9.8628    -6.7825  H       1  <O>11       0.0624
  35 H14       1.2744    -9.2420    -6.4983  H       1  <O>11       0.0618
@<TRIPOS>BOND
     1     1     2   ar
     2     2     3   ar
     3     3     4   ar
     4     4     5    1
     5     5     6    2
     6     6     7    1
     7     7     8    1
     8     8     9   ar
     9     9    10   ar
    10    10    11   ar
    11    11    12   ar
    12    12    13   ar
    13     8    13   ar
    14     5    14    1
    15    14    15   ar
    16    15    16   ar
    17    16    17   ar
    18    17    18   ar
    19    18    19   ar
    20    14    19   ar
    21     4    20   ar
    22    20    21   ar
    23     1    21   ar
    24     7    22    1
    25     1    23    1
    26     2    24    1
    27     3    25    1
    28     9    26    1
    29    10    27    1
    30    11    28    1
    31    12    29    1
    32    15    30    1
    33    16    31    1
    34    17    32    1
    35    18    33    1
    36    20    34    1
    37    21    35    1
@<TRIPOS>MOLECULE
mol32_1_22
 35 37 0 0 0
SMALL
USER_CHARGES
****
VDW energy = 77.94
@<TRIPOS>ATOM
   1 C1        1.4617   -10.1611    -4.6036  C.ar    1  <O>11      -0.0617
   2 C2        0.8050   -10.8783    -3.6012  C.ar    1  <O>11      -0.0611
   3 C3       -0.5391   -11.2290    -3.7692  C.ar    1  <O>11      -0.0524
   4 C4       -1.2224   -10.8607    -4.9311  C.ar    1  <O>11       0.0039
   5 C5       -2.6120   -11.2220    -5.1120  C.2     1  <O>11       0.1142
   6 N1       -3.0752   -12.4110    -4.6299  N.2     1  <O>11      -0.1787
   7 N2       -2.2434   -13.2453    -3.9876  N.pl3   1  <O>11      -0.2204
   8 C6       -2.7366   -14.5097    -3.4753  C.ar    1  <O>11       0.1380
   9 C7       -4.0101   -14.5576    -2.8499  C.ar    1  <O>11      -0.0203
  10 C8       -4.4813   -15.7779    -2.3707  C.ar    1  <O>11      -0.0570
  11 C9       -3.6619   -16.9053    -2.5032  C.ar    1  <O>11      -0.0435
  12 C10      -2.4209   -16.7842    -3.1270  C.ar    1  <O>11       0.0297
  13 N3       -1.9773   -15.6108    -3.6031  N.ar    1  <O>11      -0.2389
  14 C11      -3.5157   -10.3169    -5.8098  C.ar    1  <O>11       0.0912
  15 C12      -4.1665   -10.7588    -6.9920  C.ar    1  <O>11      -0.0341
  16 C13      -5.0355    -9.8914    -7.6478  C.ar    1  <O>11      -0.0583
  17 C14      -5.2119    -8.6045    -7.1239  C.ar    1  <O>11      -0.0436
  18 C15      -4.5390    -8.2361    -5.9590  C.ar    1  <O>11       0.0283
  19 N4       -3.7141    -9.0812    -5.3207  N.ar    1  <O>11      -0.2534
  20 C16      -0.5527   -10.1366    -5.9237  C.ar    1  <O>11      -0.0524
  21 C17       0.7874    -9.7806    -5.7650  C.ar    1  <O>11      -0.0611
  22 H1       -1.2635   -12.9900    -3.8603  H       1  <O>11       0.1760
  23 H2        2.4555    -9.9099    -4.4844  H       1  <O>11       0.0618
  24 H3        1.3082   -11.1481    -2.7415  H       1  <O>11       0.0618
  25 H4       -1.0275   -11.7615    -3.0324  H       1  <O>11       0.0624
  26 H5       -4.5781   -13.7016    -2.7517  H       1  <O>11       0.0652
  27 H6       -5.4113   -15.8490    -1.9290  H       1  <O>11       0.0619
  28 H7       -3.9744   -17.8199    -2.1416  H       1  <O>11       0.0633
  29 H8       -1.8260   -17.6218    -3.2255  H       1  <O>11       0.0830
  30 H9       -3.9979   -11.7084    -7.3592  H       1  <O>11       0.0639
  31 H10      -5.5373   -10.1892    -8.4991  H       1  <O>11       0.0619
  32 H11      -5.8363    -7.9327    -7.5971  H       1  <O>11       0.0633
  33 H12      -4.6792    -7.2876    -5.5773  H       1  <O>11       0.0830
  34 H13      -1.0552    -9.8628    -6.7825  H       1  <O>11       0.0624
  35 H14       1.2744    -9.2420    -6.4983  H       1  <O>11       0.0618
@<TRIPOS>BOND
     1     1     2   ar
     2     2     3   ar
     3     3     4   ar
     4     4     5    1
     5     5     6    2
     6     6     7    1
     7     7     8    1
     8     8     9   ar
     9     9    10   ar
    10    10    11   ar
    11    11    12   ar
    12    12    13   ar
    13     8    13   ar
    14     5    14    1
    15    14    15   ar
    16    15    16   ar
    17    16    17   ar
    18    17    18   ar
    19    18    19   ar
    20    14    19   ar
    21     4    20   ar
    22    20    21   ar
    23     1    21   ar
    24     7    22    1
    25     1    23    1
    26     2    24    1
    27     3    25    1
    28     9    26    1
    29    10    27    1
    30    11    28    1
    31    12    29    1
    32    15    30    1
    33    16    31    1
    34    17    32    1
    35    18    33    1
    36    20    34    1
    37    21    35    1
@<TRIPOS>MOLECULE
mol32_1_23
 35 37 0 0 0
SMALL
USER_CHARGES
****
VDW energy = 79.60
@<TRIPOS>ATOM
   1 C1        1.4617   -10.1611    -4.6036  C.ar    1  <O>11      -0.0617
   2 C2        0.8050   -10.8783    -3.6012  C.ar    1  <O>11      -0.0611
   3 C3       -0.5391   -11.2290    -3.7692  C.ar    1  <O>11      -0.0524
   4 C4       -1.2224   -10.8607    -4.9311  C.ar    1  <O>11       0.0039
   5 C5       -2.6120   -11.2220    -5.1120  C.2     1  <O>11       0.1142
   6 N1       -3.0752   -12.4110    -4.6299  N.2     1  <O>11      -0.1787
   7 N2       -2.2434   -13.2453    -3.9876  N.pl3   1  <O>11      -0.2204
   8 C6       -2.7366   -14.5097    -3.4753  C.ar    1  <O>11       0.1380
   9 C7       -3.2554   -14.5706    -2.1554  C.ar    1  <O>11      -0.0203
  10 C8       -3.7375   -15.7862    -1.6750  C.ar    1  <O>11      -0.0570
  11 C9       -3.6637   -16.9073    -2.5102  C.ar    1  <O>11      -0.0435
  12 C10      -3.1396   -16.7746    -3.7953  C.ar    1  <O>11       0.0297
  13 N3       -2.6922   -15.5986    -4.2612  N.ar    1  <O>11      -0.2389
  14 C11      -3.5157   -10.3169    -5.8098  C.ar    1  <O>11       0.0912
  15 C12      -4.1665   -10.7588    -6.9920  C.ar    1  <O>11      -0.0341
  16 C13      -5.0355    -9.8914    -7.6478  C.ar    1  <O>11      -0.0583
  17 C14      -5.2119    -8.6045    -7.1239  C.ar    1  <O>11      -0.0436
  18 C15      -4.5390    -8.2361    -5.9590  C.ar    1  <O>11       0.0283
  19 N4       -3.7141    -9.0812    -5.3207  N.ar    1  <O>11      -0.2534
  20 C16      -0.5527   -10.1366    -5.9237  C.ar    1  <O>11      -0.0524
  21 C17       0.7874    -9.7806    -5.7650  C.ar    1  <O>11      -0.0611
  22 H1       -1.2635   -12.9900    -3.8603  H       1  <O>11       0.1760
  23 H2        2.4555    -9.9099    -4.4844  H       1  <O>11       0.0618
  24 H3        1.3082   -11.1481    -2.7415  H       1  <O>11       0.0618
  25 H4       -1.0275   -11.7615    -3.0324  H       1  <O>11       0.0624
  26 H5       -3.2752   -13.7273    -1.5608  H       1  <O>11       0.0652
  27 H6       -4.1389   -15.8584    -0.7270  H       1  <O>11       0.0619
  28 H7       -3.9952   -17.8260    -2.1768  H       1  <O>11       0.0633
  29 H8       -3.0945   -17.6052    -4.4061  H       1  <O>11       0.0830
  30 H9       -3.9979   -11.7084    -7.3592  H       1  <O>11       0.0639
  31 H10      -5.5373   -10.1892    -8.4991  H       1  <O>11       0.0619
  32 H11      -5.8363    -7.9327    -7.5971  H       1  <O>11       0.0633
  33 H12      -4.6792    -7.2876    -5.5773  H       1  <O>11       0.0830
  34 H13      -1.0552    -9.8628    -6.7825  H       1  <O>11       0.0624
  35 H14       1.2744    -9.2420    -6.4983  H       1  <O>11       0.0618
@<TRIPOS>BOND
     1     1     2   ar
     2     2     3   ar
     3     3     4   ar
     4     4     5    1
     5     5     6    2
     6     6     7    1
     7     7     8    1
     8     8     9   ar
     9     9    10   ar
    10    10    11   ar
    11    11    12   ar
    12    12    13   ar
    13     8    13   ar
    14     5    14    1
    15    14    15   ar
    16    15    16   ar
    17    16    17   ar
    18    17    18   ar
    19    18    19   ar
    20    14    19   ar
    21     4    20   ar
    22    20    21   ar
    23     1    21   ar
    24     7    22    1
    25     1    23    1
    26     2    24    1
    27     3    25    1
    28     9    26    1
    29    10    27    1
    30    11    28    1
    31    12    29    1
    32    15    30    1
    33    16    31    1
    34    17    32    1
    35    18    33    1
    36    20    34    1
    37    21    35    1
@<TRIPOS>MOLECULE
mol32_1_24
 35 37 0 0 0
SMALL
USER_CHARGES
****
VDW energy = 80.23
@<TRIPOS>ATOM
   1 C1        1.4617   -10.1611    -4.6036  C.ar    1  <O>11      -0.0617
   2 C2        0.8050   -10.8783    -3.6012  C.ar    1  <O>11      -0.0611
   3 C3       -0.5391   -11.2290    -3.7692  C.ar    1  <O>11      -0.0524
   4 C4       -1.2224   -10.8607    -4.9311  C.ar    1  <O>11       0.0039
   5 C5       -2.6120   -11.2220    -5.1120  C.2     1  <O>11       0.1142
   6 N1       -3.0752   -12.4110    -4.6299  N.2     1  <O>11      -0.1787
   7 N2       -2.2434   -13.2453    -3.9876  N.pl3   1  <O>11      -0.2204
   8 C6       -2.7366   -14.5097    -3.4753  C.ar    1  <O>11       0.1380
   9 C7       -2.6908   -15.6613    -4.3040  C.ar    1  <O>11      -0.0203
  10 C8       -3.1560   -16.8741    -3.8006  C.ar    1  <O>11      -0.0570
  11 C9       -3.6767   -16.8986    -2.5012  C.ar    1  <O>11      -0.0435
  12 C10      -3.6924   -15.7280    -1.7442  C.ar    1  <O>11       0.0297
  13 N3       -3.2275   -14.5651    -2.2257  N.ar    1  <O>11      -0.2389
  14 C11      -3.5157   -10.3169    -5.8098  C.ar    1  <O>11       0.0912
  15 C12      -4.1665   -10.7588    -6.9920  C.ar    1  <O>11      -0.0341
  16 C13      -5.0355    -9.8914    -7.6478  C.ar    1  <O>11      -0.0583
  17 C14      -5.2119    -8.6045    -7.1239  C.ar    1  <O>11      -0.0436
  18 C15      -4.5390    -8.2361    -5.9590  C.ar    1  <O>11       0.0283
  19 N4       -3.7141    -9.0812    -5.3207  N.ar    1  <O>11      -0.2534
  20 C16      -0.5527   -10.1366    -5.9237  C.ar    1  <O>11      -0.0524
  21 C17       0.7874    -9.7806    -5.7650  C.ar    1  <O>11      -0.0611
  22 H1       -1.2635   -12.9900    -3.8603  H       1  <O>11       0.1760
  23 H2        2.4555    -9.9099    -4.4844  H       1  <O>11       0.0618
  24 H3        1.3082   -11.1481    -2.7415  H       1  <O>11       0.0618
  25 H4       -1.0275   -11.7615    -3.0324  H       1  <O>11       0.0624
  26 H5       -2.3185   -15.6011    -5.2646  H       1  <O>11       0.0652
  27 H6       -3.1179   -17.7331    -4.3713  H       1  <O>11       0.0619
  28 H7       -4.0465   -17.7775    -2.1063  H       1  <O>11       0.0633
  29 H8       -4.0727   -15.7567    -0.7852  H       1  <O>11       0.0830
  30 H9       -3.9979   -11.7084    -7.3592  H       1  <O>11       0.0639
  31 H10      -5.5373   -10.1892    -8.4991  H       1  <O>11       0.0619
  32 H11      -5.8363    -7.9327    -7.5971  H       1  <O>11       0.0633
  33 H12      -4.6792    -7.2876    -5.5773  H       1  <O>11       0.0830
  34 H13      -1.0552    -9.8628    -6.7825  H       1  <O>11       0.0624
  35 H14       1.2744    -9.2420    -6.4983  H       1  <O>11       0.0618
@<TRIPOS>BOND
     1     1     2   ar
     2     2     3   ar
     3     3     4   ar
     4     4     5    1
     5     5     6    2
     6     6     7    1
     7     7     8    1
     8     8     9   ar
     9     9    10   ar
    10    10    11   ar
    11    11    12   ar
    12    12    13   ar
    13     8    13   ar
    14     5    14    1
    15    14    15   ar
    16    15    16   ar
    17    16    17   ar
    18    17    18   ar
    19    18    19   ar
    20    14    19   ar
    21     4    20   ar
    22    20    21   ar
    23     1    21   ar
    24     7    22    1
    25     1    23    1
    26     2    24    1
    27     3    25    1
    28     9    26    1
    29    10    27    1
    30    11    28    1
    31    12    29    1
    32    15    30    1
    33    16    31    1
    34    17    32    1
    35    18    33    1
    36    20    34    1
    37    21    35    1
@<TRIPOS>MOLECULE
mol32_1_25
 35 37 0 0 0
SMALL
USER_CHARGES
****
VDW energy = 82.67
@<TRIPOS>ATOM
   1 C1        1.4617   -10.1611    -4.6036  C.ar    1  <O>11      -0.0617
   2 C2        0.8050   -10.8783    -3.6012  C.ar    1  <O>11      -0.0611
   3 C3       -0.5391   -11.2290    -3.7692  C.ar    1  <O>11      -0.0524
   4 C4       -1.2224   -10.8607    -4.9311  C.ar    1  <O>11       0.0039
   5 C5       -2.6120   -11.2220    -5.1120  C.2     1  <O>11       0.1142
   6 N1       -3.0752   -12.4110    -4.6299  N.2     1  <O>11      -0.1787
   7 N2       -2.2434   -13.2453    -3.9876  N.pl3   1  <O>11      -0.2204
   8 C6       -2.7366   -14.5097    -3.4753  C.ar    1  <O>11       0.1380
   9 C7       -2.6908   -15.6613    -4.3040  C.ar    1  <O>11      -0.0203
  10 C8       -3.1560   -16.8741    -3.8006  C.ar    1  <O>11      -0.0570
  11 C9       -3.6767   -16.8986    -2.5012  C.ar    1  <O>11      -0.0435
  12 C10      -3.6924   -15.7280    -1.7442  C.ar    1  <O>11       0.0297
  13 N3       -3.2275   -14.5651    -2.2257  N.ar    1  <O>11      -0.2389
  14 C11      -3.5157   -10.3169    -5.8098  C.ar    1  <O>11       0.0912
  15 C12      -3.6640   -10.4310    -7.2174  C.ar    1  <O>11      -0.0341
  16 C13      -4.5363    -9.5686    -7.8756  C.ar    1  <O>11      -0.0583
  17 C14      -5.2146    -8.6041    -7.1199  C.ar    1  <O>11      -0.0436
  18 C15      -5.0199    -8.5473    -5.7399  C.ar    1  <O>11       0.0283
  19 N4       -4.1899    -9.3913    -5.1068  N.ar    1  <O>11      -0.2534
  20 C16      -0.5527   -10.1366    -5.9237  C.ar    1  <O>11      -0.0524
  21 C17       0.7874    -9.7806    -5.7650  C.ar    1  <O>11      -0.0611
  22 H1       -1.2635   -12.9900    -3.8603  H       1  <O>11       0.1760
  23 H2        2.4555    -9.9099    -4.4844  H       1  <O>11       0.0618
  24 H3        1.3082   -11.1481    -2.7415  H       1  <O>11       0.0618
  25 H4       -1.0275   -11.7615    -3.0324  H       1  <O>11       0.0624
  26 H5       -2.3185   -15.6011    -5.2646  H       1  <O>11       0.0652
  27 H6       -3.1179   -17.7331    -4.3713  H       1  <O>11       0.0619
  28 H7       -4.0465   -17.7775    -2.1063  H       1  <O>11       0.0633
  29 H8       -4.0727   -15.7567    -0.7852  H       1  <O>11       0.0830
  30 H9       -3.1335   -11.1423    -7.7443  H       1  <O>11       0.0639
  31 H10      -4.6795    -9.6382    -8.8953  H       1  <O>11       0.0619
  32 H11      -5.8549    -7.9392    -7.5815  H       1  <O>11       0.0633
  33 H12      -5.5280    -7.8368    -5.1904  H       1  <O>11       0.0830
  34 H13      -1.0552    -9.8628    -6.7825  H       1  <O>11       0.0624
  35 H14       1.2744    -9.2420    -6.4983  H       1  <O>11       0.0618
@<TRIPOS>BOND
     1     1     2   ar
     2     2     3   ar
     3     3     4   ar
     4     4     5    1
     5     5     6    2
     6     6     7    1
     7     7     8    1
     8     8     9   ar
     9     9    10   ar
    10    10    11   ar
    11    11    12   ar
    12    12    13   ar
    13     8    13   ar
    14     5    14    1
    15    14    15   ar
    16    15    16   ar
    17    16    17   ar
    18    17    18   ar
    19    18    19   ar
    20    14    19   ar
    21     4    20   ar
    22    20    21   ar
    23     1    21   ar
    24     7    22    1
    25     1    23    1
    26     2    24    1
    27     3    25    1
    28     9    26    1
    29    10    27    1
    30    11    28    1
    31    12    29    1
    32    15    30    1
    33    16    31    1
    34    17    32    1
    35    18    33    1
    36    20    34    1
    37    21    35    1
@<TRIPOS>MOLECULE
mol32_1_26
 35 37 0 0 0
SMALL
USER_CHARGES
****
VDW energy = 84.62
@<TRIPOS>ATOM
   1 C1        1.4617   -10.1611    -4.6036  C.ar    1  <O>11      -0.0617
   2 C2        0.8050   -10.8783    -3.6012  C.ar    1  <O>11      -0.0611
   3 C3       -0.5391   -11.2290    -3.7692  C.ar    1  <O>11      -0.0524
   4 C4       -1.2224   -10.8607    -4.9311  C.ar    1  <O>11       0.0039
   5 C5       -2.6120   -11.2220    -5.1120  C.2     1  <O>11       0.1142
   6 N1       -3.0752   -12.4110    -4.6299  N.2     1  <O>11      -0.1787
   7 N2       -2.2434   -13.2453    -3.9876  N.pl3   1  <O>11      -0.2204
   8 C6       -2.7366   -14.5097    -3.4753  C.ar    1  <O>11       0.1380
   9 C7       -2.2528   -15.7223    -4.0327  C.ar    1  <O>11      -0.0203
  10 C8       -2.7231   -16.9324    -3.5275  C.ar    1  <O>11      -0.0570
  11 C9       -3.6784   -16.8993    -2.5045  C.ar    1  <O>11      -0.0435
  12 C10      -4.1103   -15.6710    -2.0060  C.ar    1  <O>11       0.0297
  13 N3       -3.6424   -14.5074    -2.4828  N.ar    1  <O>11      -0.2389
  14 C11      -3.5157   -10.3169    -5.8098  C.ar    1  <O>11       0.0912
  15 C12      -3.6640   -10.4310    -7.2174  C.ar    1  <O>11      -0.0341
  16 C13      -4.5363    -9.5686    -7.8756  C.ar    1  <O>11      -0.0583
  17 C14      -5.2146    -8.6041    -7.1199  C.ar    1  <O>11      -0.0436
  18 C15      -5.0199    -8.5473    -5.7399  C.ar    1  <O>11       0.0283
  19 N4       -4.1899    -9.3913    -5.1068  N.ar    1  <O>11      -0.2534
  20 C16      -0.5527   -10.1366    -5.9237  C.ar    1  <O>11      -0.0524
  21 C17       0.7874    -9.7806    -5.7650  C.ar    1  <O>11      -0.0611
  22 H1       -1.2635   -12.9900    -3.8603  H       1  <O>11       0.1760
  23 H2        2.4555    -9.9099    -4.4844  H       1  <O>11       0.0618
  24 H3        1.3082   -11.1481    -2.7415  H       1  <O>11       0.0618
  25 H4       -1.0275   -11.7615    -3.0324  H       1  <O>11       0.0624
  26 H5       -1.5633   -15.7076    -4.8004  H       1  <O>11       0.0652
  27 H6       -2.3760   -17.8308    -3.8981  H       1  <O>11       0.0619
  28 H7       -4.0603   -17.7784    -2.1220  H       1  <O>11       0.0633
  29 H8       -4.8103   -15.6564    -1.2479  H       1  <O>11       0.0830
  30 H9       -3.1335   -11.1423    -7.7443  H       1  <O>11       0.0639
  31 H10      -4.6795    -9.6382    -8.8953  H       1  <O>11       0.0619
  32 H11      -5.8549    -7.9392    -7.5815  H       1  <O>11       0.0633
  33 H12      -5.5280    -7.8368    -5.1904  H       1  <O>11       0.0830
  34 H13      -1.0552    -9.8628    -6.7825  H       1  <O>11       0.0624
  35 H14       1.2744    -9.2420    -6.4983  H       1  <O>11       0.0618
@<TRIPOS>BOND
     1     1     2   ar
     2     2     3   ar
     3     3     4   ar
     4     4     5    1
     5     5     6    2
     6     6     7    1
     7     7     8    1
     8     8     9   ar
     9     9    10   ar
    10    10    11   ar
    11    11    12   ar
    12    12    13   ar
    13     8    13   ar
    14     5    14    1
    15    14    15   ar
    16    15    16   ar
    17    16    17   ar
    18    17    18   ar
    19    18    19   ar
    20    14    19   ar
    21     4    20   ar
    22    20    21   ar
    23     1    21   ar
    24     7    22    1
    25     1    23    1
    26     2    24    1
    27     3    25    1
    28     9    26    1
    29    10    27    1
    30    11    28    1
    31    12    29    1
    32    15    30    1
    33    16    31    1
    34    17    32    1
    35    18    33    1
    36    20    34    1
    37    21    35    1
@<TRIPOS>MOLECULE
mol32_1_27
 35 37 0 0 0
SMALL
USER_CHARGES
****
VDW energy = 88.67
@<TRIPOS>ATOM
   1 C1        1.4617   -10.1611    -4.6036  C.ar    1  <O>11      -0.0617
   2 C2        0.8050   -10.8783    -3.6012  C.ar    1  <O>11      -0.0611
   3 C3       -0.5391   -11.2290    -3.7692  C.ar    1  <O>11      -0.0524
   4 C4       -1.2224   -10.8607    -4.9311  C.ar    1  <O>11       0.0039
   5 C5       -2.6120   -11.2220    -5.1120  C.2     1  <O>11       0.1142
   6 N1       -3.0752   -12.4110    -4.6299  N.2     1  <O>11      -0.1787
   7 N2       -2.2434   -13.2453    -3.9876  N.pl3   1  <O>11      -0.2204
   8 C6       -2.7366   -14.5097    -3.4753  C.ar    1  <O>11       0.1380
   9 C7       -4.0101   -14.5576    -2.8499  C.ar    1  <O>11      -0.0203
  10 C8       -4.4813   -15.7779    -2.3707  C.ar    1  <O>11      -0.0570
  11 C9       -3.6619   -16.9053    -2.5032  C.ar    1  <O>11      -0.0435
  12 C10      -2.4209   -16.7842    -3.1270  C.ar    1  <O>11       0.0297
  13 N3       -1.9773   -15.6108    -3.6031  N.ar    1  <O>11      -0.2389
  14 C11      -3.5157   -10.3169    -5.8098  C.ar    1  <O>11       0.0912
  15 C12      -3.3350    -8.9147    -5.6766  C.ar    1  <O>11      -0.0341
  16 C13      -4.1968    -8.0565    -6.3538  C.ar    1  <O>11      -0.0583
  17 C14      -5.2257    -8.6164    -7.1215  C.ar    1  <O>11      -0.0436
  18 C15      -5.3458   -10.0034    -7.2067  C.ar    1  <O>11       0.0283
  19 N4       -4.5028   -10.8277    -6.5648  N.ar    1  <O>11      -0.2534
  20 C16      -0.5527   -10.1366    -5.9237  C.ar    1  <O>11      -0.0524
  21 C17       0.7874    -9.7806    -5.7650  C.ar    1  <O>11      -0.0611
  22 H1       -1.2635   -12.9900    -3.8603  H       1  <O>11       0.1760
  23 H2        2.4555    -9.9099    -4.4844  H       1  <O>11       0.0618
  24 H3        1.3082   -11.1481    -2.7415  H       1  <O>11       0.0618
  25 H4       -1.0275   -11.7615    -3.0324  H       1  <O>11       0.0624
  26 H5       -4.5781   -13.7016    -2.7517  H       1  <O>11       0.0652
  27 H6       -5.4113   -15.8490    -1.9290  H       1  <O>11       0.0619
  28 H7       -3.9744   -17.8199    -2.1416  H       1  <O>11       0.0633
  29 H8       -1.8260   -17.6218    -3.2255  H       1  <O>11       0.0830
  30 H9       -2.5766    -8.5377    -5.0869  H       1  <O>11       0.0639
  31 H10      -4.0805    -7.0329    -6.2916  H       1  <O>11       0.0619
  32 H11      -5.8912    -8.0062    -7.6214  H       1  <O>11       0.0633
  33 H12      -6.1037   -10.4072    -7.7790  H       1  <O>11       0.0830
  34 H13      -1.0552    -9.8628    -6.7825  H       1  <O>11       0.0624
  35 H14       1.2744    -9.2420    -6.4983  H       1  <O>11       0.0618
@<TRIPOS>BOND
     1     1     2   ar
     2     2     3   ar
     3     3     4   ar
     4     4     5    1
     5     5     6    2
     6     6     7    1
     7     7     8    1
     8     8     9   ar
     9     9    10   ar
    10    10    11   ar
    11    11    12   ar
    12    12    13   ar
    13     8    13   ar
    14     5    14    1
    15    14    15   ar
    16    15    16   ar
    17    16    17   ar
    18    17    18   ar
    19    18    19   ar
    20    14    19   ar
    21     4    20   ar
    22    20    21   ar
    23     1    21   ar
    24     7    22    1
    25     1    23    1
    26     2    24    1
    27     3    25    1
    28     9    26    1
    29    10    27    1
    30    11    28    1
    31    12    29    1
    32    15    30    1
    33    16    31    1
    34    17    32    1
    35    18    33    1
    36    20    34    1
    37    21    35    1
@<TRIPOS>MOLECULE
mol32_1_28
 35 37 0 0 0
SMALL
USER_CHARGES
****
VDW energy = 90.57
@<TRIPOS>ATOM
   1 C1        1.4617   -10.1611    -4.6036  C.ar    1  <O>11      -0.0617
   2 C2        0.8050   -10.8783    -3.6012  C.ar    1  <O>11      -0.0611
   3 C3       -0.5391   -11.2290    -3.7692  C.ar    1  <O>11      -0.0524
   4 C4       -1.2224   -10.8607    -4.9311  C.ar    1  <O>11       0.0039
   5 C5       -2.6120   -11.2220    -5.1120  C.2     1  <O>11       0.1142
   6 N1       -3.0752   -12.4110    -4.6299  N.2     1  <O>11      -0.1787
   7 N2       -2.2434   -13.2453    -3.9876  N.pl3   1  <O>11      -0.2204
   8 C6       -2.7366   -14.5097    -3.4753  C.ar    1  <O>11       0.1380
   9 C7       -2.6908   -15.6613    -4.3040  C.ar    1  <O>11      -0.0203
  10 C8       -3.1560   -16.8741    -3.8006  C.ar    1  <O>11      -0.0570
  11 C9       -3.6767   -16.8986    -2.5012  C.ar    1  <O>11      -0.0435
  12 C10      -3.6924   -15.7280    -1.7442  C.ar    1  <O>11       0.0297
  13 N3       -3.2275   -14.5651    -2.2257  N.ar    1  <O>11      -0.2389
  14 C11      -3.5157   -10.3169    -5.8098  C.ar    1  <O>11       0.0912
  15 C12      -3.3350    -8.9147    -5.6766  C.ar    1  <O>11      -0.0341
  16 C13      -4.1968    -8.0565    -6.3538  C.ar    1  <O>11      -0.0583
  17 C14      -5.2257    -8.6164    -7.1215  C.ar    1  <O>11      -0.0436
  18 C15      -5.3458   -10.0034    -7.2067  C.ar    1  <O>11       0.0283
  19 N4       -4.5028   -10.8277    -6.5648  N.ar    1  <O>11      -0.2534
  20 C16      -0.5527   -10.1366    -5.9237  C.ar    1  <O>11      -0.0524
  21 C17       0.7874    -9.7806    -5.7650  C.ar    1  <O>11      -0.0611
  22 H1       -1.2635   -12.9900    -3.8603  H       1  <O>11       0.1760
  23 H2        2.4555    -9.9099    -4.4844  H       1  <O>11       0.0618
  24 H3        1.3082   -11.1481    -2.7415  H       1  <O>11       0.0618
  25 H4       -1.0275   -11.7615    -3.0324  H       1  <O>11       0.0624
  26 H5       -2.3185   -15.6011    -5.2646  H       1  <O>11       0.0652
  27 H6       -3.1179   -17.7331    -4.3713  H       1  <O>11       0.0619
  28 H7       -4.0465   -17.7775    -2.1063  H       1  <O>11       0.0633
  29 H8       -4.0727   -15.7567    -0.7852  H       1  <O>11       0.0830
  30 H9       -2.5766    -8.5377    -5.0869  H       1  <O>11       0.0639
  31 H10      -4.0805    -7.0329    -6.2916  H       1  <O>11       0.0619
  32 H11      -5.8912    -8.0062    -7.6214  H       1  <O>11       0.0633
  33 H12      -6.1037   -10.4072    -7.7790  H       1  <O>11       0.0830
  34 H13      -1.0552    -9.8628    -6.7825  H       1  <O>11       0.0624
  35 H14       1.2744    -9.2420    -6.4983  H       1  <O>11       0.0618
@<TRIPOS>BOND
     1     1     2   ar
     2     2     3   ar
     3     3     4   ar
     4     4     5    1
     5     5     6    2
     6     6     7    1
     7     7     8    1
     8     8     9   ar
     9     9    10   ar
    10    10    11   ar
    11    11    12   ar
    12    12    13   ar
    13     8    13   ar
    14     5    14    1
    15    14    15   ar
    16    15    16   ar
    17    16    17   ar
    18    17    18   ar
    19    18    19   ar
    20    14    19   ar
    21     4    20   ar
    22    20    21   ar
    23     1    21   ar
    24     7    22    1
    25     1    23    1
    26     2    24    1
    27     3    25    1
    28     9    26    1
    29    10    27    1
    30    11    28    1
    31    12    29    1
    32    15    30    1
    33    16    31    1
    34    17    32    1
    35    18    33    1
    36    20    34    1
    37    21    35    1
@<TRIPOS>MOLECULE
mol32_1_29
 35 37 0 0 0
SMALL
USER_CHARGES
****
VDW energy = 92.66
@<TRIPOS>ATOM
   1 C1        1.4617   -10.1611    -4.6036  C.ar    1  <O>11      -0.0617
   2 C2        0.8050   -10.8783    -3.6012  C.ar    1  <O>11      -0.0611
   3 C3       -0.5391   -11.2290    -3.7692  C.ar    1  <O>11      -0.0524
   4 C4       -1.2224   -10.8607    -4.9311  C.ar    1  <O>11       0.0039
   5 C5       -2.6120   -11.2220    -5.1120  C.2     1  <O>11       0.1142
   6 N1       -3.0752   -12.4110    -4.6299  N.2     1  <O>11      -0.1787
   7 N2       -2.2434   -13.2453    -3.9876  N.pl3   1  <O>11      -0.2204
   8 C6       -2.7366   -14.5097    -3.4753  C.ar    1  <O>11       0.1380
   9 C7       -2.2528   -15.7223    -4.0327  C.ar    1  <O>11      -0.0203
  10 C8       -2.7231   -16.9324    -3.5275  C.ar    1  <O>11      -0.0570
  11 C9       -3.6784   -16.8993    -2.5045  C.ar    1  <O>11      -0.0435
  12 C10      -4.1103   -15.6710    -2.0060  C.ar    1  <O>11       0.0297
  13 N3       -3.6424   -14.5074    -2.4828  N.ar    1  <O>11      -0.2389
  14 C11      -3.5157   -10.3169    -5.8098  C.ar    1  <O>11       0.0912
  15 C12      -3.3350    -8.9147    -5.6766  C.ar    1  <O>11      -0.0341
  16 C13      -4.1968    -8.0565    -6.3538  C.ar    1  <O>11      -0.0583
  17 C14      -5.2257    -8.6164    -7.1215  C.ar    1  <O>11      -0.0436
  18 C15      -5.3458   -10.0034    -7.2067  C.ar    1  <O>11       0.0283
  19 N4       -4.5028   -10.8277    -6.5648  N.ar    1  <O>11      -0.2534
  20 C16      -0.5527   -10.1366    -5.9237  C.ar    1  <O>11      -0.0524
  21 C17       0.7874    -9.7806    -5.7650  C.ar    1  <O>11      -0.0611
  22 H1       -1.2635   -12.9900    -3.8603  H       1  <O>11       0.1760
  23 H2        2.4555    -9.9099    -4.4844  H       1  <O>11       0.0618
  24 H3        1.3082   -11.1481    -2.7415  H       1  <O>11       0.0618
  25 H4       -1.0275   -11.7615    -3.0324  H       1  <O>11       0.0624
  26 H5       -1.5633   -15.7076    -4.8004  H       1  <O>11       0.0652
  27 H6       -2.3760   -17.8308    -3.8981  H       1  <O>11       0.0619
  28 H7       -4.0603   -17.7784    -2.1220  H       1  <O>11       0.0633
  29 H8       -4.8103   -15.6564    -1.2479  H       1  <O>11       0.0830
  30 H9       -2.5766    -8.5377    -5.0869  H       1  <O>11       0.0639
  31 H10      -4.0805    -7.0329    -6.2916  H       1  <O>11       0.0619
  32 H11      -5.8912    -8.0062    -7.6214  H       1  <O>11       0.0633
  33 H12      -6.1037   -10.4072    -7.7790  H       1  <O>11       0.0830
  34 H13      -1.0552    -9.8628    -6.7825  H       1  <O>11       0.0624
  35 H14       1.2744    -9.2420    -6.4983  H       1  <O>11       0.0618
@<TRIPOS>BOND
     1     1     2   ar
     2     2     3   ar
     3     3     4   ar
     4     4     5    1
     5     5     6    2
     6     6     7    1
     7     7     8    1
     8     8     9   ar
     9     9    10   ar
    10    10    11   ar
    11    11    12   ar
    12    12    13   ar
    13     8    13   ar
    14     5    14    1
    15    14    15   ar
    16    15    16   ar
    17    16    17   ar
    18    17    18   ar
    19    18    19   ar
    20    14    19   ar
    21     4    20   ar
    22    20    21   ar
    23     1    21   ar
    24     7    22    1
    25     1    23    1
    26     2    24    1
    27     3    25    1
    28     9    26    1
    29    10    27    1
    30    11    28    1
    31    12    29    1
    32    15    30    1
    33    16    31    1
    34    17    32    1
    35    18    33    1
    36    20    34    1
    37    21    35    1
@<TRIPOS>MOLECULE
mol32_1_30
 35 37 0 0 0
SMALL
USER_CHARGES
****
VDW energy = 93.18
@<TRIPOS>ATOM
   1 C1        1.4617   -10.1611    -4.6036  C.ar    1  <O>11      -0.0617
   2 C2        0.8050   -10.8783    -3.6012  C.ar    1  <O>11      -0.0611
   3 C3       -0.5391   -11.2290    -3.7692  C.ar    1  <O>11      -0.0524
   4 C4       -1.2224   -10.8607    -4.9311  C.ar    1  <O>11       0.0039
   5 C5       -2.6120   -11.2220    -5.1120  C.2     1  <O>11       0.1142
   6 N1       -3.0752   -12.4110    -4.6299  N.2     1  <O>11      -0.1787
   7 N2       -2.2434   -13.2453    -3.9876  N.pl3   1  <O>11      -0.2204
   8 C6       -2.7366   -14.5097    -3.4753  C.ar    1  <O>11       0.1380
   9 C7       -2.7678   -14.7274    -2.0729  C.ar    1  <O>11      -0.0203
  10 C8       -3.2535   -15.9400    -1.5887  C.ar    1  <O>11      -0.0570
  11 C9       -3.6665   -16.9073    -2.5127  C.ar    1  <O>11      -0.0435
  12 C10      -3.6061   -16.6257    -3.8768  C.ar    1  <O>11       0.0297
  13 N3       -3.1541   -15.4501    -4.3395  N.ar    1  <O>11      -0.2389
  14 C11      -3.5157   -10.3169    -5.8098  C.ar    1  <O>11       0.0912
  15 C12      -3.3350    -8.9147    -5.6766  C.ar    1  <O>11      -0.0341
  16 C13      -4.1968    -8.0565    -6.3538  C.ar    1  <O>11      -0.0583
  17 C14      -5.2257    -8.6164    -7.1215  C.ar    1  <O>11      -0.0436
  18 C15      -5.3458   -10.0034    -7.2067  C.ar    1  <O>11       0.0283
  19 N4       -4.5028   -10.8277    -6.5648  N.ar    1  <O>11      -0.2534
  20 C16      -0.5527   -10.1366    -5.9237  C.ar    1  <O>11      -0.0524
  21 C17       0.7874    -9.7806    -5.7650  C.ar    1  <O>11      -0.0611
  22 H1       -1.2635   -12.9900    -3.8603  H       1  <O>11       0.1760
  23 H2        2.4555    -9.9099    -4.4844  H       1  <O>11       0.0618
  24 H3        1.3082   -11.1481    -2.7415  H       1  <O>11       0.0618
  25 H4       -1.0275   -11.7615    -3.0324  H       1  <O>11       0.0624
  26 H5       -2.4359   -13.9985    -1.4221  H       1  <O>11       0.0652
  27 H6       -3.3073   -16.1208    -0.5741  H       1  <O>11       0.0619
  28 H7       -4.0135   -17.8227    -2.1862  H       1  <O>11       0.0633
  29 H8       -3.9182   -17.3425    -4.5505  H       1  <O>11       0.0830
  30 H9       -2.5766    -8.5377    -5.0869  H       1  <O>11       0.0639
  31 H10      -4.0805    -7.0329    -6.2916  H       1  <O>11       0.0619
  32 H11      -5.8912    -8.0062    -7.6214  H       1  <O>11       0.0633
  33 H12      -6.1037   -10.4072    -7.7790  H       1  <O>11       0.0830
  34 H13      -1.0552    -9.8628    -6.7825  H       1  <O>11       0.0624
  35 H14       1.2744    -9.2420    -6.4983  H       1  <O>11       0.0618
@<TRIPOS>BOND
     1     1     2   ar
     2     2     3   ar
     3     3     4   ar
     4     4     5    1
     5     5     6    2
     6     6     7    1
     7     7     8    1
     8     8     9   ar
     9     9    10   ar
    10    10    11   ar
    11    11    12   ar
    12    12    13   ar
    13     8    13   ar
    14     5    14    1
    15    14    15   ar
    16    15    16   ar
    17    16    17   ar
    18    17    18   ar
    19    18    19   ar
    20    14    19   ar
    21     4    20   ar
    22    20    21   ar
    23     1    21   ar
    24     7    22    1
    25     1    23    1
    26     2    24    1
    27     3    25    1
    28     9    26    1
    29    10    27    1
    30    11    28    1
    31    12    29    1
    32    15    30    1
    33    16    31    1
    34    17    32    1
    35    18    33    1
    36    20    34    1
    37    21    35    1
@<TRIPOS>MOLECULE
mol32_2_1
 35 37 0 0 0
SMALL
USER_CHARGES
****
VDW energy = 130.53
@<TRIPOS>ATOM
   1 C1        7.2370     1.9570     8.3000  C.ar    1  <O>11      -0.0617
   2 C2        6.8740     2.1370     6.9630  C.ar    1  <O>11      -0.0611
   3 C3        5.7170     2.8580     6.6520  C.ar    1  <O>11      -0.0524
   4 C4        4.9179     3.3974     7.6705  C.ar    1  <O>11       0.0039
   5 C5        3.7140     4.1510     7.3470  C.2     1  <O>11       0.1142
   6 N1        2.5578     3.4937     7.0472  N.2     1  <O>11      -0.1787
   7 N2        2.5288     2.1520     7.0497  N.pl3   1  <O>11      -0.2204
   8 C6        3.7269     1.4009     7.3712  C.ar    1  <O>11       0.1380
   9 C7        4.0434     1.1412     8.7317  C.ar    1  <O>11      -0.0203
  10 C8        5.1901     0.4116     9.0295  C.ar    1  <O>11      -0.0570
  11 C9        6.0006    -0.0168     7.9705  C.ar    1  <O>11      -0.0435
  12 C10       5.6308     0.2744     6.6579  C.ar    1  <O>11       0.0297
  13 N3        4.5152     0.9656     6.3740  N.ar    1  <O>11      -0.2389
  14 C11       3.7447     5.5981     7.3446  C.ar    1  <O>11       0.0912
  15 C12       3.4423     6.2789     6.1788  C.ar    1  <O>11      -0.0341
  16 C13       3.4699     7.6708     6.2032  C.ar    1  <O>11      -0.0583
  17 C14       3.8246     8.3096     7.3971  C.ar    1  <O>11      -0.0436
  18 C15       4.1160     7.5447     8.5262  C.ar    1  <O>11       0.0283
  19 N4        4.0744     6.2044     8.5046  N.ar    1  <O>11      -0.2534
  20 C16       5.2980     3.1980     9.0060  C.ar    1  <O>11      -0.0524
  21 C17       6.4500     2.4790     9.3270  C.ar    1  <O>11      -0.0611
  22 H1        1.6628     1.6602     6.8246  H       1  <O>11       0.1760
  23 H2        8.0956     1.4328     8.5302  H       1  <O>11       0.0618
  24 H3        7.4565     1.7401     6.2092  H       1  <O>11       0.0618
  25 H4        5.4489     2.9943     5.6648  H       1  <O>11       0.0624
  26 H5        3.4323     1.4884     9.4873  H       1  <O>11       0.0652
  27 H6        5.4375     0.1915    10.0070  H       1  <O>11       0.0619
  28 H7        6.8665    -0.5450     8.1605  H       1  <O>11       0.0633
  29 H8        6.2309    -0.0502     5.8836  H       1  <O>11       0.0830
  30 H9        3.2026     5.7689     5.3143  H       1  <O>11       0.0639
  31 H10       3.2344     8.2186     5.3608  H       1  <O>11       0.0619
  32 H11       3.8702     9.3397     7.4414  H       1  <O>11       0.0633
  33 H12       4.3710     8.0240     9.4039  H       1  <O>11       0.0830
  34 H13       4.7163     3.5894     9.7633  H       1  <O>11       0.0624
  35 H14       6.7170     2.3349    10.3134  H       1  <O>11       0.0618
@<TRIPOS>BOND
     1     1     2   ar
     2     2     3   ar
     3     3     4   ar
     4     4     5    1
     5     5     6    2
     6     6     7    1
     7     7     8    1
     8     8     9   ar
     9     9    10   ar
    10    10    11   ar
    11    11    12   ar
    12    12    13   ar
    13     8    13   ar
    14     5    14    1
    15    14    15   ar
    16    15    16   ar
    17    16    17   ar
    18    17    18   ar
    19    18    19   ar
    20    14    19   ar
    21     4    20   ar
    22    20    21   ar
    23     1    21   ar
    24     7    22    1
    25     1    23    1
    26     2    24    1
    27     3    25    1
    28     9    26    1
    29    10    27    1
    30    11    28    1
    31    12    29    1
    32    15    30    1
    33    16    31    1
    34    17    32    1
    35    18    33    1
    36    20    34    1
    37    21    35    1
@<TRIPOS>MOLECULE
mol32_2_2
 35 37 0 0 0
SMALL
USER_CHARGES
****
VDW energy = 131.24
@<TRIPOS>ATOM
   1 C1        7.2370     1.9570     8.3000  C.ar    1  <O>11      -0.0617
   2 C2        6.8740     2.1370     6.9630  C.ar    1  <O>11      -0.0611
   3 C3        5.7170     2.8580     6.6520  C.ar    1  <O>11      -0.0524
   4 C4        4.9179     3.3974     7.6705  C.ar    1  <O>11       0.0039
   5 C5        3.7140     4.1510     7.3470  C.2     1  <O>11       0.1142
   6 N1        2.5578     3.4937     7.0472  N.2     1  <O>11      -0.1787
   7 N2        2.5288     2.1520     7.0497  N.pl3   1  <O>11      -0.2204
   8 C6        3.7269     1.4009     7.3712  C.ar    1  <O>11       0.1380
   9 C7        4.0434     1.1412     8.7317  C.ar    1  <O>11      -0.0203
  10 C8        5.1901     0.4116     9.0295  C.ar    1  <O>11      -0.0570
  11 C9        6.0006    -0.0168     7.9705  C.ar    1  <O>11      -0.0435
  12 C10       5.6308     0.2744     6.6579  C.ar    1  <O>11       0.0297
  13 N3        4.5152     0.9656     6.3740  N.ar    1  <O>11      -0.2389
  14 C11       3.7447     5.5981     7.3446  C.ar    1  <O>11       0.0912
  15 C12       2.9082     6.2937     8.1992  C.ar    1  <O>11      -0.0341
  16 C13       2.9619     7.6850     8.1851  C.ar    1  <O>11      -0.0583
  17 C14       3.8406     8.3091     7.2921  C.ar    1  <O>11      -0.0436
  18 C15       4.6481     7.5299     6.4640  C.ar    1  <O>11       0.0283
  19 N4        4.6055     6.1897     6.4896  N.ar    1  <O>11      -0.2534
  20 C16       5.2980     3.1980     9.0060  C.ar    1  <O>11      -0.0524
  21 C17       6.4500     2.4790     9.3270  C.ar    1  <O>11      -0.0611
  22 H1        1.6628     1.6602     6.8246  H       1  <O>11       0.1760
  23 H2        8.0956     1.4328     8.5302  H       1  <O>11       0.0618
  24 H3        7.4565     1.7401     6.2092  H       1  <O>11       0.0618
  25 H4        5.4489     2.9943     5.6648  H       1  <O>11       0.0624
  26 H5        3.4323     1.4884     9.4873  H       1  <O>11       0.0652
  27 H6        5.4375     0.1915    10.0070  H       1  <O>11       0.0619
  28 H7        6.8665    -0.5450     8.1605  H       1  <O>11       0.0633
  29 H8        6.2309    -0.0502     5.8836  H       1  <O>11       0.0830
  30 H9        2.2618     5.7948     8.8302  H       1  <O>11       0.0639
  31 H10       2.3677     8.2428     8.8183  H       1  <O>11       0.0619
  32 H11       3.8906     9.3389     7.2468  H       1  <O>11       0.0633
  33 H12       5.2972     7.9983     5.8126  H       1  <O>11       0.0830
  34 H13       4.7163     3.5894     9.7633  H       1  <O>11       0.0624
  35 H14       6.7170     2.3349    10.3134  H       1  <O>11       0.0618
@<TRIPOS>BOND
     1     1     2   ar
     2     2     3   ar
     3     3     4   ar
     4     4     5    1
     5     5     6    2
     6     6     7    1
     7     7     8    1
     8     8     9   ar
     9     9    10   ar
    10    10    11   ar
    11    11    12   ar
    12    12    13   ar
    13     8    13   ar
    14     5    14    1
    15    14    15   ar
    16    15    16   ar
    17    16    17   ar
    18    17    18   ar
    19    18    19   ar
    20    14    19   ar
    21     4    20   ar
    22    20    21   ar
    23     1    21   ar
    24     7    22    1
    25     1    23    1
    26     2    24    1
    27     3    25    1
    28     9    26    1
    29    10    27    1
    30    11    28    1
    31    12    29    1
    32    15    30    1
    33    16    31    1
    34    17    32    1
    35    18    33    1
    36    20    34    1
    37    21    35    1
@<TRIPOS>MOLECULE
mol32_2_3
 35 37 0 0 0
SMALL
USER_CHARGES
****
VDW energy = 131.69
@<TRIPOS>ATOM
   1 C1        7.2370     1.9570     8.3000  C.ar    1  <O>11      -0.0617
   2 C2        6.8740     2.1370     6.9630  C.ar    1  <O>11      -0.0611
   3 C3        5.7170     2.8580     6.6520  C.ar    1  <O>11      -0.0524
   4 C4        4.9179     3.3974     7.6705  C.ar    1  <O>11       0.0039
   5 C5        3.7140     4.1510     7.3470  C.2     1  <O>11       0.1142
   6 N1        2.5578     3.4937     7.0472  N.2     1  <O>11      -0.1787
   7 N2        2.5288     2.1520     7.0497  N.pl3   1  <O>11      -0.2204
   8 C6        3.7269     1.4009     7.3712  C.ar    1  <O>11       0.1380
   9 C7        4.0434     1.1412     8.7317  C.ar    1  <O>11      -0.0203
  10 C8        5.1901     0.4116     9.0295  C.ar    1  <O>11      -0.0570
  11 C9        6.0006    -0.0168     7.9705  C.ar    1  <O>11      -0.0435
  12 C10       5.6308     0.2744     6.6579  C.ar    1  <O>11       0.0297
  13 N3        4.5152     0.9656     6.3740  N.ar    1  <O>11      -0.2389
  14 C11       3.7447     5.5981     7.3446  C.ar    1  <O>11       0.0912
  15 C12       4.0681     6.2656     6.1767  C.ar    1  <O>11      -0.0341
  16 C13       4.0826     7.6578     6.1966  C.ar    1  <O>11      -0.0583
  17 C14       3.7930     8.3103     7.4006  C.ar    1  <O>11      -0.0436
  18 C15       3.4782     7.5583     8.5321  C.ar    1  <O>11       0.0283
  19 N4        3.4503     6.2177     8.5071  N.ar    1  <O>11      -0.2534
  20 C16       5.2980     3.1980     9.0060  C.ar    1  <O>11      -0.0524
  21 C17       6.4500     2.4790     9.3270  C.ar    1  <O>11      -0.0611
  22 H1        1.6628     1.6602     6.8246  H       1  <O>11       0.1760
  23 H2        8.0956     1.4328     8.5302  H       1  <O>11       0.0618
  24 H3        7.4565     1.7401     6.2092  H       1  <O>11       0.0618
  25 H4        5.4489     2.9943     5.6648  H       1  <O>11       0.0624
  26 H5        3.4323     1.4884     9.4873  H       1  <O>11       0.0652
  27 H6        5.4375     0.1915    10.0070  H       1  <O>11       0.0619
  28 H7        6.8665    -0.5450     8.1605  H       1  <O>11       0.0633
  29 H8        6.2309    -0.0502     5.8836  H       1  <O>11       0.0830
  30 H9        4.2926     5.7457     5.3140  H       1  <O>11       0.0639
  31 H10       4.3017     8.1959     5.3436  H       1  <O>11       0.0619
  32 H11       3.8123     9.3409     7.4506  H       1  <O>11       0.0633
  33 H12       3.2604     8.0476     9.4142  H       1  <O>11       0.0830
  34 H13       4.7163     3.5894     9.7633  H       1  <O>11       0.0624
  35 H14       6.7170     2.3349    10.3134  H       1  <O>11       0.0618
@<TRIPOS>BOND
     1     1     2   ar
     2     2     3   ar
     3     3     4   ar
     4     4     5    1
     5     5     6    2
     6     6     7    1
     7     7     8    1
     8     8     9   ar
     9     9    10   ar
    10    10    11   ar
    11    11    12   ar
    12    12    13   ar
    13     8    13   ar
    14     5    14    1
    15    14    15   ar
    16    15    16   ar
    17    16    17   ar
    18    17    18   ar
    19    18    19   ar
    20    14    19   ar
    21     4    20   ar
    22    20    21   ar
    23     1    21   ar
    24     7    22    1
    25     1    23    1
    26     2    24    1
    27     3    25    1
    28     9    26    1
    29    10    27    1
    30    11    28    1
    31    12    29    1
    32    15    30    1
    33    16    31    1
    34    17    32    1
    35    18    33    1
    36    20    34    1
    37    21    35    1
@<TRIPOS>MOLECULE
mol32_2_4
 35 37 0 0 0
SMALL
USER_CHARGES
****
VDW energy = 133.03
@<TRIPOS>ATOM
   1 C1        7.2370     1.9570     8.3000  C.ar    1  <O>11      -0.0617
   2 C2        6.8740     2.1370     6.9630  C.ar    1  <O>11      -0.0611
   3 C3        5.7170     2.8580     6.6520  C.ar    1  <O>11      -0.0524
   4 C4        4.9179     3.3974     7.6705  C.ar    1  <O>11       0.0039
   5 C5        3.7140     4.1510     7.3470  C.2     1  <O>11       0.1142
   6 N1        2.5578     3.4937     7.0472  N.2     1  <O>11      -0.1787
   7 N2        2.5288     2.1520     7.0497  N.pl3   1  <O>11      -0.2204
   8 C6        3.7269     1.4009     7.3712  C.ar    1  <O>11       0.1380
   9 C7        4.0434     1.1412     8.7317  C.ar    1  <O>11      -0.0203
  10 C8        5.1901     0.4116     9.0295  C.ar    1  <O>11      -0.0570
  11 C9        6.0006    -0.0168     7.9705  C.ar    1  <O>11      -0.0435
  12 C10       5.6308     0.2744     6.6579  C.ar    1  <O>11       0.0297
  13 N3        4.5152     0.9656     6.3740  N.ar    1  <O>11      -0.2389
  14 C11       3.7447     5.5981     7.3446  C.ar    1  <O>11       0.0912
  15 C12       3.4500     6.2827     8.5101  C.ar    1  <O>11      -0.0341
  16 C13       3.4946     7.6742     8.4855  C.ar    1  <O>11      -0.0583
  17 C14       3.8115     8.3097     7.2794  C.ar    1  <O>11      -0.0436
  18 C15       4.0941     7.5412     6.1504  C.ar    1  <O>11       0.0283
  19 N4        4.0650     6.2007     6.1800  N.ar    1  <O>11      -0.2534
  20 C16       5.2980     3.1980     9.0060  C.ar    1  <O>11      -0.0524
  21 C17       6.4500     2.4790     9.3270  C.ar    1  <O>11      -0.0611
  22 H1        1.6628     1.6602     6.8246  H       1  <O>11       0.1760
  23 H2        8.0956     1.4328     8.5302  H       1  <O>11       0.0618
  24 H3        7.4565     1.7401     6.2092  H       1  <O>11       0.0618
  25 H4        5.4489     2.9943     5.6648  H       1  <O>11       0.0624
  26 H5        3.4323     1.4884     9.4873  H       1  <O>11       0.0652
  27 H6        5.4375     0.1915    10.0070  H       1  <O>11       0.0619
  28 H7        6.8665    -0.5450     8.1605  H       1  <O>11       0.0633
  29 H8        6.2309    -0.0502     5.8836  H       1  <O>11       0.0830
  30 H9        3.2037     5.7757     9.3745  H       1  <O>11       0.0639
  31 H10       3.2986     8.2240     9.3367  H       1  <O>11       0.0619
  32 H11       3.8360     9.3400     7.2258  H       1  <O>11       0.0633
  33 H12       4.3324     8.0178     5.2666  H       1  <O>11       0.0830
  34 H13       4.7163     3.5894     9.7633  H       1  <O>11       0.0624
  35 H14       6.7170     2.3349    10.3134  H       1  <O>11       0.0618
@<TRIPOS>BOND
     1     1     2   ar
     2     2     3   ar
     3     3     4   ar
     4     4     5    1
     5     5     6    2
     6     6     7    1
     7     7     8    1
     8     8     9   ar
     9     9    10   ar
    10    10    11   ar
    11    11    12   ar
    12    12    13   ar
    13     8    13   ar
    14     5    14    1
    15    14    15   ar
    16    15    16   ar
    17    16    17   ar
    18    17    18   ar
    19    18    19   ar
    20    14    19   ar
    21     4    20   ar
    22    20    21   ar
    23     1    21   ar
    24     7    22    1
    25     1    23    1
    26     2    24    1
    27     3    25    1
    28     9    26    1
    29    10    27    1
    30    11    28    1
    31    12    29    1
    32    15    30    1
    33    16    31    1
    34    17    32    1
    35    18    33    1
    36    20    34    1
    37    21    35    1
@<TRIPOS>MOLECULE
mol32_2_5
 35 37 0 0 0
SMALL
USER_CHARGES
****
VDW energy = 134.79
@<TRIPOS>ATOM
   1 C1        7.2370     1.9570     8.3000  C.ar    1  <O>11      -0.0617
   2 C2        6.8740     2.1370     6.9630  C.ar    1  <O>11      -0.0611
   3 C3        5.7170     2.8580     6.6520  C.ar    1  <O>11      -0.0524
   4 C4        4.9179     3.3974     7.6705  C.ar    1  <O>11       0.0039
   5 C5        3.7140     4.1510     7.3470  C.2     1  <O>11       0.1142
   6 N1        3.7826     5.5001     7.1632  N.2     1  <O>11      -0.1787
   7 N2        4.9595     6.1343     7.2805  N.pl3   1  <O>11      -0.2204
   8 C6        6.1585     5.3850     7.6030  C.ar    1  <O>11       0.1380
   9 C7        6.5209     5.2007     8.9644  C.ar    1  <O>11      -0.0203
  10 C8        7.6680     4.4724     9.2639  C.ar    1  <O>11      -0.0570
  11 C9        8.4336     3.9704     8.2039  C.ar    1  <O>11      -0.0435
  12 C10       8.0202     4.1897     6.8904  C.ar    1  <O>11       0.0297
  13 N3        6.9042     4.8800     6.6060  N.ar    1  <O>11      -0.2389
  14 C11       2.4445     3.4674     7.2199  C.ar    1  <O>11       0.0912
  15 C12       1.7621     3.5264     6.0178  C.ar    1  <O>11      -0.0341
  16 C13       0.5472     2.8537     5.9168  C.ar    1  <O>11      -0.0583
  17 C14       0.0668     2.1727     7.0414  C.ar    1  <O>11      -0.0436
  18 C15       0.8199     2.1660     8.2152  C.ar    1  <O>11       0.0283
  19 N4        1.9970     2.8023     8.3058  N.ar    1  <O>11      -0.2534
  20 C16       5.2980     3.1980     9.0060  C.ar    1  <O>11      -0.0524
  21 C17       6.4500     2.4790     9.3270  C.ar    1  <O>11      -0.0611
  22 H1        5.0103     7.1448     7.1432  H       1  <O>11       0.1760
  23 H2        8.0956     1.4328     8.5302  H       1  <O>11       0.0618
  24 H3        7.4565     1.7401     6.2092  H       1  <O>11       0.0618
  25 H4        5.4489     2.9943     5.6648  H       1  <O>11       0.0624
  26 H5        5.9423     5.6009     9.7195  H       1  <O>11       0.0652
  27 H6        7.9478     4.3062    10.2432  H       1  <O>11       0.0619
  28 H7        9.2989     3.4410     8.3939  H       1  <O>11       0.0633
  29 H8        8.5874     3.8111     6.1157  H       1  <O>11       0.0830
  30 H9        2.1433     4.0547     5.2175  H       1  <O>11       0.0639
  31 H10       0.0135     2.8571     5.0335  H       1  <O>11       0.0619
  32 H11      -0.8385     1.6790     7.0022  H       1  <O>11       0.0633
  33 H12       0.4610     1.6567     9.0379  H       1  <O>11       0.0830
  34 H13       4.7163     3.5894     9.7633  H       1  <O>11       0.0624
  35 H14       6.7170     2.3349    10.3134  H       1  <O>11       0.0618
@<TRIPOS>BOND
     1     1     2   ar
     2     2     3   ar
     3     3     4   ar
     4     4     5    1
     5     5     6    2
     6     6     7    1
     7     7     8    1
     8     8     9   ar
     9     9    10   ar
    10    10    11   ar
    11    11    12   ar
    12    12    13   ar
    13     8    13   ar
    14     5    14    1
    15    14    15   ar
    16    15    16   ar
    17    16    17   ar
    18    17    18   ar
    19    18    19   ar
    20    14    19   ar
    21     4    20   ar
    22    20    21   ar
    23     1    21   ar
    24     7    22    1
    25     1    23    1
    26     2    24    1
    27     3    25    1
    28     9    26    1
    29    10    27    1
    30    11    28    1
    31    12    29    1
    32    15    30    1
    33    16    31    1
    34    17    32    1
    35    18    33    1
    36    20    34    1
    37    21    35    1
@<TRIPOS>MOLECULE
mol32_2_6
 35 37 0 0 0
SMALL
USER_CHARGES
****
VDW energy = 136.08
@<TRIPOS>ATOM
   1 C1        7.2370     1.9570     8.3000  C.ar    1  <O>11      -0.0617
   2 C2        6.8740     2.1370     6.9630  C.ar    1  <O>11      -0.0611
   3 C3        5.7170     2.8580     6.6520  C.ar    1  <O>11      -0.0524
   4 C4        4.9179     3.3974     7.6705  C.ar    1  <O>11       0.0039
   5 C5        3.7140     4.1510     7.3470  C.2     1  <O>11       0.1142
   6 N1        3.7826     5.5001     7.1632  N.2     1  <O>11      -0.1787
   7 N2        4.9595     6.1343     7.2805  N.pl3   1  <O>11      -0.2204
   8 C6        6.1585     5.3850     7.6030  C.ar    1  <O>11       0.1380
   9 C7        6.5209     5.2007     8.9644  C.ar    1  <O>11      -0.0203
  10 C8        7.6680     4.4724     9.2639  C.ar    1  <O>11      -0.0570
  11 C9        8.4336     3.9704     8.2039  C.ar    1  <O>11      -0.0435
  12 C10       8.0202     4.1897     6.8904  C.ar    1  <O>11       0.0297
  13 N3        6.9042     4.8800     6.6060  N.ar    1  <O>11      -0.2389
  14 C11       2.4445     3.4674     7.2199  C.ar    1  <O>11       0.0912
  15 C12       1.3996     3.8209     8.0548  C.ar    1  <O>11      -0.0341
  16 C13       0.1853     3.1554     7.9079  C.ar    1  <O>11      -0.0583
  17 C14       0.0902     2.1480     6.9409  C.ar    1  <O>11      -0.0436
  18 C15       1.1950     1.8549     6.1419  C.ar    1  <O>11       0.0283
  19 N4        2.3592     2.5073     6.2750  N.ar    1  <O>11      -0.2534
  20 C16       5.2980     3.1980     9.0060  C.ar    1  <O>11      -0.0524
  21 C17       6.4500     2.4790     9.3270  C.ar    1  <O>11      -0.0611
  22 H1        5.0103     7.1448     7.1432  H       1  <O>11       0.1760
  23 H2        8.0956     1.4328     8.5302  H       1  <O>11       0.0618
  24 H3        7.4565     1.7401     6.2092  H       1  <O>11       0.0618
  25 H4        5.4489     2.9943     5.6648  H       1  <O>11       0.0624
  26 H5        5.9423     5.6009     9.7195  H       1  <O>11       0.0652
  27 H6        7.9478     4.3062    10.2432  H       1  <O>11       0.0619
  28 H7        9.2989     3.4410     8.3939  H       1  <O>11       0.0633
  29 H8        8.5874     3.8111     6.1157  H       1  <O>11       0.0830
  30 H9        1.5168     4.5581     8.7674  H       1  <O>11       0.0639
  31 H10      -0.6254     3.3993     8.4981  H       1  <O>11       0.0619
  32 H11      -0.7916     1.6256     6.8199  H       1  <O>11       0.0633
  33 H12       1.1144     1.1145     5.4275  H       1  <O>11       0.0830
  34 H13       4.7163     3.5894     9.7633  H       1  <O>11       0.0624
  35 H14       6.7170     2.3349    10.3134  H       1  <O>11       0.0618
@<TRIPOS>BOND
     1     1     2   ar
     2     2     3   ar
     3     3     4   ar
     4     4     5    1
     5     5     6    2
     6     6     7    1
     7     7     8    1
     8     8     9   ar
     9     9    10   ar
    10    10    11   ar
    11    11    12   ar
    12    12    13   ar
    13     8    13   ar
    14     5    14    1
    15    14    15   ar
    16    15    16   ar
    17    16    17   ar
    18    17    18   ar
    19    18    19   ar
    20    14    19   ar
    21     4    20   ar
    22    20    21   ar
    23     1    21   ar
    24     7    22    1
    25     1    23    1
    26     2    24    1
    27     3    25    1
    28     9    26    1
    29    10    27    1
    30    11    28    1
    31    12    29    1
    32    15    30    1
    33    16    31    1
    34    17    32    1
    35    18    33    1
    36    20    34    1
    37    21    35    1
@<TRIPOS>MOLECULE
mol32_2_7
 35 37 0 0 0
SMALL
USER_CHARGES
****
VDW energy = 136.18
@<TRIPOS>ATOM
   1 C1        7.2370     1.9570     8.3000  C.ar    1  <O>11      -0.0617
   2 C2        6.8740     2.1370     6.9630  C.ar    1  <O>11      -0.0611
   3 C3        5.7170     2.8580     6.6520  C.ar    1  <O>11      -0.0524
   4 C4        4.9179     3.3974     7.6705  C.ar    1  <O>11       0.0039
   5 C5        3.7140     4.1510     7.3470  C.2     1  <O>11       0.1142
   6 N1        3.7826     5.5001     7.1632  N.2     1  <O>11      -0.1787
   7 N2        4.9595     6.1343     7.2805  N.pl3   1  <O>11      -0.2204
   8 C6        6.1585     5.3850     7.6030  C.ar    1  <O>11       0.1380
   9 C7        6.5209     5.2007     8.9644  C.ar    1  <O>11      -0.0203
  10 C8        7.6680     4.4724     9.2639  C.ar    1  <O>11      -0.0570
  11 C9        8.4336     3.9704     8.2039  C.ar    1  <O>11      -0.0435
  12 C10       8.0202     4.1897     6.8904  C.ar    1  <O>11       0.0297
  13 N3        6.9042     4.8800     6.6060  N.ar    1  <O>11      -0.2389
  14 C11       2.4445     3.4674     7.2199  C.ar    1  <O>11       0.0912
  15 C12       2.0605     2.9785     5.9839  C.ar    1  <O>11      -0.0341
  16 C13       0.8391     2.3169     5.8882  C.ar    1  <O>11      -0.0583
  17 C14       0.0519     2.2007     7.0397  C.ar    1  <O>11      -0.0436
  18 C15       0.5160     2.7247     8.2460  C.ar    1  <O>11       0.0283
  19 N4        1.6995     3.3486     8.3392  N.ar    1  <O>11      -0.2534
  20 C16       5.2980     3.1980     9.0060  C.ar    1  <O>11      -0.0524
  21 C17       6.4500     2.4790     9.3270  C.ar    1  <O>11      -0.0611
  22 H1        5.0103     7.1448     7.1432  H       1  <O>11       0.1760
  23 H2        8.0956     1.4328     8.5302  H       1  <O>11       0.0618
  24 H3        7.4565     1.7401     6.2092  H       1  <O>11       0.0618
  25 H4        5.4489     2.9943     5.6648  H       1  <O>11       0.0624
  26 H5        5.9423     5.6009     9.7195  H       1  <O>11       0.0652
  27 H6        7.9478     4.3062    10.2432  H       1  <O>11       0.0619
  28 H7        9.2989     3.4410     8.3939  H       1  <O>11       0.0633
  29 H8        8.5874     3.8111     6.1157  H       1  <O>11       0.0830
  30 H9        2.6632     3.1009     5.1552  H       1  <O>11       0.0639
  31 H10       0.5217     1.9215     4.9893  H       1  <O>11       0.0619
  32 H11      -0.8657     1.7305     6.9965  H       1  <O>11       0.0633
  33 H12      -0.0682     2.6296     9.0914  H       1  <O>11       0.0830
  34 H13       4.7163     3.5894     9.7633  H       1  <O>11       0.0624
  35 H14       6.7170     2.3349    10.3134  H       1  <O>11       0.0618
@<TRIPOS>BOND
     1     1     2   ar
     2     2     3   ar
     3     3     4   ar
     4     4     5    1
     5     5     6    2
     6     6     7    1
     7     7     8    1
     8     8     9   ar
     9     9    10   ar
    10    10    11   ar
    11    11    12   ar
    12    12    13   ar
    13     8    13   ar
    14     5    14    1
    15    14    15   ar
    16    15    16   ar
    17    16    17   ar
    18    17    18   ar
    19    18    19   ar
    20    14    19   ar
    21     4    20   ar
    22    20    21   ar
    23     1    21   ar
    24     7    22    1
    25     1    23    1
    26     2    24    1
    27     3    25    1
    28     9    26    1
    29    10    27    1
    30    11    28    1
    31    12    29    1
    32    15    30    1
    33    16    31    1
    34    17    32    1
    35    18    33    1
    36    20    34    1
    37    21    35    1
@<TRIPOS>MOLECULE
mol32_2_8
 35 37 0 0 0
SMALL
USER_CHARGES
****
VDW energy = 137.63
@<TRIPOS>ATOM
   1 C1        7.2370     1.9570     8.3000  C.ar    1  <O>11      -0.0617
   2 C2        6.8740     2.1370     6.9630  C.ar    1  <O>11      -0.0611
   3 C3        5.7170     2.8580     6.6520  C.ar    1  <O>11      -0.0524
   4 C4        4.9179     3.3974     7.6705  C.ar    1  <O>11       0.0039
   5 C5        3.7140     4.1510     7.3470  C.2     1  <O>11       0.1142
   6 N1        3.7826     5.5001     7.1632  N.2     1  <O>11      -0.1787
   7 N2        4.9595     6.1343     7.2805  N.pl3   1  <O>11      -0.2204
   8 C6        6.1585     5.3850     7.6030  C.ar    1  <O>11       0.1380
   9 C7        6.5209     5.2007     8.9644  C.ar    1  <O>11      -0.0203
  10 C8        7.6680     4.4724     9.2639  C.ar    1  <O>11      -0.0570
  11 C9        8.4336     3.9704     8.2039  C.ar    1  <O>11      -0.0435
  12 C10       8.0202     4.1897     6.8904  C.ar    1  <O>11       0.0297
  13 N3        6.9042     4.8800     6.6060  N.ar    1  <O>11      -0.2389
  14 C11       2.4445     3.4674     7.2199  C.ar    1  <O>11       0.0912
  15 C12       1.6423     3.3177     8.3370  C.ar    1  <O>11      -0.0341
  16 C13       0.4217     2.6644     8.1883  C.ar    1  <O>11      -0.0583
  17 C14       0.0789     2.1722     6.9236  C.ar    1  <O>11      -0.0436
  18 C15       0.9487     2.3664     5.8509  C.ar    1  <O>11       0.0283
  19 N4        2.1173     3.0090     5.9932  N.ar    1  <O>11      -0.2534
  20 C16       5.2980     3.1980     9.0060  C.ar    1  <O>11      -0.0524
  21 C17       6.4500     2.4790     9.3270  C.ar    1  <O>11      -0.0611
  22 H1        5.0103     7.1448     7.1432  H       1  <O>11       0.1760
  23 H2        8.0956     1.4328     8.5302  H       1  <O>11       0.0618
  24 H3        7.4565     1.7401     6.2092  H       1  <O>11       0.0618
  25 H4        5.4489     2.9943     5.6648  H       1  <O>11       0.0624
  26 H5        5.9423     5.6009     9.7195  H       1  <O>11       0.0652
  27 H6        7.9478     4.3062    10.2432  H       1  <O>11       0.0619
  28 H7        9.2989     3.4410     8.3939  H       1  <O>11       0.0633
  29 H8        8.5874     3.8111     6.1157  H       1  <O>11       0.0830
  30 H9        1.9405     3.6804     9.2560  H       1  <O>11       0.0639
  31 H10      -0.2153     2.5459     8.9916  H       1  <O>11       0.0619
  32 H11      -0.8115     1.6689     6.7858  H       1  <O>11       0.0633
  33 H12       0.6856     2.0053     4.9207  H       1  <O>11       0.0830
  34 H13       4.7163     3.5894     9.7633  H       1  <O>11       0.0624
  35 H14       6.7170     2.3349    10.3134  H       1  <O>11       0.0618
@<TRIPOS>BOND
     1     1     2   ar
     2     2     3   ar
     3     3     4   ar
     4     4     5    1
     5     5     6    2
     6     6     7    1
     7     7     8    1
     8     8     9   ar
     9     9    10   ar
    10    10    11   ar
    11    11    12   ar
    12    12    13   ar
    13     8    13   ar
    14     5    14    1
    15    14    15   ar
    16    15    16   ar
    17    16    17   ar
    18    17    18   ar
    19    18    19   ar
    20    14    19   ar
    21     4    20   ar
    22    20    21   ar
    23     1    21   ar
    24     7    22    1
    25     1    23    1
    26     2    24    1
    27     3    25    1
    28     9    26    1
    29    10    27    1
    30    11    28    1
    31    12    29    1
    32    15    30    1
    33    16    31    1
    34    17    32    1
    35    18    33    1
    36    20    34    1
    37    21    35    1
@<TRIPOS>MOLECULE
mol32_2_9
 35 37 0 0 0
SMALL
USER_CHARGES
****
VDW energy = 143.42
@<TRIPOS>ATOM
   1 C1        7.2370     1.9570     8.3000  C.ar    1  <O>11      -0.0617
   2 C2        6.8740     2.1370     6.9630  C.ar    1  <O>11      -0.0611
   3 C3        5.7170     2.8580     6.6520  C.ar    1  <O>11      -0.0524
   4 C4        4.9179     3.3974     7.6705  C.ar    1  <O>11       0.0039
   5 C5        3.7140     4.1510     7.3470  C.2     1  <O>11       0.1142
   6 N1        2.5578     3.4937     7.0472  N.2     1  <O>11      -0.1787
   7 N2        2.5288     2.1520     7.0497  N.pl3   1  <O>11      -0.2204
   8 C6        3.7269     1.4009     7.3712  C.ar    1  <O>11       0.1380
   9 C7        4.0434     1.1412     8.7317  C.ar    1  <O>11      -0.0203
  10 C8        5.1901     0.4116     9.0295  C.ar    1  <O>11      -0.0570
  11 C9        6.0006    -0.0168     7.9705  C.ar    1  <O>11      -0.0435
  12 C10       5.6308     0.2744     6.6579  C.ar    1  <O>11       0.0297
  13 N3        4.5152     0.9656     6.3740  N.ar    1  <O>11      -0.2389
  14 C11       3.7447     5.5981     7.3446  C.ar    1  <O>11       0.0912
  15 C12       4.9255     6.2499     7.6526  C.ar    1  <O>11      -0.0341
  16 C13       4.9328     7.6422     7.6352  C.ar    1  <O>11      -0.0583
  17 C14       3.7417     8.3113     7.3307  C.ar    1  <O>11      -0.0436
  18 C15       2.5956     7.5745     7.0332  C.ar    1  <O>11       0.0283
  19 N4        2.5944     6.2333     7.0361  N.ar    1  <O>11      -0.2534
  20 C16       5.2980     3.1980     9.0060  C.ar    1  <O>11      -0.0524
  21 C17       6.4500     2.4790     9.3270  C.ar    1  <O>11      -0.0611
  22 H1        1.6628     1.6602     6.8246  H       1  <O>11       0.1760
  23 H2        8.0956     1.4328     8.5302  H       1  <O>11       0.0618
  24 H3        7.4565     1.7401     6.2092  H       1  <O>11       0.0618
  25 H4        5.4489     2.9943     5.6648  H       1  <O>11       0.0624
  26 H5        3.4323     1.4884     9.4873  H       1  <O>11       0.0652
  27 H6        5.4375     0.1915    10.0070  H       1  <O>11       0.0619
  28 H7        6.8665    -0.5450     8.1605  H       1  <O>11       0.0633
  29 H8        6.2309    -0.0502     5.8836  H       1  <O>11       0.0830
  30 H9        5.7780     5.7185     7.8889  H       1  <O>11       0.0639
  31 H10       5.7962     8.1684     7.8419  H       1  <O>11       0.0619
  32 H11       3.7118     9.3428     7.3264  H       1  <O>11       0.0633
  33 H12       1.7230     8.0758     6.8043  H       1  <O>11       0.0830
  34 H13       4.7163     3.5894     9.7633  H       1  <O>11       0.0624
  35 H14       6.7170     2.3349    10.3134  H       1  <O>11       0.0618
@<TRIPOS>BOND
     1     1     2   ar
     2     2     3   ar
     3     3     4   ar
     4     4     5    1
     5     5     6    2
     6     6     7    1
     7     7     8    1
     8     8     9   ar
     9     9    10   ar
    10    10    11   ar
    11    11    12   ar
    12    12    13   ar
    13     8    13   ar
    14     5    14    1
    15    14    15   ar
    16    15    16   ar
    17    16    17   ar
    18    17    18   ar
    19    18    19   ar
    20    14    19   ar
    21     4    20   ar
    22    20    21   ar
    23     1    21   ar
    24     7    22    1
    25     1    23    1
    26     2    24    1
    27     3    25    1
    28     9    26    1
    29    10    27    1
    30    11    28    1
    31    12    29    1
    32    15    30    1
    33    16    31    1
    34    17    32    1
    35    18    33    1
    36    20    34    1
    37    21    35    1
@<TRIPOS>MOLECULE
mol32_2_10
 35 37 0 0 0
SMALL
USER_CHARGES
****
VDW energy = 147.71
@<TRIPOS>ATOM
   1 C1        7.2370     1.9570     8.3000  C.ar    1  <O>11      -0.0617
   2 C2        6.8740     2.1370     6.9630  C.ar    1  <O>11      -0.0611
   3 C3        5.7170     2.8580     6.6520  C.ar    1  <O>11      -0.0524
   4 C4        4.9179     3.3974     7.6705  C.ar    1  <O>11       0.0039
   5 C5        3.7140     4.1510     7.3470  C.2     1  <O>11       0.1142
   6 N1        3.7826     5.5001     7.1632  N.2     1  <O>11      -0.1787
   7 N2        4.9595     6.1343     7.2805  N.pl3   1  <O>11      -0.2204
   8 C6        6.1585     5.3850     7.6030  C.ar    1  <O>11       0.1380
   9 C7        6.5209     5.2007     8.9644  C.ar    1  <O>11      -0.0203
  10 C8        7.6680     4.4724     9.2639  C.ar    1  <O>11      -0.0570
  11 C9        8.4336     3.9704     8.2039  C.ar    1  <O>11      -0.0435
  12 C10       8.0202     4.1897     6.8904  C.ar    1  <O>11       0.0297
  13 N3        6.9042     4.8800     6.6060  N.ar    1  <O>11      -0.2389
  14 C11       2.4445     3.4674     7.2199  C.ar    1  <O>11       0.0912
  15 C12       2.3922     2.0978     7.4080  C.ar    1  <O>11      -0.0341
  16 C13       1.1582     1.4636     7.2892  C.ar    1  <O>11      -0.0583
  17 C14       0.0392     2.2386     6.9628  C.ar    1  <O>11      -0.0436
  18 C15       0.1826     3.6149     6.7892  C.ar    1  <O>11       0.0283
  19 N4        1.3694     4.2259     6.9186  N.ar    1  <O>11      -0.2534
  20 C16       5.2980     3.1980     9.0060  C.ar    1  <O>11      -0.0524
  21 C17       6.4500     2.4790     9.3270  C.ar    1  <O>11      -0.0611
  22 H1        5.0103     7.1448     7.1432  H       1  <O>11       0.1760
  23 H2        8.0956     1.4328     8.5302  H       1  <O>11       0.0618
  24 H3        7.4565     1.7401     6.2092  H       1  <O>11       0.0618
  25 H4        5.4489     2.9943     5.6648  H       1  <O>11       0.0624
  26 H5        5.9423     5.6009     9.7195  H       1  <O>11       0.0652
  27 H6        7.9478     4.3062    10.2432  H       1  <O>11       0.0619
  28 H7        9.2989     3.4410     8.3939  H       1  <O>11       0.0633
  29 H8        8.5874     3.8111     6.1157  H       1  <O>11       0.0830
  30 H9        3.2447     1.5606     7.6304  H       1  <O>11       0.0639
  31 H10       1.0708     0.4462     7.4383  H       1  <O>11       0.0619
  32 H11      -0.8856     1.7944     6.8514  H       1  <O>11       0.0633
  33 H12      -0.6487     4.1795     6.5542  H       1  <O>11       0.0830
  34 H13       4.7163     3.5894     9.7633  H       1  <O>11       0.0624
  35 H14       6.7170     2.3349    10.3134  H       1  <O>11       0.0618
@<TRIPOS>BOND
     1     1     2   ar
     2     2     3   ar
     3     3     4   ar
     4     4     5    1
     5     5     6    2
     6     6     7    1
     7     7     8    1
     8     8     9   ar
     9     9    10   ar
    10    10    11   ar
    11    11    12   ar
    12    12    13   ar
    13     8    13   ar
    14     5    14    1
    15    14    15   ar
    16    15    16   ar
    17    16    17   ar
    18    17    18   ar
    19    18    19   ar
    20    14    19   ar
    21     4    20   ar
    22    20    21   ar
    23     1    21   ar
    24     7    22    1
    25     1    23    1
    26     2    24    1
    27     3    25    1
    28     9    26    1
    29    10    27    1
    30    11    28    1
    31    12    29    1
    32    15    30    1
    33    16    31    1
    34    17    32    1
    35    18    33    1
    36    20    34    1
    37    21    35    1
@<TRIPOS>MOLECULE
mol32_2_11
 35 37 0 0 0
SMALL
USER_CHARGES
****
VDW energy = 160.81
@<TRIPOS>ATOM
   1 C1        7.2370     1.9570     8.3000  C.ar    1  <O>11      -0.0617
   2 C2        6.8740     2.1370     6.9630  C.ar    1  <O>11      -0.0611
   3 C3        5.7170     2.8580     6.6520  C.ar    1  <O>11      -0.0524
   4 C4        4.9179     3.3974     7.6705  C.ar    1  <O>11       0.0039
   5 C5        3.7140     4.1510     7.3470  C.2     1  <O>11       0.1142
   6 N1        2.5578     3.4937     7.0472  N.2     1  <O>11      -0.1787
   7 N2        2.5288     2.1520     7.0497  N.pl3   1  <O>11      -0.2204
   8 C6        3.7269     1.4009     7.3712  C.ar    1  <O>11       0.1380
   9 C7        4.6182     1.0297     6.3288  C.ar    1  <O>11      -0.0203
  10 C8        5.7698     0.3173     6.6485  C.ar    1  <O>11      -0.0570
  11 C9        5.9896    -0.0266     7.9884  C.ar    1  <O>11      -0.0435
  12 C10       5.0722     0.3690     8.9611  C.ar    1  <O>11       0.0297
  13 N3        3.9698     1.0698     8.6504  N.ar    1  <O>11      -0.2389
  14 C11       3.7447     5.5981     7.3446  C.ar    1  <O>11       0.0912
  15 C12       2.9082     6.2937     8.1992  C.ar    1  <O>11      -0.0341
  16 C13       2.9619     7.6850     8.1851  C.ar    1  <O>11      -0.0583
  17 C14       3.8406     8.3091     7.2921  C.ar    1  <O>11      -0.0436
  18 C15       4.6481     7.5299     6.4640  C.ar    1  <O>11       0.0283
  19 N4        4.6055     6.1897     6.4896  N.ar    1  <O>11      -0.2534
  20 C16       5.2980     3.1980     9.0060  C.ar    1  <O>11      -0.0524
  21 C17       6.4500     2.4790     9.3270  C.ar    1  <O>11      -0.0611
  22 H1        1.6628     1.6602     6.8246  H       1  <O>11       0.1760
  23 H2        8.0956     1.4328     8.5302  H       1  <O>11       0.0618
  24 H3        7.4565     1.7401     6.2092  H       1  <O>11       0.0618
  25 H4        5.4489     2.9943     5.6648  H       1  <O>11       0.0624
  26 H5        4.4147     1.2847     5.3497  H       1  <O>11       0.0652
  27 H6        6.4455     0.0487     5.9162  H       1  <O>11       0.0619
  28 H7        6.8259    -0.5696     8.2543  H       1  <O>11       0.0633
  29 H8        5.2452     0.1163     9.9467  H       1  <O>11       0.0830
  30 H9        2.2618     5.7948     8.8302  H       1  <O>11       0.0639
  31 H10       2.3677     8.2428     8.8183  H       1  <O>11       0.0619
  32 H11       3.8906     9.3389     7.2468  H       1  <O>11       0.0633
  33 H12       5.2972     7.9983     5.8126  H       1  <O>11       0.0830
  34 H13       4.7163     3.5894     9.7633  H       1  <O>11       0.0624
  35 H14       6.7170     2.3349    10.3134  H       1  <O>11       0.0618
@<TRIPOS>BOND
     1     1     2   ar
     2     2     3   ar
     3     3     4   ar
     4     4     5    1
     5     5     6    2
     6     6     7    1
     7     7     8    1
     8     8     9   ar
     9     9    10   ar
    10    10    11   ar
    11    11    12   ar
    12    12    13   ar
    13     8    13   ar
    14     5    14    1
    15    14    15   ar
    16    15    16   ar
    17    16    17   ar
    18    17    18   ar
    19    18    19   ar
    20    14    19   ar
    21     4    20   ar
    22    20    21   ar
    23     1    21   ar
    24     7    22    1
    25     1    23    1
    26     2    24    1
    27     3    25    1
    28     9    26    1
    29    10    27    1
    30    11    28    1
    31    12    29    1
    32    15    30    1
    33    16    31    1
    34    17    32    1
    35    18    33    1
    36    20    34    1
    37    21    35    1
@<TRIPOS>MOLECULE
mol32_2_12
 35 37 0 0 0
SMALL
USER_CHARGES
****
VDW energy = 162.43
@<TRIPOS>ATOM
   1 C1        7.2370     1.9570     8.3000  C.ar    1  <O>11      -0.0617
   2 C2        6.8740     2.1370     6.9630  C.ar    1  <O>11      -0.0611
   3 C3        5.7170     2.8580     6.6520  C.ar    1  <O>11      -0.0524
   4 C4        4.9179     3.3974     7.6705  C.ar    1  <O>11       0.0039
   5 C5        3.7140     4.1510     7.3470  C.2     1  <O>11       0.1142
   6 N1        2.5578     3.4937     7.0472  N.2     1  <O>11      -0.1787
   7 N2        2.5288     2.1520     7.0497  N.pl3   1  <O>11      -0.2204
   8 C6        3.7269     1.4009     7.3712  C.ar    1  <O>11       0.1380
   9 C7        4.6182     1.0297     6.3288  C.ar    1  <O>11      -0.0203
  10 C8        5.7698     0.3173     6.6485  C.ar    1  <O>11      -0.0570
  11 C9        5.9896    -0.0266     7.9884  C.ar    1  <O>11      -0.0435
  12 C10       5.0722     0.3690     8.9611  C.ar    1  <O>11       0.0297
  13 N3        3.9698     1.0698     8.6504  N.ar    1  <O>11      -0.2389
  14 C11       3.7447     5.5981     7.3446  C.ar    1  <O>11       0.0912
  15 C12       3.4500     6.2827     8.5101  C.ar    1  <O>11      -0.0341
  16 C13       3.4946     7.6742     8.4855  C.ar    1  <O>11      -0.0583
  17 C14       3.8115     8.3097     7.2794  C.ar    1  <O>11      -0.0436
  18 C15       4.0941     7.5412     6.1504  C.ar    1  <O>11       0.0283
  19 N4        4.0650     6.2007     6.1800  N.ar    1  <O>11      -0.2534
  20 C16       5.2980     3.1980     9.0060  C.ar    1  <O>11      -0.0524
  21 C17       6.4500     2.4790     9.3270  C.ar    1  <O>11      -0.0611
  22 H1        1.6628     1.6602     6.8246  H       1  <O>11       0.1760
  23 H2        8.0956     1.4328     8.5302  H       1  <O>11       0.0618
  24 H3        7.4565     1.7401     6.2092  H       1  <O>11       0.0618
  25 H4        5.4489     2.9943     5.6648  H       1  <O>11       0.0624
  26 H5        4.4147     1.2847     5.3497  H       1  <O>11       0.0652
  27 H6        6.4455     0.0487     5.9162  H       1  <O>11       0.0619
  28 H7        6.8259    -0.5696     8.2543  H       1  <O>11       0.0633
  29 H8        5.2452     0.1163     9.9467  H       1  <O>11       0.0830
  30 H9        3.2037     5.7757     9.3745  H       1  <O>11       0.0639
  31 H10       3.2986     8.2240     9.3367  H       1  <O>11       0.0619
  32 H11       3.8360     9.3400     7.2258  H       1  <O>11       0.0633
  33 H12       4.3324     8.0178     5.2666  H       1  <O>11       0.0830
  34 H13       4.7163     3.5894     9.7633  H       1  <O>11       0.0624
  35 H14       6.7170     2.3349    10.3134  H       1  <O>11       0.0618
@<TRIPOS>BOND
     1     1     2   ar
     2     2     3   ar
     3     3     4   ar
     4     4     5    1
     5     5     6    2
     6     6     7    1
     7     7     8    1
     8     8     9   ar
     9     9    10   ar
    10    10    11   ar
    11    11    12   ar
    12    12    13   ar
    13     8    13   ar
    14     5    14    1
    15    14    15   ar
    16    15    16   ar
    17    16    17   ar
    18    17    18   ar
    19    18    19   ar
    20    14    19   ar
    21     4    20   ar
    22    20    21   ar
    23     1    21   ar
    24     7    22    1
    25     1    23    1
    26     2    24    1
    27     3    25    1
    28     9    26    1
    29    10    27    1
    30    11    28    1
    31    12    29    1
    32    15    30    1
    33    16    31    1
    34    17    32    1
    35    18    33    1
    36    20    34    1
    37    21    35    1
@<TRIPOS>MOLECULE
mol32_2_13
 35 37 0 0 0
SMALL
USER_CHARGES
****
VDW energy = 162.59
@<TRIPOS>ATOM
   1 C1        7.2370     1.9570     8.3000  C.ar    1  <O>11      -0.0617
   2 C2        6.8740     2.1370     6.9630  C.ar    1  <O>11      -0.0611
   3 C3        5.7170     2.8580     6.6520  C.ar    1  <O>11      -0.0524
   4 C4        4.9179     3.3974     7.6705  C.ar    1  <O>11       0.0039
   5 C5        3.7140     4.1510     7.3470  C.2     1  <O>11       0.1142
   6 N1        2.5578     3.4937     7.0472  N.2     1  <O>11      -0.1787
   7 N2        2.5288     2.1520     7.0497  N.pl3   1  <O>11      -0.2204
   8 C6        3.7269     1.4009     7.3712  C.ar    1  <O>11       0.1380
   9 C7        4.6182     1.0297     6.3288  C.ar    1  <O>11      -0.0203
  10 C8        5.7698     0.3173     6.6485  C.ar    1  <O>11      -0.0570
  11 C9        5.9896    -0.0266     7.9884  C.ar    1  <O>11      -0.0435
  12 C10       5.0722     0.3690     8.9611  C.ar    1  <O>11       0.0297
  13 N3        3.9698     1.0698     8.6504  N.ar    1  <O>11      -0.2389
  14 C11       3.7447     5.5981     7.3446  C.ar    1  <O>11       0.0912
  15 C12       3.4423     6.2789     6.1788  C.ar    1  <O>11      -0.0341
  16 C13       3.4699     7.6708     6.2032  C.ar    1  <O>11      -0.0583
  17 C14       3.8246     8.3096     7.3971  C.ar    1  <O>11      -0.0436
  18 C15       4.1160     7.5447     8.5262  C.ar    1  <O>11       0.0283
  19 N4        4.0744     6.2044     8.5046  N.ar    1  <O>11      -0.2534
  20 C16       5.2980     3.1980     9.0060  C.ar    1  <O>11      -0.0524
  21 C17       6.4500     2.4790     9.3270  C.ar    1  <O>11      -0.0611
  22 H1        1.6628     1.6602     6.8246  H       1  <O>11       0.1760
  23 H2        8.0956     1.4328     8.5302  H       1  <O>11       0.0618
  24 H3        7.4565     1.7401     6.2092  H       1  <O>11       0.0618
  25 H4        5.4489     2.9943     5.6648  H       1  <O>11       0.0624
  26 H5        4.4147     1.2847     5.3497  H       1  <O>11       0.0652
  27 H6        6.4455     0.0487     5.9162  H       1  <O>11       0.0619
  28 H7        6.8259    -0.5696     8.2543  H       1  <O>11       0.0633
  29 H8        5.2452     0.1163     9.9467  H       1  <O>11       0.0830
  30 H9        3.2026     5.7689     5.3143  H       1  <O>11       0.0639
  31 H10       3.2344     8.2186     5.3608  H       1  <O>11       0.0619
  32 H11       3.8702     9.3397     7.4414  H       1  <O>11       0.0633
  33 H12       4.3710     8.0240     9.4039  H       1  <O>11       0.0830
  34 H13       4.7163     3.5894     9.7633  H       1  <O>11       0.0624
  35 H14       6.7170     2.3349    10.3134  H       1  <O>11       0.0618
@<TRIPOS>BOND
     1     1     2   ar
     2     2     3   ar
     3     3     4   ar
     4     4     5    1
     5     5     6    2
     6     6     7    1
     7     7     8    1
     8     8     9   ar
     9     9    10   ar
    10    10    11   ar
    11    11    12   ar
    12    12    13   ar
    13     8    13   ar
    14     5    14    1
    15    14    15   ar
    16    15    16   ar
    17    16    17   ar
    18    17    18   ar
    19    18    19   ar
    20    14    19   ar
    21     4    20   ar
    22    20    21   ar
    23     1    21   ar
    24     7    22    1
    25     1    23    1
    26     2    24    1
    27     3    25    1
    28     9    26    1
    29    10    27    1
    30    11    28    1
    31    12    29    1
    32    15    30    1
    33    16    31    1
    34    17    32    1
    35    18    33    1
    36    20    34    1
    37    21    35    1
@<TRIPOS>MOLECULE
mol32_2_14
 35 37 0 0 0
SMALL
USER_CHARGES
****
VDW energy = 163.88
@<TRIPOS>ATOM
   1 C1        7.2370     1.9570     8.3000  C.ar    1  <O>11      -0.0617
   2 C2        6.8740     2.1370     6.9630  C.ar    1  <O>11      -0.0611
   3 C3        5.7170     2.8580     6.6520  C.ar    1  <O>11      -0.0524
   4 C4        4.9179     3.3974     7.6705  C.ar    1  <O>11       0.0039
   5 C5        3.7140     4.1510     7.3470  C.2     1  <O>11       0.1142
   6 N1        2.5578     3.4937     7.0472  N.2     1  <O>11      -0.1787
   7 N2        2.5288     2.1520     7.0497  N.pl3   1  <O>11      -0.2204
   8 C6        3.7269     1.4009     7.3712  C.ar    1  <O>11       0.1380
   9 C7        4.6182     1.0297     6.3288  C.ar    1  <O>11      -0.0203
  10 C8        5.7698     0.3173     6.6485  C.ar    1  <O>11      -0.0570
  11 C9        5.9896    -0.0266     7.9884  C.ar    1  <O>11      -0.0435
  12 C10       5.0722     0.3690     8.9611  C.ar    1  <O>11       0.0297
  13 N3        3.9698     1.0698     8.6504  N.ar    1  <O>11      -0.2389
  14 C11       3.7447     5.5981     7.3446  C.ar    1  <O>11       0.0912
  15 C12       4.0681     6.2656     6.1767  C.ar    1  <O>11      -0.0341
  16 C13       4.0826     7.6578     6.1966  C.ar    1  <O>11      -0.0583
  17 C14       3.7930     8.3103     7.4006  C.ar    1  <O>11      -0.0436
  18 C15       3.4782     7.5583     8.5321  C.ar    1  <O>11       0.0283
  19 N4        3.4503     6.2177     8.5071  N.ar    1  <O>11      -0.2534
  20 C16       5.2980     3.1980     9.0060  C.ar    1  <O>11      -0.0524
  21 C17       6.4500     2.4790     9.3270  C.ar    1  <O>11      -0.0611
  22 H1        1.6628     1.6602     6.8246  H       1  <O>11       0.1760
  23 H2        8.0956     1.4328     8.5302  H       1  <O>11       0.0618
  24 H3        7.4565     1.7401     6.2092  H       1  <O>11       0.0618
  25 H4        5.4489     2.9943     5.6648  H       1  <O>11       0.0624
  26 H5        4.4147     1.2847     5.3497  H       1  <O>11       0.0652
  27 H6        6.4455     0.0487     5.9162  H       1  <O>11       0.0619
  28 H7        6.8259    -0.5696     8.2543  H       1  <O>11       0.0633
  29 H8        5.2452     0.1163     9.9467  H       1  <O>11       0.0830
  30 H9        4.2926     5.7457     5.3140  H       1  <O>11       0.0639
  31 H10       4.3017     8.1959     5.3436  H       1  <O>11       0.0619
  32 H11       3.8123     9.3409     7.4506  H       1  <O>11       0.0633
  33 H12       3.2604     8.0476     9.4142  H       1  <O>11       0.0830
  34 H13       4.7163     3.5894     9.7633  H       1  <O>11       0.0624
  35 H14       6.7170     2.3349    10.3134  H       1  <O>11       0.0618
@<TRIPOS>BOND
     1     1     2   ar
     2     2     3   ar
     3     3     4   ar
     4     4     5    1
     5     5     6    2
     6     6     7    1
     7     7     8    1
     8     8     9   ar
     9     9    10   ar
    10    10    11   ar
    11    11    12   ar
    12    12    13   ar
    13     8    13   ar
    14     5    14    1
    15    14    15   ar
    16    15    16   ar
    17    16    17   ar
    18    17    18   ar
    19    18    19   ar
    20    14    19   ar
    21     4    20   ar
    22    20    21   ar
    23     1    21   ar
    24     7    22    1
    25     1    23    1
    26     2    24    1
    27     3    25    1
    28     9    26    1
    29    10    27    1
    30    11    28    1
    31    12    29    1
    32    15    30    1
    33    16    31    1
    34    17    32    1
    35    18    33    1
    36    20    34    1
    37    21    35    1
@<TRIPOS>MOLECULE
mol32_2_15
 35 37 0 0 0
SMALL
USER_CHARGES
****
VDW energy = 168.97
@<TRIPOS>ATOM
   1 C1        7.2370     1.9570     8.3000  C.ar    1  <O>11      -0.0617
   2 C2        6.8740     2.1370     6.9630  C.ar    1  <O>11      -0.0611
   3 C3        5.7170     2.8580     6.6520  C.ar    1  <O>11      -0.0524
   4 C4        4.9179     3.3974     7.6705  C.ar    1  <O>11       0.0039
   5 C5        3.7140     4.1510     7.3470  C.2     1  <O>11       0.1142
   6 N1        3.7826     5.5001     7.1632  N.2     1  <O>11      -0.1787
   7 N2        4.9595     6.1343     7.2805  N.pl3   1  <O>11      -0.2204
   8 C6        6.1585     5.3850     7.6030  C.ar    1  <O>11       0.1380
   9 C7        6.8914     4.7584     6.5594  C.ar    1  <O>11      -0.0203
  10 C8        8.0455     4.0497     6.8779  C.ar    1  <O>11      -0.0570
  11 C9        8.4239     3.9634     8.2238  C.ar    1  <O>11      -0.0435
  12 C10       7.6572     4.6018     9.1978  C.ar    1  <O>11       0.0297
  13 N3        6.5524     5.2978     8.8846  N.ar    1  <O>11      -0.2389
  14 C11       2.4445     3.4674     7.2199  C.ar    1  <O>11       0.0912
  15 C12       1.3996     3.8209     8.0548  C.ar    1  <O>11      -0.0341
  16 C13       0.1853     3.1554     7.9079  C.ar    1  <O>11      -0.0583
  17 C14       0.0902     2.1480     6.9409  C.ar    1  <O>11      -0.0436
  18 C15       1.1950     1.8549     6.1419  C.ar    1  <O>11       0.0283
  19 N4        2.3592     2.5073     6.2750  N.ar    1  <O>11      -0.2534
  20 C16       5.2980     3.1980     9.0060  C.ar    1  <O>11      -0.0524
  21 C17       6.4500     2.4790     9.3270  C.ar    1  <O>11      -0.0611
  22 H1        5.0103     7.1448     7.1432  H       1  <O>11       0.1760
  23 H2        8.0956     1.4328     8.5302  H       1  <O>11       0.0618
  24 H3        7.4565     1.7401     6.2092  H       1  <O>11       0.0618
  25 H4        5.4489     2.9943     5.6648  H       1  <O>11       0.0624
  26 H5        6.5725     4.8279     5.5804  H       1  <O>11       0.0652
  27 H6        8.6092     3.5986     6.1404  H       1  <O>11       0.0619
  28 H7        9.2655     3.4303     8.4930  H       1  <O>11       0.0633
  29 H8        7.9467     4.5378    10.1863  H       1  <O>11       0.0830
  30 H9        1.5168     4.5581     8.7674  H       1  <O>11       0.0639
  31 H10      -0.6254     3.3993     8.4981  H       1  <O>11       0.0619
  32 H11      -0.7916     1.6256     6.8199  H       1  <O>11       0.0633
  33 H12       1.1144     1.1145     5.4275  H       1  <O>11       0.0830
  34 H13       4.7163     3.5894     9.7633  H       1  <O>11       0.0624
  35 H14       6.7170     2.3349    10.3134  H       1  <O>11       0.0618
@<TRIPOS>BOND
     1     1     2   ar
     2     2     3   ar
     3     3     4   ar
     4     4     5    1
     5     5     6    2
     6     6     7    1
     7     7     8    1
     8     8     9   ar
     9     9    10   ar
    10    10    11   ar
    11    11    12   ar
    12    12    13   ar
    13     8    13   ar
    14     5    14    1
    15    14    15   ar
    16    15    16   ar
    17    16    17   ar
    18    17    18   ar
    19    18    19   ar
    20    14    19   ar
    21     4    20   ar
    22    20    21   ar
    23     1    21   ar
    24     7    22    1
    25     1    23    1
    26     2    24    1
    27     3    25    1
    28     9    26    1
    29    10    27    1
    30    11    28    1
    31    12    29    1
    32    15    30    1
    33    16    31    1
    34    17    32    1
    35    18    33    1
    36    20    34    1
    37    21    35    1
@<TRIPOS>MOLECULE
mol32_2_16
 35 37 0 0 0
SMALL
USER_CHARGES
****
VDW energy = 170.18
@<TRIPOS>ATOM
   1 C1        7.2370     1.9570     8.3000  C.ar    1  <O>11      -0.0617
   2 C2        6.8740     2.1370     6.9630  C.ar    1  <O>11      -0.0611
   3 C3        5.7170     2.8580     6.6520  C.ar    1  <O>11      -0.0524
   4 C4        4.9179     3.3974     7.6705  C.ar    1  <O>11       0.0039
   5 C5        3.7140     4.1510     7.3470  C.2     1  <O>11       0.1142
   6 N1        3.7826     5.5001     7.1632  N.2     1  <O>11      -0.1787
   7 N2        4.9595     6.1343     7.2805  N.pl3   1  <O>11      -0.2204
   8 C6        6.1585     5.3850     7.6030  C.ar    1  <O>11       0.1380
   9 C7        6.8914     4.7584     6.5594  C.ar    1  <O>11      -0.0203
  10 C8        8.0455     4.0497     6.8779  C.ar    1  <O>11      -0.0570
  11 C9        8.4239     3.9634     8.2238  C.ar    1  <O>11      -0.0435
  12 C10       7.6572     4.6018     9.1978  C.ar    1  <O>11       0.0297
  13 N3        6.5524     5.2978     8.8846  N.ar    1  <O>11      -0.2389
  14 C11       2.4445     3.4674     7.2199  C.ar    1  <O>11       0.0912
  15 C12       1.7621     3.5264     6.0178  C.ar    1  <O>11      -0.0341
  16 C13       0.5472     2.8537     5.9168  C.ar    1  <O>11      -0.0583
  17 C14       0.0668     2.1727     7.0414  C.ar    1  <O>11      -0.0436
  18 C15       0.8199     2.1660     8.2152  C.ar    1  <O>11       0.0283
  19 N4        1.9970     2.8023     8.3058  N.ar    1  <O>11      -0.2534
  20 C16       5.2980     3.1980     9.0060  C.ar    1  <O>11      -0.0524
  21 C17       6.4500     2.4790     9.3270  C.ar    1  <O>11      -0.0611
  22 H1        5.0103     7.1448     7.1432  H       1  <O>11       0.1760
  23 H2        8.0956     1.4328     8.5302  H       1  <O>11       0.0618
  24 H3        7.4565     1.7401     6.2092  H       1  <O>11       0.0618
  25 H4        5.4489     2.9943     5.6648  H       1  <O>11       0.0624
  26 H5        6.5725     4.8279     5.5804  H       1  <O>11       0.0652
  27 H6        8.6092     3.5986     6.1404  H       1  <O>11       0.0619
  28 H7        9.2655     3.4303     8.4930  H       1  <O>11       0.0633
  29 H8        7.9467     4.5378    10.1863  H       1  <O>11       0.0830
  30 H9        2.1433     4.0547     5.2175  H       1  <O>11       0.0639
  31 H10       0.0135     2.8571     5.0335  H       1  <O>11       0.0619
  32 H11      -0.8385     1.6790     7.0022  H       1  <O>11       0.0633
  33 H12       0.4610     1.6567     9.0379  H       1  <O>11       0.0830
  34 H13       4.7163     3.5894     9.7633  H       1  <O>11       0.0624
  35 H14       6.7170     2.3349    10.3134  H       1  <O>11       0.0618
@<TRIPOS>BOND
     1     1     2   ar
     2     2     3   ar
     3     3     4   ar
     4     4     5    1
     5     5     6    2
     6     6     7    1
     7     7     8    1
     8     8     9   ar
     9     9    10   ar
    10    10    11   ar
    11    11    12   ar
    12    12    13   ar
    13     8    13   ar
    14     5    14    1
    15    14    15   ar
    16    15    16   ar
    17    16    17   ar
    18    17    18   ar
    19    18    19   ar
    20    14    19   ar
    21     4    20   ar
    22    20    21   ar
    23     1    21   ar
    24     7    22    1
    25     1    23    1
    26     2    24    1
    27     3    25    1
    28     9    26    1
    29    10    27    1
    30    11    28    1
    31    12    29    1
    32    15    30    1
    33    16    31    1
    34    17    32    1
    35    18    33    1
    36    20    34    1
    37    21    35    1
@<TRIPOS>MOLECULE
mol32_2_17
 35 37 0 0 0
SMALL
USER_CHARGES
****
VDW energy = 170.40
@<TRIPOS>ATOM
   1 C1        7.2370     1.9570     8.3000  C.ar    1  <O>11      -0.0617
   2 C2        6.8740     2.1370     6.9630  C.ar    1  <O>11      -0.0611
   3 C3        5.7170     2.8580     6.6520  C.ar    1  <O>11      -0.0524
   4 C4        4.9179     3.3974     7.6705  C.ar    1  <O>11       0.0039
   5 C5        3.7140     4.1510     7.3470  C.2     1  <O>11       0.1142
   6 N1        3.7826     5.5001     7.1632  N.2     1  <O>11      -0.1787
   7 N2        4.9595     6.1343     7.2805  N.pl3   1  <O>11      -0.2204
   8 C6        6.1585     5.3850     7.6030  C.ar    1  <O>11       0.1380
   9 C7        6.8914     4.7584     6.5594  C.ar    1  <O>11      -0.0203
  10 C8        8.0455     4.0497     6.8779  C.ar    1  <O>11      -0.0570
  11 C9        8.4239     3.9634     8.2238  C.ar    1  <O>11      -0.0435
  12 C10       7.6572     4.6018     9.1978  C.ar    1  <O>11       0.0297
  13 N3        6.5524     5.2978     8.8846  N.ar    1  <O>11      -0.2389
  14 C11       2.4445     3.4674     7.2199  C.ar    1  <O>11       0.0912
  15 C12       1.6423     3.3177     8.3370  C.ar    1  <O>11      -0.0341
  16 C13       0.4217     2.6644     8.1883  C.ar    1  <O>11      -0.0583
  17 C14       0.0789     2.1722     6.9236  C.ar    1  <O>11      -0.0436
  18 C15       0.9487     2.3664     5.8509  C.ar    1  <O>11       0.0283
  19 N4        2.1173     3.0090     5.9932  N.ar    1  <O>11      -0.2534
  20 C16       5.2980     3.1980     9.0060  C.ar    1  <O>11      -0.0524
  21 C17       6.4500     2.4790     9.3270  C.ar    1  <O>11      -0.0611
  22 H1        5.0103     7.1448     7.1432  H       1  <O>11       0.1760
  23 H2        8.0956     1.4328     8.5302  H       1  <O>11       0.0618
  24 H3        7.4565     1.7401     6.2092  H       1  <O>11       0.0618
  25 H4        5.4489     2.9943     5.6648  H       1  <O>11       0.0624
  26 H5        6.5725     4.8279     5.5804  H       1  <O>11       0.0652
  27 H6        8.6092     3.5986     6.1404  H       1  <O>11       0.0619
  28 H7        9.2655     3.4303     8.4930  H       1  <O>11       0.0633
  29 H8        7.9467     4.5378    10.1863  H       1  <O>11       0.0830
  30 H9        1.9405     3.6804     9.2560  H       1  <O>11       0.0639
  31 H10      -0.2153     2.5459     8.9916  H       1  <O>11       0.0619
  32 H11      -0.8115     1.6689     6.7858  H       1  <O>11       0.0633
  33 H12       0.6856     2.0053     4.9207  H       1  <O>11       0.0830
  34 H13       4.7163     3.5894     9.7633  H       1  <O>11       0.0624
  35 H14       6.7170     2.3349    10.3134  H       1  <O>11       0.0618
@<TRIPOS>BOND
     1     1     2   ar
     2     2     3   ar
     3     3     4   ar
     4     4     5    1
     5     5     6    2
     6     6     7    1
     7     7     8    1
     8     8     9   ar
     9     9    10   ar
    10    10    11   ar
    11    11    12   ar
    12    12    13   ar
    13     8    13   ar
    14     5    14    1
    15    14    15   ar
    16    15    16   ar
    17    16    17   ar
    18    17    18   ar
    19    18    19   ar
    20    14    19   ar
    21     4    20   ar
    22    20    21   ar
    23     1    21   ar
    24     7    22    1
    25     1    23    1
    26     2    24    1
    27     3    25    1
    28     9    26    1
    29    10    27    1
    30    11    28    1
    31    12    29    1
    32    15    30    1
    33    16    31    1
    34    17    32    1
    35    18    33    1
    36    20    34    1
    37    21    35    1
@<TRIPOS>MOLECULE
mol32_2_18
 35 37 0 0 0
SMALL
USER_CHARGES
****
VDW energy = 171.74
@<TRIPOS>ATOM
   1 C1        7.2370     1.9570     8.3000  C.ar    1  <O>11      -0.0617
   2 C2        6.8740     2.1370     6.9630  C.ar    1  <O>11      -0.0611
   3 C3        5.7170     2.8580     6.6520  C.ar    1  <O>11      -0.0524
   4 C4        4.9179     3.3974     7.6705  C.ar    1  <O>11       0.0039
   5 C5        3.7140     4.1510     7.3470  C.2     1  <O>11       0.1142
   6 N1        3.7826     5.5001     7.1632  N.2     1  <O>11      -0.1787
   7 N2        4.9595     6.1343     7.2805  N.pl3   1  <O>11      -0.2204
   8 C6        6.1585     5.3850     7.6030  C.ar    1  <O>11       0.1380
   9 C7        6.8914     4.7584     6.5594  C.ar    1  <O>11      -0.0203
  10 C8        8.0455     4.0497     6.8779  C.ar    1  <O>11      -0.0570
  11 C9        8.4239     3.9634     8.2238  C.ar    1  <O>11      -0.0435
  12 C10       7.6572     4.6018     9.1978  C.ar    1  <O>11       0.0297
  13 N3        6.5524     5.2978     8.8846  N.ar    1  <O>11      -0.2389
  14 C11       2.4445     3.4674     7.2199  C.ar    1  <O>11       0.0912
  15 C12       2.0605     2.9785     5.9839  C.ar    1  <O>11      -0.0341
  16 C13       0.8391     2.3169     5.8882  C.ar    1  <O>11      -0.0583
  17 C14       0.0519     2.2007     7.0397  C.ar    1  <O>11      -0.0436
  18 C15       0.5160     2.7247     8.2460  C.ar    1  <O>11       0.0283
  19 N4        1.6995     3.3486     8.3392  N.ar    1  <O>11      -0.2534
  20 C16       5.2980     3.1980     9.0060  C.ar    1  <O>11      -0.0524
  21 C17       6.4500     2.4790     9.3270  C.ar    1  <O>11      -0.0611
  22 H1        5.0103     7.1448     7.1432  H       1  <O>11       0.1760
  23 H2        8.0956     1.4328     8.5302  H       1  <O>11       0.0618
  24 H3        7.4565     1.7401     6.2092  H       1  <O>11       0.0618
  25 H4        5.4489     2.9943     5.6648  H       1  <O>11       0.0624
  26 H5        6.5725     4.8279     5.5804  H       1  <O>11       0.0652
  27 H6        8.6092     3.5986     6.1404  H       1  <O>11       0.0619
  28 H7        9.2655     3.4303     8.4930  H       1  <O>11       0.0633
  29 H8        7.9467     4.5378    10.1863  H       1  <O>11       0.0830
  30 H9        2.6632     3.1009     5.1552  H       1  <O>11       0.0639
  31 H10       0.5217     1.9215     4.9893  H       1  <O>11       0.0619
  32 H11      -0.8657     1.7305     6.9965  H       1  <O>11       0.0633
  33 H12      -0.0682     2.6296     9.0914  H       1  <O>11       0.0830
  34 H13       4.7163     3.5894     9.7633  H       1  <O>11       0.0624
  35 H14       6.7170     2.3349    10.3134  H       1  <O>11       0.0618
@<TRIPOS>BOND
     1     1     2   ar
     2     2     3   ar
     3     3     4   ar
     4     4     5    1
     5     5     6    2
     6     6     7    1
     7     7     8    1
     8     8     9   ar
     9     9    10   ar
    10    10    11   ar
    11    11    12   ar
    12    12    13   ar
    13     8    13   ar
    14     5    14    1
    15    14    15   ar
    16    15    16   ar
    17    16    17   ar
    18    17    18   ar
    19    18    19   ar
    20    14    19   ar
    21     4    20   ar
    22    20    21   ar
    23     1    21   ar
    24     7    22    1
    25     1    23    1
    26     2    24    1
    27     3    25    1
    28     9    26    1
    29    10    27    1
    30    11    28    1
    31    12    29    1
    32    15    30    1
    33    16    31    1
    34    17    32    1
    35    18    33    1
    36    20    34    1
    37    21    35    1
@<TRIPOS>MOLECULE
mol32_2_19
 35 37 0 0 0
SMALL
USER_CHARGES
****
VDW energy = 174.17
@<TRIPOS>ATOM
   1 C1        7.2370     1.9570     8.3000  C.ar    1  <O>11      -0.0617
   2 C2        6.8740     2.1370     6.9630  C.ar    1  <O>11      -0.0611
   3 C3        5.7170     2.8580     6.6520  C.ar    1  <O>11      -0.0524
   4 C4        4.9179     3.3974     7.6705  C.ar    1  <O>11       0.0039
   5 C5        3.7140     4.1510     7.3470  C.2     1  <O>11       0.1142
   6 N1        2.5578     3.4937     7.0472  N.2     1  <O>11      -0.1787
   7 N2        2.5288     2.1520     7.0497  N.pl3   1  <O>11      -0.2204
   8 C6        3.7269     1.4009     7.3712  C.ar    1  <O>11       0.1380
   9 C7        4.6182     1.0297     6.3288  C.ar    1  <O>11      -0.0203
  10 C8        5.7698     0.3173     6.6485  C.ar    1  <O>11      -0.0570
  11 C9        5.9896    -0.0266     7.9884  C.ar    1  <O>11      -0.0435
  12 C10       5.0722     0.3690     8.9611  C.ar    1  <O>11       0.0297
  13 N3        3.9698     1.0698     8.6504  N.ar    1  <O>11      -0.2389
  14 C11       3.7447     5.5981     7.3446  C.ar    1  <O>11       0.0912
  15 C12       4.9255     6.2499     7.6526  C.ar    1  <O>11      -0.0341
  16 C13       4.9328     7.6422     7.6352  C.ar    1  <O>11      -0.0583
  17 C14       3.7417     8.3113     7.3307  C.ar    1  <O>11      -0.0436
  18 C15       2.5956     7.5745     7.0332  C.ar    1  <O>11       0.0283
  19 N4        2.5944     6.2333     7.0361  N.ar    1  <O>11      -0.2534
  20 C16       5.2980     3.1980     9.0060  C.ar    1  <O>11      -0.0524
  21 C17       6.4500     2.4790     9.3270  C.ar    1  <O>11      -0.0611
  22 H1        1.6628     1.6602     6.8246  H       1  <O>11       0.1760
  23 H2        8.0956     1.4328     8.5302  H       1  <O>11       0.0618
  24 H3        7.4565     1.7401     6.2092  H       1  <O>11       0.0618
  25 H4        5.4489     2.9943     5.6648  H       1  <O>11       0.0624
  26 H5        4.4147     1.2847     5.3497  H       1  <O>11       0.0652
  27 H6        6.4455     0.0487     5.9162  H       1  <O>11       0.0619
  28 H7        6.8259    -0.5696     8.2543  H       1  <O>11       0.0633
  29 H8        5.2452     0.1163     9.9467  H       1  <O>11       0.0830
  30 H9        5.7780     5.7185     7.8889  H       1  <O>11       0.0639
  31 H10       5.7962     8.1684     7.8419  H       1  <O>11       0.0619
  32 H11       3.7118     9.3428     7.3264  H       1  <O>11       0.0633
  33 H12       1.7230     8.0758     6.8043  H       1  <O>11       0.0830
  34 H13       4.7163     3.5894     9.7633  H       1  <O>11       0.0624
  35 H14       6.7170     2.3349    10.3134  H       1  <O>11       0.0618
@<TRIPOS>BOND
     1     1     2   ar
     2     2     3   ar
     3     3     4   ar
     4     4     5    1
     5     5     6    2
     6     6     7    1
     7     7     8    1
     8     8     9   ar
     9     9    10   ar
    10    10    11   ar
    11    11    12   ar
    12    12    13   ar
    13     8    13   ar
    14     5    14    1
    15    14    15   ar
    16    15    16   ar
    17    16    17   ar
    18    17    18   ar
    19    18    19   ar
    20    14    19   ar
    21     4    20   ar
    22    20    21   ar
    23     1    21   ar
    24     7    22    1
    25     1    23    1
    26     2    24    1
    27     3    25    1
    28     9    26    1
    29    10    27    1
    30    11    28    1
    31    12    29    1
    32    15    30    1
    33    16    31    1
    34    17    32    1
    35    18    33    1
    36    20    34    1
    37    21    35    1
