@<TRIPOS>MOLECULE
mol38_1_1
 40 43 0 0 0
SMALL
USER_CHARGES
****
VDW energy = -29.95
@<TRIPOS>ATOM
   1 O1       -6.0607     1.4255    -3.9319  O.2     1  <O>11      -0.2702
   2 C1       -5.4199     1.6625    -2.9188  C.2     1  <O>11       0.2450
   3 N1       -5.8740     2.5930    -2.0230  N.am    1  <O>11      -0.3057
   4 C2       -7.1250     3.3020    -2.2790  C.3     1  <O>11       0.0565
   5 C3       -7.0145     4.0552    -3.5560  C.ar    1  <O>11       0.0863
   6 N2       -7.8953     3.7777    -4.6080  N.ar    1  <O>11      -0.1737
   7 N3       -7.7417     4.3786    -5.8101  N.ar    1  <O>11      -0.2424
   8 C4       -6.7293     5.2634    -5.9801  C.ar    1  <O>11       0.2725
   9 O2       -6.5647     5.7800    -7.2799  O.2     1  <O>11      -0.2658
  10 C5       -5.8706     5.6725    -4.9497  C.ar    1  <O>11       0.0496
  11 C6       -4.8510     6.6396    -5.1089  C.ar    1  <O>11      -0.0487
  12 C7       -4.0089     6.9775    -4.0497  C.ar    1  <O>11      -0.0610
  13 C8       -4.1619     6.3546    -2.8179  C.ar    1  <O>11      -0.0611
  14 C9       -5.1576     5.3920    -2.6429  C.ar    1  <O>11      -0.0520
  15 C10      -6.0261     5.0428    -3.7023  C.ar    1  <O>11       0.0118
  16 C11      -4.1810     0.9600    -2.6660  C.ar    1  <O>11       0.0444
  17 C12      -4.2219    -0.2419    -1.9528  C.ar    1  <O>11      -0.0490
  18 C13      -3.0443    -0.9458    -1.7225  C.ar    1  <O>11      -0.0605
  19 C14      -1.8248    -0.4335    -2.1806  C.ar    1  <O>11      -0.0540
  20 C15      -1.7695     0.7818    -2.8817  C.ar    1  <O>11      -0.0172
  21 C16      -0.5530     1.3099    -3.3430  C.ar    1  <O>11      -0.0540
  22 C17      -0.5198     2.5160    -4.0440  C.ar    1  <O>11      -0.0612
  23 C18      -1.7011     3.2078    -4.2967  C.ar    1  <O>11      -0.0611
  24 C19      -2.9173     2.6962    -3.8454  C.ar    1  <O>11      -0.0533
  25 C20      -2.9668     1.4856    -3.1334  C.ar    1  <O>11      -0.0058
  26 H1       -5.3400     2.7910    -1.1780  H       1  <O>11       0.1494
  27 H2       -7.3222     3.9977    -1.4634  H       1  <O>11       0.0528
  28 H3       -7.9423     2.5841    -2.3498  H       1  <O>11       0.0528
  29 H4       -8.3729     4.1695    -6.5702  H       1  <O>11       0.1921
  30 H5       -4.7283     7.1025    -6.0230  H       1  <O>11       0.0625
  31 H6       -3.2733     7.6893    -4.1811  H       1  <O>11       0.0618
  32 H7       -3.5401     6.6030    -2.0327  H       1  <O>11       0.0618
  33 H8       -5.2613     4.9285    -1.7267  H       1  <O>11       0.0624
  34 H9       -5.1209    -0.6050    -1.5991  H       1  <O>11       0.0625
  35 H10      -3.0697    -1.8440    -1.2149  H       1  <O>11       0.0618
  36 H11      -0.9537    -0.9566    -2.0003  H       1  <O>11       0.0624
  37 H12       0.3260     0.8005    -3.1616  H       1  <O>11       0.0624
  38 H13       0.3809     2.8954    -4.3753  H       1  <O>11       0.0618
  39 H14      -1.6768     4.0983    -4.8176  H       1  <O>11       0.0618
  40 H15      -3.7904     3.2121    -4.0362  H       1  <O>11       0.0624
@<TRIPOS>BOND
     1     1     2    2
     2     2     3   am
     3     3     4    1
     4     4     5    1
     5     5     6   ar
     6     6     7   ar
     7     7     8   ar
     8     8     9    2
     9     8    10   ar
    10    10    11   ar
    11    11    12   ar
    12    12    13   ar
    13    13    14   ar
    14    14    15   ar
    15     5    15   ar
    16    10    15   ar
    17     2    16    1
    18    16    17   ar
    19    17    18   ar
    20    18    19   ar
    21    19    20   ar
    22    20    21   ar
    23    21    22   ar
    24    22    23   ar
    25    23    24   ar
    26    24    25   ar
    27    16    25   ar
    28    20    25   ar
    29     3    26    1
    30     4    27    1
    31     4    28    1
    32     7    29    1
    33    11    30    1
    34    12    31    1
    35    13    32    1
    36    14    33    1
    37    17    34    1
    38    18    35    1
    39    19    36    1
    40    21    37    1
    41    22    38    1
    42    23    39    1
    43    24    40    1
@<TRIPOS>MOLECULE
mol38_1_2
 40 43 0 0 0
SMALL
USER_CHARGES
****
VDW energy = -29.42
@<TRIPOS>ATOM
   1 O1       -6.0607     1.4255    -3.9319  O.2     1  <O>11      -0.2702
   2 C1       -5.4199     1.6625    -2.9188  C.2     1  <O>11       0.2450
   3 N1       -5.8740     2.5930    -2.0230  N.am    1  <O>11      -0.3057
   4 C2       -7.1250     3.3019    -2.2790  C.3     1  <O>11       0.0565
   5 C3       -7.3940     4.2489    -1.1650  C.ar    1  <O>11       0.0863
   6 N2       -8.1324     3.8266    -0.0532  N.ar    1  <O>11      -0.1737
   7 N3       -8.4750     4.7033     0.9183  N.ar    1  <O>11      -0.2424
   8 C4       -8.0835     5.9961     0.8073  C.ar    1  <O>11       0.2725
   9 O2       -8.5537     6.8771     1.8003  O.2     1  <O>11      -0.2658
  10 C5       -7.2566     6.4746    -0.2193  C.ar    1  <O>11       0.0496
  11 C6       -6.7975     7.8095    -0.3058  C.ar    1  <O>11      -0.0487
  12 C7       -6.0030     8.2288    -1.3725  C.ar    1  <O>11      -0.0610
  13 C8       -5.6582     7.3303    -2.3738  C.ar    1  <O>11      -0.0611
  14 C9       -6.1075     6.0102    -2.3102  C.ar    1  <O>11      -0.0520
  15 C10      -6.9064     5.5648    -1.2323  C.ar    1  <O>11       0.0118
  16 C11      -4.1810     0.9600    -2.6660  C.ar    1  <O>11       0.0444
  17 C12      -4.2219    -0.2419    -1.9528  C.ar    1  <O>11      -0.0490
  18 C13      -3.0443    -0.9458    -1.7225  C.ar    1  <O>11      -0.0605
  19 C14      -1.8248    -0.4335    -2.1806  C.ar    1  <O>11      -0.0540
  20 C15      -1.7695     0.7818    -2.8817  C.ar    1  <O>11      -0.0172
  21 C16      -0.5530     1.3099    -3.3430  C.ar    1  <O>11      -0.0540
  22 C17      -0.5198     2.5160    -4.0440  C.ar    1  <O>11      -0.0612
  23 C18      -1.7011     3.2078    -4.2967  C.ar    1  <O>11      -0.0611
  24 C19      -2.9173     2.6962    -3.8454  C.ar    1  <O>11      -0.0533
  25 C20      -2.9668     1.4856    -3.1334  C.ar    1  <O>11      -0.0058
  26 H1       -5.3400     2.7910    -1.1780  H       1  <O>11       0.1494
  27 H2       -7.9420     2.5839    -2.3499  H       1  <O>11       0.0528
  28 H3       -7.0451     3.8549    -3.2150  H       1  <O>11       0.0528
  29 H4       -9.0157     4.3979     1.7146  H       1  <O>11       0.1921
  30 H5       -7.0545     8.4838     0.4320  H       1  <O>11       0.0625
  31 H6       -5.6719     9.2052    -1.4178  H       1  <O>11       0.0618
  32 H7       -5.0702     7.6382    -3.1640  H       1  <O>11       0.0618
  33 H8       -5.8527     5.3497    -3.0611  H       1  <O>11       0.0624
  34 H9       -5.1209    -0.6050    -1.5991  H       1  <O>11       0.0625
  35 H10      -3.0697    -1.8440    -1.2149  H       1  <O>11       0.0618
  36 H11      -0.9537    -0.9566    -2.0003  H       1  <O>11       0.0624
  37 H12       0.3260     0.8005    -3.1616  H       1  <O>11       0.0624
  38 H13       0.3809     2.8954    -4.3753  H       1  <O>11       0.0618
  39 H14      -1.6768     4.0983    -4.8176  H       1  <O>11       0.0618
  40 H15      -3.7904     3.2121    -4.0362  H       1  <O>11       0.0624
@<TRIPOS>BOND
     1     1     2    2
     2     2     3   am
     3     3     4    1
     4     4     5    1
     5     5     6   ar
     6     6     7   ar
     7     7     8   ar
     8     8     9    2
     9     8    10   ar
    10    10    11   ar
    11    11    12   ar
    12    12    13   ar
    13    13    14   ar
    14    14    15   ar
    15     5    15   ar
    16    10    15   ar
    17     2    16    1
    18    16    17   ar
    19    17    18   ar
    20    18    19   ar
    21    19    20   ar
    22    20    21   ar
    23    21    22   ar
    24    22    23   ar
    25    23    24   ar
    26    24    25   ar
    27    16    25   ar
    28    20    25   ar
    29     3    26    1
    30     4    27    1
    31     4    28    1
    32     7    29    1
    33    11    30    1
    34    12    31    1
    35    13    32    1
    36    14    33    1
    37    17    34    1
    38    18    35    1
    39    19    36    1
    40    21    37    1
    41    22    38    1
    42    23    39    1
    43    24    40    1
@<TRIPOS>MOLECULE
mol38_1_3
 40 43 0 0 0
SMALL
USER_CHARGES
****
VDW energy = -29.22
@<TRIPOS>ATOM
   1 O1       -6.0607     1.4255    -3.9319  O.2     1  <O>11      -0.2702
   2 C1       -5.4199     1.6625    -2.9188  C.2     1  <O>11       0.2450
   3 N1       -5.8740     2.5930    -2.0230  N.am    1  <O>11      -0.3057
   4 C2       -7.1250     3.3020    -2.2790  C.3     1  <O>11       0.0565
   5 C3       -7.3940     4.2490    -1.1650  C.ar    1  <O>11       0.0863
   6 N2       -8.1325     3.8266    -0.0533  N.ar    1  <O>11      -0.1737
   7 N3       -8.4750     4.7033     0.9182  N.ar    1  <O>11      -0.2424
   8 C4       -8.0835     5.9961     0.8073  C.ar    1  <O>11       0.2725
   9 O2       -8.5537     6.8771     1.8003  O.2     1  <O>11      -0.2658
  10 C5       -7.2565     6.4746    -0.2192  C.ar    1  <O>11       0.0496
  11 C6       -6.7974     7.8095    -0.3057  C.ar    1  <O>11      -0.0487
  12 C7       -6.0028     8.2288    -1.3723  C.ar    1  <O>11      -0.0610
  13 C8       -5.6579     7.3303    -2.3736  C.ar    1  <O>11      -0.0611
  14 C9       -6.1073     6.0102    -2.3102  C.ar    1  <O>11      -0.0520
  15 C10      -6.9063     5.5648    -1.2323  C.ar    1  <O>11       0.0118
  16 C11      -4.1810     0.9600    -2.6660  C.ar    1  <O>11       0.0444
  17 C12      -2.9867     1.5079    -3.1439  C.ar    1  <O>11      -0.0490
  18 C13      -1.7820     0.8609    -2.8880  C.ar    1  <O>11      -0.0605
  19 C14      -1.7756    -0.3465    -2.1798  C.ar    1  <O>11      -0.0540
  20 C15      -2.9707    -0.9154    -1.7113  C.ar    1  <O>11      -0.0172
  21 C16      -2.9798    -2.1282    -1.0036  C.ar    1  <O>11      -0.0540
  22 C17      -4.1777    -2.6739    -0.5403  C.ar    1  <O>11      -0.0612
  23 C18      -5.3807    -2.0137    -0.7741  C.ar    1  <O>11      -0.0611
  24 C19      -5.3881    -0.8083    -1.4751  C.ar    1  <O>11      -0.0533
  25 C20      -4.1909    -0.2485    -1.9528  C.ar    1  <O>11      -0.0058
  26 H1       -5.3400     2.7910    -1.1780  H       1  <O>11       0.1494
  27 H2       -7.9420     2.5840    -2.3500  H       1  <O>11       0.0528
  28 H3       -7.0450     3.8550    -3.2150  H       1  <O>11       0.0528
  29 H4       -9.0158     4.3980     1.7145  H       1  <O>11       0.1921
  30 H5       -7.0544     8.4838     0.4321  H       1  <O>11       0.0625
  31 H6       -5.6716     9.2052    -1.4176  H       1  <O>11       0.0618
  32 H7       -5.0699     7.6382    -3.1638  H       1  <O>11       0.0618
  33 H8       -5.8525     5.3497    -3.0610  H       1  <O>11       0.0624
  34 H9       -2.9987     2.3875    -3.6834  H       1  <O>11       0.0625
  35 H10      -0.8946     1.2704    -3.2198  H       1  <O>11       0.0618
  36 H11      -0.8795    -0.8254    -1.9995  H       1  <O>11       0.0624
  37 H12      -2.0911    -2.6212    -0.8243  H       1  <O>11       0.0624
  38 H13      -4.1717    -3.5675    -0.0240  H       1  <O>11       0.0618
  39 H14      -6.2661    -2.4159    -0.4289  H       1  <O>11       0.0618
  40 H15      -6.2823    -0.3221    -1.6448  H       1  <O>11       0.0624
@<TRIPOS>BOND
     1     1     2    2
     2     2     3   am
     3     3     4    1
     4     4     5    1
     5     5     6   ar
     6     6     7   ar
     7     7     8   ar
     8     8     9    2
     9     8    10   ar
    10    10    11   ar
    11    11    12   ar
    12    12    13   ar
    13    13    14   ar
    14    14    15   ar
    15     5    15   ar
    16    10    15   ar
    17     2    16    1
    18    16    17   ar
    19    17    18   ar
    20    18    19   ar
    21    19    20   ar
    22    20    21   ar
    23    21    22   ar
    24    22    23   ar
    25    23    24   ar
    26    24    25   ar
    27    16    25   ar
    28    20    25   ar
    29     3    26    1
    30     4    27    1
    31     4    28    1
    32     7    29    1
    33    11    30    1
    34    12    31    1
    35    13    32    1
    36    14    33    1
    37    17    34    1
    38    18    35    1
    39    19    36    1
    40    21    37    1
    41    22    38    1
    42    23    39    1
    43    24    40    1
@<TRIPOS>MOLECULE
mol38_1_4
 40 43 0 0 0
SMALL
USER_CHARGES
****
VDW energy = -28.82
@<TRIPOS>ATOM
   1 O1       -6.0607     1.4255    -3.9319  O.2     1  <O>11      -0.2702
   2 C1       -5.4199     1.6625    -2.9188  C.2     1  <O>11       0.2450
   3 N1       -5.8740     2.5930    -2.0230  N.am    1  <O>11      -0.3057
   4 C2       -5.1067     2.8754    -0.8127  C.3     1  <O>11       0.0565
   5 C3       -5.8073     3.9152    -0.0140  C.ar    1  <O>11       0.0863
   6 N2       -5.5235     5.2690    -0.2290  N.ar    1  <O>11      -0.1737
   7 N3       -6.0732     6.2206     0.5597  N.ar    1  <O>11      -0.2424
   8 C4       -6.9132     5.8470     1.5555  C.ar    1  <O>11       0.2725
   9 O2       -7.3746     6.8749     2.4003  O.2     1  <O>11      -0.2658
  10 C5       -7.3284     4.5247     1.7697  C.ar    1  <O>11       0.0496
  11 C6       -8.2507     4.1391     2.7702  C.ar    1  <O>11      -0.0487
  12 C7       -8.5965     2.8003     2.9517  C.ar    1  <O>11      -0.0610
  13 C8       -8.0258     1.8228     2.1469  C.ar    1  <O>11      -0.0611
  14 C9       -7.1078     2.1824     1.1587  C.ar    1  <O>11      -0.0520
  15 C10      -6.7517     3.5352     0.9543  C.ar    1  <O>11       0.0118
  16 C11      -4.1810     0.9600    -2.6660  C.ar    1  <O>11       0.0444
  17 C12      -2.9867     1.5079    -3.1439  C.ar    1  <O>11      -0.0490
  18 C13      -1.7820     0.8609    -2.8880  C.ar    1  <O>11      -0.0605
  19 C14      -1.7756    -0.3465    -2.1798  C.ar    1  <O>11      -0.0540
  20 C15      -2.9707    -0.9154    -1.7113  C.ar    1  <O>11      -0.0172
  21 C16      -2.9798    -2.1282    -1.0036  C.ar    1  <O>11      -0.0540
  22 C17      -4.1777    -2.6739    -0.5403  C.ar    1  <O>11      -0.0612
  23 C18      -5.3807    -2.0137    -0.7741  C.ar    1  <O>11      -0.0611
  24 C19      -5.3881    -0.8083    -1.4751  C.ar    1  <O>11      -0.0533
  25 C20      -4.1909    -0.2485    -1.9528  C.ar    1  <O>11      -0.0058
  26 H1       -6.7466     3.0886    -2.2002  H       1  <O>11       0.1494
  27 H2       -4.1150     3.2353    -1.0865  H       1  <O>11       0.0528
  28 H3       -5.0121     1.9647    -0.2210  H       1  <O>11       0.0528
  29 H4       -5.8594     7.1959     0.4082  H       1  <O>11       0.1921
  30 H5       -8.6745     4.8597     3.3753  H       1  <O>11       0.0625
  31 H6       -9.2753     2.5363     3.6828  H       1  <O>11       0.0618
  32 H7       -8.2802     0.8314     2.2792  H       1  <O>11       0.0618
  33 H8       -6.6829     1.4501     0.5687  H       1  <O>11       0.0624
  34 H9       -2.9987     2.3875    -3.6834  H       1  <O>11       0.0625
  35 H10      -0.8946     1.2704    -3.2198  H       1  <O>11       0.0618
  36 H11      -0.8795    -0.8254    -1.9995  H       1  <O>11       0.0624
  37 H12      -2.0911    -2.6212    -0.8243  H       1  <O>11       0.0624
  38 H13      -4.1717    -3.5675    -0.0240  H       1  <O>11       0.0618
  39 H14      -6.2661    -2.4159    -0.4289  H       1  <O>11       0.0618
  40 H15      -6.2823    -0.3221    -1.6448  H       1  <O>11       0.0624
@<TRIPOS>BOND
     1     1     2    2
     2     2     3   am
     3     3     4    1
     4     4     5    1
     5     5     6   ar
     6     6     7   ar
     7     7     8   ar
     8     8     9    2
     9     8    10   ar
    10    10    11   ar
    11    11    12   ar
    12    12    13   ar
    13    13    14   ar
    14    14    15   ar
    15     5    15   ar
    16    10    15   ar
    17     2    16    1
    18    16    17   ar
    19    17    18   ar
    20    18    19   ar
    21    19    20   ar
    22    20    21   ar
    23    21    22   ar
    24    22    23   ar
    25    23    24   ar
    26    24    25   ar
    27    16    25   ar
    28    20    25   ar
    29     3    26    1
    30     4    27    1
    31     4    28    1
    32     7    29    1
    33    11    30    1
    34    12    31    1
    35    13    32    1
    36    14    33    1
    37    17    34    1
    38    18    35    1
    39    19    36    1
    40    21    37    1
    41    22    38    1
    42    23    39    1
    43    24    40    1
@<TRIPOS>MOLECULE
mol38_1_5
 40 43 0 0 0
SMALL
USER_CHARGES
****
VDW energy = -28.81
@<TRIPOS>ATOM
   1 O1       -6.0607     1.4255    -3.9319  O.2     1  <O>11      -0.2702
   2 C1       -5.4199     1.6625    -2.9188  C.2     1  <O>11       0.2450
   3 N1       -5.8740     2.5930    -2.0230  N.am    1  <O>11      -0.3057
   4 C2       -7.1250     3.3020    -2.2790  C.3     1  <O>11       0.0565
   5 C3       -7.3940     4.2490    -1.1650  C.ar    1  <O>11       0.0863
   6 N2       -6.9080     5.5601    -1.2312  N.ar    1  <O>11      -0.1737
   7 N3       -7.0534     6.4013    -0.1819  N.ar    1  <O>11      -0.2424
   8 C4       -7.6872     5.9615     0.9324  C.ar    1  <O>11       0.2725
   9 O2       -7.7202     6.8518     2.0231  O.2     1  <O>11      -0.2658
  10 C5       -8.2920     4.7007     1.0387  C.ar    1  <O>11       0.0496
  11 C6       -9.0053     4.2608     2.1779  C.ar    1  <O>11      -0.0487
  12 C7       -9.5553     2.9803     2.2315  C.ar    1  <O>11      -0.0610
  13 C8       -9.3990     2.1143     1.1571  C.ar    1  <O>11      -0.0611
  14 C9       -8.6919     2.5272     0.0265  C.ar    1  <O>11      -0.0520
  15 C10      -8.1348     3.8244    -0.0494  C.ar    1  <O>11       0.0118
  16 C11      -4.1810     0.9600    -2.6660  C.ar    1  <O>11       0.0444
  17 C12      -2.9867     1.5079    -3.1439  C.ar    1  <O>11      -0.0490
  18 C13      -1.7820     0.8609    -2.8880  C.ar    1  <O>11      -0.0605
  19 C14      -1.7756    -0.3465    -2.1798  C.ar    1  <O>11      -0.0540
  20 C15      -2.9707    -0.9154    -1.7113  C.ar    1  <O>11      -0.0172
  21 C16      -2.9798    -2.1282    -1.0036  C.ar    1  <O>11      -0.0540
  22 C17      -4.1777    -2.6739    -0.5403  C.ar    1  <O>11      -0.0612
  23 C18      -5.3807    -2.0137    -0.7741  C.ar    1  <O>11      -0.0611
  24 C19      -5.3881    -0.8083    -1.4751  C.ar    1  <O>11      -0.0533
  25 C20      -4.1909    -0.2485    -1.9528  C.ar    1  <O>11      -0.0058
  26 H1       -5.3400     2.7910    -1.1780  H       1  <O>11       0.1494
  27 H2       -7.9420     2.5840    -2.3500  H       1  <O>11       0.0528
  28 H3       -7.0450     3.8550    -3.2150  H       1  <O>11       0.0528
  29 H4       -6.6936     7.3436    -0.2288  H       1  <O>11       0.1921
  30 H5       -9.1207     4.8973     2.9820  H       1  <O>11       0.0625
  31 H6      -10.0776     2.6767     3.0682  H       1  <O>11       0.0618
  32 H7       -9.8051     1.1663     1.1944  H       1  <O>11       0.0618
  33 H8       -8.5741     1.8762    -0.7654  H       1  <O>11       0.0624
  34 H9       -2.9987     2.3875    -3.6834  H       1  <O>11       0.0625
  35 H10      -0.8946     1.2704    -3.2198  H       1  <O>11       0.0618
  36 H11      -0.8795    -0.8254    -1.9995  H       1  <O>11       0.0624
  37 H12      -2.0911    -2.6212    -0.8243  H       1  <O>11       0.0624
  38 H13      -4.1717    -3.5675    -0.0240  H       1  <O>11       0.0618
  39 H14      -6.2661    -2.4159    -0.4289  H       1  <O>11       0.0618
  40 H15      -6.2823    -0.3221    -1.6448  H       1  <O>11       0.0624
@<TRIPOS>BOND
     1     1     2    2
     2     2     3   am
     3     3     4    1
     4     4     5    1
     5     5     6   ar
     6     6     7   ar
     7     7     8   ar
     8     8     9    2
     9     8    10   ar
    10    10    11   ar
    11    11    12   ar
    12    12    13   ar
    13    13    14   ar
    14    14    15   ar
    15     5    15   ar
    16    10    15   ar
    17     2    16    1
    18    16    17   ar
    19    17    18   ar
    20    18    19   ar
    21    19    20   ar
    22    20    21   ar
    23    21    22   ar
    24    22    23   ar
    25    23    24   ar
    26    24    25   ar
    27    16    25   ar
    28    20    25   ar
    29     3    26    1
    30     4    27    1
    31     4    28    1
    32     7    29    1
    33    11    30    1
    34    12    31    1
    35    13    32    1
    36    14    33    1
    37    17    34    1
    38    18    35    1
    39    19    36    1
    40    21    37    1
    41    22    38    1
    42    23    39    1
    43    24    40    1
@<TRIPOS>MOLECULE
mol38_1_6
 40 43 0 0 0
SMALL
USER_CHARGES
****
VDW energy = -28.62
@<TRIPOS>ATOM
   1 O1       -6.0607     1.4255    -3.9319  O.2     1  <O>11      -0.2702
   2 C1       -5.4199     1.6625    -2.9188  C.2     1  <O>11       0.2450
   3 N1       -5.8740     2.5930    -2.0230  N.am    1  <O>11      -0.3057
   4 C2       -7.1250     3.3019    -2.2790  C.3     1  <O>11       0.0565
   5 C3       -7.3940     4.2489    -1.1650  C.ar    1  <O>11       0.0863
   6 N2       -6.9081     5.5601    -1.2313  N.ar    1  <O>11      -0.1737
   7 N3       -7.0535     6.4012    -0.1820  N.ar    1  <O>11      -0.2424
   8 C4       -7.6872     5.9615     0.9324  C.ar    1  <O>11       0.2725
   9 O2       -7.7202     6.8518     2.0231  O.2     1  <O>11      -0.2658
  10 C5       -8.2920     4.7007     1.0387  C.ar    1  <O>11       0.0496
  11 C6       -9.0052     4.2607     2.1780  C.ar    1  <O>11      -0.0487
  12 C7       -9.5551     2.9802     2.2317  C.ar    1  <O>11      -0.0610
  13 C8       -9.3988     2.1142     1.1573  C.ar    1  <O>11      -0.0611
  14 C9       -8.6918     2.5271     0.0267  C.ar    1  <O>11      -0.0520
  15 C10      -8.1348     3.8243    -0.0493  C.ar    1  <O>11       0.0118
  16 C11      -4.1810     0.9600    -2.6660  C.ar    1  <O>11       0.0444
  17 C12      -4.2219    -0.2419    -1.9528  C.ar    1  <O>11      -0.0490
  18 C13      -3.0443    -0.9458    -1.7225  C.ar    1  <O>11      -0.0605
  19 C14      -1.8248    -0.4335    -2.1806  C.ar    1  <O>11      -0.0540
  20 C15      -1.7695     0.7818    -2.8817  C.ar    1  <O>11      -0.0172
  21 C16      -0.5530     1.3099    -3.3430  C.ar    1  <O>11      -0.0540
  22 C17      -0.5198     2.5160    -4.0440  C.ar    1  <O>11      -0.0612
  23 C18      -1.7011     3.2078    -4.2967  C.ar    1  <O>11      -0.0611
  24 C19      -2.9173     2.6962    -3.8454  C.ar    1  <O>11      -0.0533
  25 C20      -2.9668     1.4856    -3.1334  C.ar    1  <O>11      -0.0058
  26 H1       -5.3400     2.7910    -1.1780  H       1  <O>11       0.1494
  27 H2       -7.9420     2.5839    -2.3499  H       1  <O>11       0.0528
  28 H3       -7.0451     3.8549    -3.2150  H       1  <O>11       0.0528
  29 H4       -6.6937     7.3436    -0.2289  H       1  <O>11       0.1921
  30 H5       -9.1205     4.8972     2.9821  H       1  <O>11       0.0625
  31 H6      -10.0774     2.6767     3.0684  H       1  <O>11       0.0618
  32 H7       -9.8049     1.1662     1.1947  H       1  <O>11       0.0618
  33 H8       -8.5740     1.8761    -0.7652  H       1  <O>11       0.0624
  34 H9       -5.1209    -0.6050    -1.5991  H       1  <O>11       0.0625
  35 H10      -3.0697    -1.8440    -1.2149  H       1  <O>11       0.0618
  36 H11      -0.9537    -0.9566    -2.0003  H       1  <O>11       0.0624
  37 H12       0.3260     0.8005    -3.1616  H       1  <O>11       0.0624
  38 H13       0.3809     2.8954    -4.3753  H       1  <O>11       0.0618
  39 H14      -1.6768     4.0983    -4.8176  H       1  <O>11       0.0618
  40 H15      -3.7904     3.2121    -4.0362  H       1  <O>11       0.0624
@<TRIPOS>BOND
     1     1     2    2
     2     2     3   am
     3     3     4    1
     4     4     5    1
     5     5     6   ar
     6     6     7   ar
     7     7     8   ar
     8     8     9    2
     9     8    10   ar
    10    10    11   ar
    11    11    12   ar
    12    12    13   ar
    13    13    14   ar
    14    14    15   ar
    15     5    15   ar
    16    10    15   ar
    17     2    16    1
    18    16    17   ar
    19    17    18   ar
    20    18    19   ar
    21    19    20   ar
    22    20    21   ar
    23    21    22   ar
    24    22    23   ar
    25    23    24   ar
    26    24    25   ar
    27    16    25   ar
    28    20    25   ar
    29     3    26    1
    30     4    27    1
    31     4    28    1
    32     7    29    1
    33    11    30    1
    34    12    31    1
    35    13    32    1
    36    14    33    1
    37    17    34    1
    38    18    35    1
    39    19    36    1
    40    21    37    1
    41    22    38    1
    42    23    39    1
    43    24    40    1
@<TRIPOS>MOLECULE
mol38_1_7
 40 43 0 0 0
SMALL
USER_CHARGES
****
VDW energy = -28.57
@<TRIPOS>ATOM
   1 O1       -6.0607     1.4255    -3.9319  O.2     1  <O>11      -0.2702
   2 C1       -5.4199     1.6625    -2.9188  C.2     1  <O>11       0.2450
   3 N1       -5.8740     2.5930    -2.0230  N.am    1  <O>11      -0.3057
   4 C2       -7.1250     3.3020    -2.2790  C.3     1  <O>11       0.0565
   5 C3       -7.0145     4.0552    -3.5560  C.ar    1  <O>11       0.0863
   6 N2       -7.3846     3.4449    -4.7602  N.ar    1  <O>11      -0.1737
   7 N3       -7.1918     4.0781    -5.9398  N.ar    1  <O>11      -0.2424
   8 C4       -6.6453     5.3183    -5.9405  C.ar    1  <O>11       0.2725
   9 O2       -6.3814     5.8825    -7.2036  O.2     1  <O>11      -0.2658
  10 C5       -6.3444     6.0380    -4.7751  C.ar    1  <O>11       0.0496
  11 C6       -5.8295     7.3552    -4.7714  C.ar    1  <O>11      -0.0487
  12 C7       -5.5204     8.0029    -3.5756  C.ar    1  <O>11      -0.0610
  13 C8       -5.7112     7.3495    -2.3651  C.ar    1  <O>11      -0.0611
  14 C9       -6.2115     6.0464    -2.3480  C.ar    1  <O>11      -0.0520
  15 C10      -6.5386     5.3770    -3.5495  C.ar    1  <O>11       0.0118
  16 C11      -4.1810     0.9600    -2.6660  C.ar    1  <O>11       0.0444
  17 C12      -4.2219    -0.2419    -1.9528  C.ar    1  <O>11      -0.0490
  18 C13      -3.0443    -0.9458    -1.7225  C.ar    1  <O>11      -0.0605
  19 C14      -1.8248    -0.4335    -2.1806  C.ar    1  <O>11      -0.0540
  20 C15      -1.7695     0.7818    -2.8817  C.ar    1  <O>11      -0.0172
  21 C16      -0.5530     1.3099    -3.3430  C.ar    1  <O>11      -0.0540
  22 C17      -0.5198     2.5160    -4.0440  C.ar    1  <O>11      -0.0612
  23 C18      -1.7011     3.2078    -4.2967  C.ar    1  <O>11      -0.0611
  24 C19      -2.9173     2.6962    -3.8454  C.ar    1  <O>11      -0.0533
  25 C20      -2.9668     1.4856    -3.1334  C.ar    1  <O>11      -0.0058
  26 H1       -5.3400     2.7910    -1.1780  H       1  <O>11       0.1494
  27 H2       -7.3222     3.9977    -1.4634  H       1  <O>11       0.0528
  28 H3       -7.9423     2.5841    -2.3498  H       1  <O>11       0.0528
  29 H4       -7.4511     3.6317    -6.8077  H       1  <O>11       0.1921
  30 H5       -5.6802     7.8447    -5.6676  H       1  <O>11       0.0625
  31 H6       -5.1505     8.9663    -3.5903  H       1  <O>11       0.0618
  32 H7       -5.4833     7.8268    -1.4790  H       1  <O>11       0.0618
  33 H8       -6.3446     5.5647    -1.4452  H       1  <O>11       0.0624
  34 H9       -5.1209    -0.6050    -1.5991  H       1  <O>11       0.0625
  35 H10      -3.0697    -1.8440    -1.2149  H       1  <O>11       0.0618
  36 H11      -0.9537    -0.9566    -2.0003  H       1  <O>11       0.0624
  37 H12       0.3260     0.8005    -3.1616  H       1  <O>11       0.0624
  38 H13       0.3809     2.8954    -4.3753  H       1  <O>11       0.0618
  39 H14      -1.6768     4.0983    -4.8176  H       1  <O>11       0.0618
  40 H15      -3.7904     3.2121    -4.0362  H       1  <O>11       0.0624
@<TRIPOS>BOND
     1     1     2    2
     2     2     3   am
     3     3     4    1
     4     4     5    1
     5     5     6   ar
     6     6     7   ar
     7     7     8   ar
     8     8     9    2
     9     8    10   ar
    10    10    11   ar
    11    11    12   ar
    12    12    13   ar
    13    13    14   ar
    14    14    15   ar
    15     5    15   ar
    16    10    15   ar
    17     2    16    1
    18    16    17   ar
    19    17    18   ar
    20    18    19   ar
    21    19    20   ar
    22    20    21   ar
    23    21    22   ar
    24    22    23   ar
    25    23    24   ar
    26    24    25   ar
    27    16    25   ar
    28    20    25   ar
    29     3    26    1
    30     4    27    1
    31     4    28    1
    32     7    29    1
    33    11    30    1
    34    12    31    1
    35    13    32    1
    36    14    33    1
    37    17    34    1
    38    18    35    1
    39    19    36    1
    40    21    37    1
    41    22    38    1
    42    23    39    1
    43    24    40    1
@<TRIPOS>MOLECULE
mol38_1_8
 40 43 0 0 0
SMALL
USER_CHARGES
****
VDW energy = -28.52
@<TRIPOS>ATOM
   1 O1       -6.0607     1.4255    -3.9319  O.2     1  <O>11      -0.2702
   2 C1       -5.4199     1.6625    -2.9188  C.2     1  <O>11       0.2450
   3 N1       -5.8740     2.5930    -2.0230  N.am    1  <O>11      -0.3057
   4 C2       -5.1067     2.8754    -0.8127  C.3     1  <O>11       0.0565
   5 C3       -5.8073     3.9152    -0.0140  C.ar    1  <O>11       0.0863
   6 N2       -5.5235     5.2690    -0.2290  N.ar    1  <O>11      -0.1737
   7 N3       -6.0732     6.2206     0.5597  N.ar    1  <O>11      -0.2424
   8 C4       -6.9132     5.8470     1.5555  C.ar    1  <O>11       0.2725
   9 O2       -7.3746     6.8749     2.4003  O.2     1  <O>11      -0.2658
  10 C5       -7.3284     4.5247     1.7697  C.ar    1  <O>11       0.0496
  11 C6       -8.2507     4.1391     2.7702  C.ar    1  <O>11      -0.0487
  12 C7       -8.5965     2.8003     2.9517  C.ar    1  <O>11      -0.0610
  13 C8       -8.0258     1.8228     2.1469  C.ar    1  <O>11      -0.0611
  14 C9       -7.1078     2.1824     1.1587  C.ar    1  <O>11      -0.0520
  15 C10      -6.7517     3.5352     0.9543  C.ar    1  <O>11       0.0118
  16 C11      -4.1810     0.9600    -2.6660  C.ar    1  <O>11       0.0444
  17 C12      -4.2219    -0.2419    -1.9528  C.ar    1  <O>11      -0.0490
  18 C13      -3.0443    -0.9458    -1.7225  C.ar    1  <O>11      -0.0605
  19 C14      -1.8248    -0.4335    -2.1806  C.ar    1  <O>11      -0.0540
  20 C15      -1.7695     0.7818    -2.8817  C.ar    1  <O>11      -0.0172
  21 C16      -0.5530     1.3099    -3.3430  C.ar    1  <O>11      -0.0540
  22 C17      -0.5198     2.5160    -4.0440  C.ar    1  <O>11      -0.0612
  23 C18      -1.7011     3.2078    -4.2967  C.ar    1  <O>11      -0.0611
  24 C19      -2.9173     2.6962    -3.8454  C.ar    1  <O>11      -0.0533
  25 C20      -2.9668     1.4856    -3.1334  C.ar    1  <O>11      -0.0058
  26 H1       -6.7466     3.0886    -2.2002  H       1  <O>11       0.1494
  27 H2       -4.1150     3.2353    -1.0865  H       1  <O>11       0.0528
  28 H3       -5.0121     1.9647    -0.2210  H       1  <O>11       0.0528
  29 H4       -5.8594     7.1959     0.4082  H       1  <O>11       0.1921
  30 H5       -8.6745     4.8597     3.3753  H       1  <O>11       0.0625
  31 H6       -9.2753     2.5363     3.6828  H       1  <O>11       0.0618
  32 H7       -8.2802     0.8314     2.2792  H       1  <O>11       0.0618
  33 H8       -6.6829     1.4501     0.5687  H       1  <O>11       0.0624
  34 H9       -5.1209    -0.6050    -1.5991  H       1  <O>11       0.0625
  35 H10      -3.0697    -1.8440    -1.2149  H       1  <O>11       0.0618
  36 H11      -0.9537    -0.9566    -2.0003  H       1  <O>11       0.0624
  37 H12       0.3260     0.8005    -3.1616  H       1  <O>11       0.0624
  38 H13       0.3809     2.8954    -4.3753  H       1  <O>11       0.0618
  39 H14      -1.6768     4.0983    -4.8176  H       1  <O>11       0.0618
  40 H15      -3.7904     3.2121    -4.0362  H       1  <O>11       0.0624
@<TRIPOS>BOND
     1     1     2    2
     2     2     3   am
     3     3     4    1
     4     4     5    1
     5     5     6   ar
     6     6     7   ar
     7     7     8   ar
     8     8     9    2
     9     8    10   ar
    10    10    11   ar
    11    11    12   ar
    12    12    13   ar
    13    13    14   ar
    14    14    15   ar
    15     5    15   ar
    16    10    15   ar
    17     2    16    1
    18    16    17   ar
    19    17    18   ar
    20    18    19   ar
    21    19    20   ar
    22    20    21   ar
    23    21    22   ar
    24    22    23   ar
    25    23    24   ar
    26    24    25   ar
    27    16    25   ar
    28    20    25   ar
    29     3    26    1
    30     4    27    1
    31     4    28    1
    32     7    29    1
    33    11    30    1
    34    12    31    1
    35    13    32    1
    36    14    33    1
    37    17    34    1
    38    18    35    1
    39    19    36    1
    40    21    37    1
    41    22    38    1
    42    23    39    1
    43    24    40    1
@<TRIPOS>MOLECULE
mol38_1_9
 40 43 0 0 0
SMALL
USER_CHARGES
****
VDW energy = -28.50
@<TRIPOS>ATOM
   1 O1       -6.0607     1.4255    -3.9319  O.2     1  <O>11      -0.2702
   2 C1       -5.4199     1.6625    -2.9188  C.2     1  <O>11       0.2450
   3 N1       -5.8740     2.5930    -2.0230  N.am    1  <O>11      -0.3057
   4 C2       -7.1250     3.3020    -2.2790  C.3     1  <O>11       0.0565
   5 C3       -7.3940     4.2490    -1.1650  C.ar    1  <O>11       0.0863
   6 N2       -7.5023     5.6201    -1.4257  N.ar    1  <O>11      -0.1737
   7 N3       -7.6419     6.5041    -0.4114  N.ar    1  <O>11      -0.2424
   8 C4       -7.6874     6.0437     0.8625  C.ar    1  <O>11       0.2725
   9 O2       -7.7358     7.0197     1.8766  O.2     1  <O>11      -0.2658
  10 C5       -7.6900     4.6824     1.1996  C.ar    1  <O>11       0.0496
  11 C6       -7.7971     4.1972     2.5237  C.ar    1  <O>11      -0.0487
  12 C7       -7.7602     2.8294     2.7933  C.ar    1  <O>11      -0.0610
  13 C8       -7.6090     1.9226     1.7523  C.ar    1  <O>11      -0.0611
  14 C9       -7.4942     2.3821     0.4392  C.ar    1  <O>11      -0.0520
  15 C10      -7.5381     3.7643     0.1457  C.ar    1  <O>11       0.0118
  16 C11      -4.1810     0.9600    -2.6660  C.ar    1  <O>11       0.0444
  17 C12      -2.9867     1.5079    -3.1439  C.ar    1  <O>11      -0.0490
  18 C13      -1.7820     0.8609    -2.8880  C.ar    1  <O>11      -0.0605
  19 C14      -1.7756    -0.3465    -2.1798  C.ar    1  <O>11      -0.0540
  20 C15      -2.9707    -0.9154    -1.7113  C.ar    1  <O>11      -0.0172
  21 C16      -2.9798    -2.1282    -1.0036  C.ar    1  <O>11      -0.0540
  22 C17      -4.1777    -2.6739    -0.5403  C.ar    1  <O>11      -0.0612
  23 C18      -5.3807    -2.0137    -0.7741  C.ar    1  <O>11      -0.0611
  24 C19      -5.3881    -0.8083    -1.4751  C.ar    1  <O>11      -0.0533
  25 C20      -4.1909    -0.2485    -1.9528  C.ar    1  <O>11      -0.0058
  26 H1       -5.3400     2.7910    -1.1780  H       1  <O>11       0.1494
  27 H2       -7.9420     2.5840    -2.3500  H       1  <O>11       0.0528
  28 H3       -7.0450     3.8550    -3.2150  H       1  <O>11       0.0528
  29 H4       -7.7104     7.4934    -0.6017  H       1  <O>11       0.1921
  30 H5       -7.9043     4.8658     3.3025  H       1  <O>11       0.0625
  31 H6       -7.8451     2.4916     3.7647  H       1  <O>11       0.0618
  32 H7       -7.5815     0.9099     1.9493  H       1  <O>11       0.0618
  33 H8       -7.3755     1.7029    -0.3286  H       1  <O>11       0.0624
  34 H9       -2.9987     2.3875    -3.6834  H       1  <O>11       0.0625
  35 H10      -0.8946     1.2704    -3.2198  H       1  <O>11       0.0618
  36 H11      -0.8795    -0.8254    -1.9995  H       1  <O>11       0.0624
  37 H12      -2.0911    -2.6212    -0.8243  H       1  <O>11       0.0624
  38 H13      -4.1717    -3.5675    -0.0240  H       1  <O>11       0.0618
  39 H14      -6.2661    -2.4159    -0.4289  H       1  <O>11       0.0618
  40 H15      -6.2823    -0.3221    -1.6448  H       1  <O>11       0.0624
@<TRIPOS>BOND
     1     1     2    2
     2     2     3   am
     3     3     4    1
     4     4     5    1
     5     5     6   ar
     6     6     7   ar
     7     7     8   ar
     8     8     9    2
     9     8    10   ar
    10    10    11   ar
    11    11    12   ar
    12    12    13   ar
    13    13    14   ar
    14    14    15   ar
    15     5    15   ar
    16    10    15   ar
    17     2    16    1
    18    16    17   ar
    19    17    18   ar
    20    18    19   ar
    21    19    20   ar
    22    20    21   ar
    23    21    22   ar
    24    22    23   ar
    25    23    24   ar
    26    24    25   ar
    27    16    25   ar
    28    20    25   ar
    29     3    26    1
    30     4    27    1
    31     4    28    1
    32     7    29    1
    33    11    30    1
    34    12    31    1
    35    13    32    1
    36    14    33    1
    37    17    34    1
    38    18    35    1
    39    19    36    1
    40    21    37    1
    41    22    38    1
    42    23    39    1
    43    24    40    1
@<TRIPOS>MOLECULE
mol38_1_10
 40 43 0 0 0
SMALL
USER_CHARGES
****
VDW energy = -28.17
@<TRIPOS>ATOM
   1 O1       -6.0607     1.4255    -3.9319  O.2     1  <O>11      -0.2702
   2 C1       -5.4199     1.6625    -2.9188  C.2     1  <O>11       0.2450
   3 N1       -5.8740     2.5930    -2.0230  N.am    1  <O>11      -0.3057
   4 C2       -7.1250     3.3020    -2.2790  C.3     1  <O>11       0.0565
   5 C3       -7.3940     4.2490    -1.1650  C.ar    1  <O>11       0.0863
   6 N2       -7.5023     5.6201    -1.4257  N.ar    1  <O>11      -0.1737
   7 N3       -7.6419     6.5041    -0.4114  N.ar    1  <O>11      -0.2424
   8 C4       -7.6874     6.0437     0.8625  C.ar    1  <O>11       0.2725
   9 O2       -7.7358     7.0197     1.8766  O.2     1  <O>11      -0.2658
  10 C5       -7.6900     4.6824     1.1996  C.ar    1  <O>11       0.0496
  11 C6       -7.7971     4.1972     2.5237  C.ar    1  <O>11      -0.0487
  12 C7       -7.7602     2.8294     2.7933  C.ar    1  <O>11      -0.0610
  13 C8       -7.6090     1.9226     1.7523  C.ar    1  <O>11      -0.0611
  14 C9       -7.4942     2.3821     0.4392  C.ar    1  <O>11      -0.0520
  15 C10      -7.5381     3.7643     0.1457  C.ar    1  <O>11       0.0118
  16 C11      -4.1810     0.9600    -2.6660  C.ar    1  <O>11       0.0444
  17 C12      -4.2219    -0.2419    -1.9528  C.ar    1  <O>11      -0.0490
  18 C13      -3.0443    -0.9458    -1.7225  C.ar    1  <O>11      -0.0605
  19 C14      -1.8248    -0.4335    -2.1806  C.ar    1  <O>11      -0.0540
  20 C15      -1.7695     0.7818    -2.8817  C.ar    1  <O>11      -0.0172
  21 C16      -0.5530     1.3099    -3.3430  C.ar    1  <O>11      -0.0540
  22 C17      -0.5198     2.5160    -4.0440  C.ar    1  <O>11      -0.0612
  23 C18      -1.7011     3.2078    -4.2967  C.ar    1  <O>11      -0.0611
  24 C19      -2.9173     2.6962    -3.8454  C.ar    1  <O>11      -0.0533
  25 C20      -2.9668     1.4856    -3.1334  C.ar    1  <O>11      -0.0058
  26 H1       -5.3400     2.7910    -1.1780  H       1  <O>11       0.1494
  27 H2       -7.9420     2.5840    -2.3500  H       1  <O>11       0.0528
  28 H3       -7.0450     3.8550    -3.2150  H       1  <O>11       0.0528
  29 H4       -7.7104     7.4934    -0.6017  H       1  <O>11       0.1921
  30 H5       -7.9043     4.8658     3.3025  H       1  <O>11       0.0625
  31 H6       -7.8451     2.4916     3.7647  H       1  <O>11       0.0618
  32 H7       -7.5815     0.9099     1.9493  H       1  <O>11       0.0618
  33 H8       -7.3755     1.7029    -0.3286  H       1  <O>11       0.0624
  34 H9       -5.1209    -0.6050    -1.5991  H       1  <O>11       0.0625
  35 H10      -3.0697    -1.8440    -1.2149  H       1  <O>11       0.0618
  36 H11      -0.9537    -0.9566    -2.0003  H       1  <O>11       0.0624
  37 H12       0.3260     0.8005    -3.1616  H       1  <O>11       0.0624
  38 H13       0.3809     2.8954    -4.3753  H       1  <O>11       0.0618
  39 H14      -1.6768     4.0983    -4.8176  H       1  <O>11       0.0618
  40 H15      -3.7904     3.2121    -4.0362  H       1  <O>11       0.0624
@<TRIPOS>BOND
     1     1     2    2
     2     2     3   am
     3     3     4    1
     4     4     5    1
     5     5     6   ar
     6     6     7   ar
     7     7     8   ar
     8     8     9    2
     9     8    10   ar
    10    10    11   ar
    11    11    12   ar
    12    12    13   ar
    13    13    14   ar
    14    14    15   ar
    15     5    15   ar
    16    10    15   ar
    17     2    16    1
    18    16    17   ar
    19    17    18   ar
    20    18    19   ar
    21    19    20   ar
    22    20    21   ar
    23    21    22   ar
    24    22    23   ar
    25    23    24   ar
    26    24    25   ar
    27    16    25   ar
    28    20    25   ar
    29     3    26    1
    30     4    27    1
    31     4    28    1
    32     7    29    1
    33    11    30    1
    34    12    31    1
    35    13    32    1
    36    14    33    1
    37    17    34    1
    38    18    35    1
    39    19    36    1
    40    21    37    1
    41    22    38    1
    42    23    39    1
    43    24    40    1
@<TRIPOS>MOLECULE
mol38_1_11
 40 43 0 0 0
SMALL
USER_CHARGES
****
VDW energy = -28.06
@<TRIPOS>ATOM
   1 O1       -6.0607     1.4255    -3.9319  O.2     1  <O>11      -0.2702
   2 C1       -5.4199     1.6625    -2.9188  C.2     1  <O>11       0.2450
   3 N1       -5.8740     2.5930    -2.0230  N.am    1  <O>11      -0.3057
   4 C2       -5.1067     2.8754    -0.8127  C.3     1  <O>11       0.0565
   5 C3       -5.8073     3.9152    -0.0140  C.ar    1  <O>11       0.0863
   6 N2       -6.7487     3.5373     0.9507  N.ar    1  <O>11      -0.1737
   7 N3       -7.4699     4.4719     1.6110  N.ar    1  <O>11      -0.2424
   8 C4       -7.2610     5.7822     1.3347  C.ar    1  <O>11       0.2725
   9 O2       -8.1101     6.6992     1.9840  O.2     1  <O>11      -0.2658
  10 C5       -6.2671     6.2455     0.4606  C.ar    1  <O>11       0.0496
  11 C6       -6.0069     7.6137     0.2150  C.ar    1  <O>11      -0.0487
  12 C7       -5.0240     8.0070    -0.6929  C.ar    1  <O>11      -0.0610
  13 C8       -4.2892     7.0470    -1.3764  C.ar    1  <O>11      -0.0611
  14 C9       -4.5361     5.6913    -1.1534  C.ar    1  <O>11      -0.0520
  15 C10      -5.5224     5.2737    -0.2306  C.ar    1  <O>11       0.0118
  16 C11      -4.1810     0.9600    -2.6660  C.ar    1  <O>11       0.0444
  17 C12      -4.2219    -0.2419    -1.9528  C.ar    1  <O>11      -0.0490
  18 C13      -3.0443    -0.9458    -1.7225  C.ar    1  <O>11      -0.0605
  19 C14      -1.8248    -0.4335    -2.1806  C.ar    1  <O>11      -0.0540
  20 C15      -1.7695     0.7818    -2.8817  C.ar    1  <O>11      -0.0172
  21 C16      -0.5530     1.3099    -3.3430  C.ar    1  <O>11      -0.0540
  22 C17      -0.5198     2.5160    -4.0440  C.ar    1  <O>11      -0.0612
  23 C18      -1.7011     3.2078    -4.2967  C.ar    1  <O>11      -0.0611
  24 C19      -2.9173     2.6962    -3.8454  C.ar    1  <O>11      -0.0533
  25 C20      -2.9668     1.4856    -3.1334  C.ar    1  <O>11      -0.0058
  26 H1       -6.7466     3.0886    -2.2002  H       1  <O>11       0.1494
  27 H2       -4.1150     3.2353    -1.0865  H       1  <O>11       0.0528
  28 H3       -5.0121     1.9647    -0.2210  H       1  <O>11       0.0528
  29 H4       -8.1550     4.1961     2.2998  H       1  <O>11       0.1921
  30 H5       -6.5529     8.3324     0.7155  H       1  <O>11       0.0625
  31 H6       -4.8429     9.0097    -0.8565  H       1  <O>11       0.0618
  32 H7       -3.5612     7.3355    -2.0486  H       1  <O>11       0.0618
  33 H8       -3.9907     4.9835    -1.6696  H       1  <O>11       0.0624
  34 H9       -5.1209    -0.6050    -1.5991  H       1  <O>11       0.0625
  35 H10      -3.0697    -1.8440    -1.2149  H       1  <O>11       0.0618
  36 H11      -0.9537    -0.9566    -2.0003  H       1  <O>11       0.0624
  37 H12       0.3260     0.8005    -3.1616  H       1  <O>11       0.0624
  38 H13       0.3809     2.8954    -4.3753  H       1  <O>11       0.0618
  39 H14      -1.6768     4.0983    -4.8176  H       1  <O>11       0.0618
  40 H15      -3.7904     3.2121    -4.0362  H       1  <O>11       0.0624
@<TRIPOS>BOND
     1     1     2    2
     2     2     3   am
     3     3     4    1
     4     4     5    1
     5     5     6   ar
     6     6     7   ar
     7     7     8   ar
     8     8     9    2
     9     8    10   ar
    10    10    11   ar
    11    11    12   ar
    12    12    13   ar
    13    13    14   ar
    14    14    15   ar
    15     5    15   ar
    16    10    15   ar
    17     2    16    1
    18    16    17   ar
    19    17    18   ar
    20    18    19   ar
    21    19    20   ar
    22    20    21   ar
    23    21    22   ar
    24    22    23   ar
    25    23    24   ar
    26    24    25   ar
    27    16    25   ar
    28    20    25   ar
    29     3    26    1
    30     4    27    1
    31     4    28    1
    32     7    29    1
    33    11    30    1
    34    12    31    1
    35    13    32    1
    36    14    33    1
    37    17    34    1
    38    18    35    1
    39    19    36    1
    40    21    37    1
    41    22    38    1
    42    23    39    1
    43    24    40    1
@<TRIPOS>MOLECULE
mol38_1_12
 40 43 0 0 0
SMALL
USER_CHARGES
****
VDW energy = -27.91
@<TRIPOS>ATOM
   1 O1       -6.0607     1.4255    -3.9319  O.2     1  <O>11      -0.2702
   2 C1       -5.4199     1.6625    -2.9188  C.2     1  <O>11       0.2450
   3 N1       -5.8740     2.5930    -2.0230  N.am    1  <O>11      -0.3057
   4 C2       -7.1250     3.3020    -2.2790  C.3     1  <O>11       0.0565
   5 C3       -7.0145     4.0552    -3.5560  C.ar    1  <O>11       0.0863
   6 N2       -7.3846     3.4449    -4.7602  N.ar    1  <O>11      -0.1737
   7 N3       -7.1918     4.0781    -5.9398  N.ar    1  <O>11      -0.2424
   8 C4       -6.6453     5.3183    -5.9405  C.ar    1  <O>11       0.2725
   9 O2       -6.3814     5.8825    -7.2036  O.2     1  <O>11      -0.2658
  10 C5       -6.3444     6.0380    -4.7751  C.ar    1  <O>11       0.0496
  11 C6       -5.8295     7.3552    -4.7714  C.ar    1  <O>11      -0.0487
  12 C7       -5.5204     8.0029    -3.5756  C.ar    1  <O>11      -0.0610
  13 C8       -5.7112     7.3495    -2.3651  C.ar    1  <O>11      -0.0611
  14 C9       -6.2115     6.0464    -2.3480  C.ar    1  <O>11      -0.0520
  15 C10      -6.5386     5.3770    -3.5495  C.ar    1  <O>11       0.0118
  16 C11      -4.1810     0.9600    -2.6660  C.ar    1  <O>11       0.0444
  17 C12      -2.9867     1.5079    -3.1439  C.ar    1  <O>11      -0.0490
  18 C13      -1.7820     0.8609    -2.8880  C.ar    1  <O>11      -0.0605
  19 C14      -1.7756    -0.3465    -2.1798  C.ar    1  <O>11      -0.0540
  20 C15      -2.9707    -0.9154    -1.7113  C.ar    1  <O>11      -0.0172
  21 C16      -2.9798    -2.1282    -1.0036  C.ar    1  <O>11      -0.0540
  22 C17      -4.1777    -2.6739    -0.5403  C.ar    1  <O>11      -0.0612
  23 C18      -5.3807    -2.0137    -0.7741  C.ar    1  <O>11      -0.0611
  24 C19      -5.3881    -0.8083    -1.4751  C.ar    1  <O>11      -0.0533
  25 C20      -4.1909    -0.2485    -1.9528  C.ar    1  <O>11      -0.0058
  26 H1       -5.3400     2.7910    -1.1780  H       1  <O>11       0.1494
  27 H2       -7.3222     3.9977    -1.4634  H       1  <O>11       0.0528
  28 H3       -7.9423     2.5841    -2.3498  H       1  <O>11       0.0528
  29 H4       -7.4511     3.6317    -6.8077  H       1  <O>11       0.1921
  30 H5       -5.6802     7.8447    -5.6676  H       1  <O>11       0.0625
  31 H6       -5.1505     8.9663    -3.5903  H       1  <O>11       0.0618
  32 H7       -5.4833     7.8268    -1.4790  H       1  <O>11       0.0618
  33 H8       -6.3446     5.5647    -1.4452  H       1  <O>11       0.0624
  34 H9       -2.9987     2.3875    -3.6834  H       1  <O>11       0.0625
  35 H10      -0.8946     1.2704    -3.2198  H       1  <O>11       0.0618
  36 H11      -0.8795    -0.8254    -1.9995  H       1  <O>11       0.0624
  37 H12      -2.0911    -2.6212    -0.8243  H       1  <O>11       0.0624
  38 H13      -4.1717    -3.5675    -0.0240  H       1  <O>11       0.0618
  39 H14      -6.2661    -2.4159    -0.4289  H       1  <O>11       0.0618
  40 H15      -6.2823    -0.3221    -1.6448  H       1  <O>11       0.0624
@<TRIPOS>BOND
     1     1     2    2
     2     2     3   am
     3     3     4    1
     4     4     5    1
     5     5     6   ar
     6     6     7   ar
     7     7     8   ar
     8     8     9    2
     9     8    10   ar
    10    10    11   ar
    11    11    12   ar
    12    12    13   ar
    13    13    14   ar
    14    14    15   ar
    15     5    15   ar
    16    10    15   ar
    17     2    16    1
    18    16    17   ar
    19    17    18   ar
    20    18    19   ar
    21    19    20   ar
    22    20    21   ar
    23    21    22   ar
    24    22    23   ar
    25    23    24   ar
    26    24    25   ar
    27    16    25   ar
    28    20    25   ar
    29     3    26    1
    30     4    27    1
    31     4    28    1
    32     7    29    1
    33    11    30    1
    34    12    31    1
    35    13    32    1
    36    14    33    1
    37    17    34    1
    38    18    35    1
    39    19    36    1
    40    21    37    1
    41    22    38    1
    42    23    39    1
    43    24    40    1
@<TRIPOS>MOLECULE
mol38_1_13
 40 43 0 0 0
SMALL
USER_CHARGES
****
VDW energy = -27.09
@<TRIPOS>ATOM
   1 O1       -6.0607     1.4255    -3.9319  O.2     1  <O>11      -0.2702
   2 C1       -5.4199     1.6625    -2.9188  C.2     1  <O>11       0.2450
   3 N1       -5.8740     2.5930    -2.0230  N.am    1  <O>11      -0.3057
   4 C2       -5.1067     2.8754    -0.8127  C.3     1  <O>11       0.0565
   5 C3       -5.8073     3.9152    -0.0140  C.ar    1  <O>11       0.0863
   6 N2       -6.2277     3.6277     1.2900  N.ar    1  <O>11      -0.1737
   7 N3       -6.9576     4.5253     1.9909  N.ar    1  <O>11      -0.2424
   8 C4       -7.2676     5.7138     1.4179  C.ar    1  <O>11       0.2725
   9 O2       -8.1100     6.5631     2.1612  O.2     1  <O>11      -0.2658
  10 C5       -6.7982     6.1185     0.1599  C.ar    1  <O>11       0.0496
  11 C6       -7.0707     7.3813    -0.4155  C.ar    1  <O>11      -0.0487
  12 C7       -6.6000     7.7087    -1.6869  C.ar    1  <O>11      -0.0610
  13 C8       -5.8573     6.7838    -2.4093  C.ar    1  <O>11      -0.0611
  14 C9       -5.5840     5.5292    -1.8616  C.ar    1  <O>11      -0.0520
  15 C10      -6.0454     5.1828    -0.5710  C.ar    1  <O>11       0.0118
  16 C11      -4.1810     0.9600    -2.6660  C.ar    1  <O>11       0.0444
  17 C12      -4.2219    -0.2419    -1.9528  C.ar    1  <O>11      -0.0490
  18 C13      -3.0443    -0.9458    -1.7225  C.ar    1  <O>11      -0.0605
  19 C14      -1.8248    -0.4335    -2.1806  C.ar    1  <O>11      -0.0540
  20 C15      -1.7695     0.7818    -2.8817  C.ar    1  <O>11      -0.0172
  21 C16      -0.5530     1.3099    -3.3430  C.ar    1  <O>11      -0.0540
  22 C17      -0.5198     2.5160    -4.0440  C.ar    1  <O>11      -0.0612
  23 C18      -1.7011     3.2078    -4.2967  C.ar    1  <O>11      -0.0611
  24 C19      -2.9173     2.6962    -3.8454  C.ar    1  <O>11      -0.0533
  25 C20      -2.9668     1.4856    -3.1334  C.ar    1  <O>11      -0.0058
  26 H1       -6.7466     3.0886    -2.2002  H       1  <O>11       0.1494
  27 H2       -4.1150     3.2353    -1.0865  H       1  <O>11       0.0528
  28 H3       -5.0121     1.9647    -0.2210  H       1  <O>11       0.0528
  29 H4       -7.2676     4.3116     2.9279  H       1  <O>11       0.1921
  30 H5       -7.6266     8.0714     0.1136  H       1  <O>11       0.0625
  31 H6       -6.8031     8.6366    -2.0901  H       1  <O>11       0.0618
  32 H7       -5.5078     7.0238    -3.3502  H       1  <O>11       0.0618
  33 H8       -5.0370     4.8447    -2.4067  H       1  <O>11       0.0624
  34 H9       -5.1209    -0.6050    -1.5991  H       1  <O>11       0.0625
  35 H10      -3.0697    -1.8440    -1.2149  H       1  <O>11       0.0618
  36 H11      -0.9537    -0.9566    -2.0003  H       1  <O>11       0.0624
  37 H12       0.3260     0.8005    -3.1616  H       1  <O>11       0.0624
  38 H13       0.3809     2.8954    -4.3753  H       1  <O>11       0.0618
  39 H14      -1.6768     4.0983    -4.8176  H       1  <O>11       0.0618
  40 H15      -3.7904     3.2121    -4.0362  H       1  <O>11       0.0624
@<TRIPOS>BOND
     1     1     2    2
     2     2     3   am
     3     3     4    1
     4     4     5    1
     5     5     6   ar
     6     6     7   ar
     7     7     8   ar
     8     8     9    2
     9     8    10   ar
    10    10    11   ar
    11    11    12   ar
    12    12    13   ar
    13    13    14   ar
    14    14    15   ar
    15     5    15   ar
    16    10    15   ar
    17     2    16    1
    18    16    17   ar
    19    17    18   ar
    20    18    19   ar
    21    19    20   ar
    22    20    21   ar
    23    21    22   ar
    24    22    23   ar
    25    23    24   ar
    26    24    25   ar
    27    16    25   ar
    28    20    25   ar
    29     3    26    1
    30     4    27    1
    31     4    28    1
    32     7    29    1
    33    11    30    1
    34    12    31    1
    35    13    32    1
    36    14    33    1
    37    17    34    1
    38    18    35    1
    39    19    36    1
    40    21    37    1
    41    22    38    1
    42    23    39    1
    43    24    40    1
@<TRIPOS>MOLECULE
mol38_1_14
 40 43 0 0 0
SMALL
USER_CHARGES
****
VDW energy = -26.89
@<TRIPOS>ATOM
   1 O1       -6.0607     1.4255    -3.9319  O.2     1  <O>11      -0.2702
   2 C1       -5.4199     1.6625    -2.9188  C.2     1  <O>11       0.2450
   3 N1       -5.8740     2.5930    -2.0230  N.am    1  <O>11      -0.3057
   4 C2       -5.1067     2.8754    -0.8127  C.3     1  <O>11       0.0565
   5 C3       -5.8073     3.9152    -0.0140  C.ar    1  <O>11       0.0863
   6 N2       -6.2277     3.6277     1.2900  N.ar    1  <O>11      -0.1737
   7 N3       -6.9576     4.5253     1.9909  N.ar    1  <O>11      -0.2424
   8 C4       -7.2676     5.7138     1.4179  C.ar    1  <O>11       0.2725
   9 O2       -8.1100     6.5631     2.1612  O.2     1  <O>11      -0.2658
  10 C5       -6.7982     6.1185     0.1599  C.ar    1  <O>11       0.0496
  11 C6       -7.0707     7.3813    -0.4155  C.ar    1  <O>11      -0.0487
  12 C7       -6.6000     7.7087    -1.6869  C.ar    1  <O>11      -0.0610
  13 C8       -5.8573     6.7838    -2.4093  C.ar    1  <O>11      -0.0611
  14 C9       -5.5840     5.5292    -1.8616  C.ar    1  <O>11      -0.0520
  15 C10      -6.0454     5.1828    -0.5710  C.ar    1  <O>11       0.0118
  16 C11      -4.1810     0.9600    -2.6660  C.ar    1  <O>11       0.0444
  17 C12      -2.9867     1.5079    -3.1439  C.ar    1  <O>11      -0.0490
  18 C13      -1.7820     0.8609    -2.8880  C.ar    1  <O>11      -0.0605
  19 C14      -1.7756    -0.3465    -2.1798  C.ar    1  <O>11      -0.0540
  20 C15      -2.9707    -0.9154    -1.7113  C.ar    1  <O>11      -0.0172
  21 C16      -2.9798    -2.1282    -1.0036  C.ar    1  <O>11      -0.0540
  22 C17      -4.1777    -2.6739    -0.5403  C.ar    1  <O>11      -0.0612
  23 C18      -5.3807    -2.0137    -0.7741  C.ar    1  <O>11      -0.0611
  24 C19      -5.3881    -0.8083    -1.4751  C.ar    1  <O>11      -0.0533
  25 C20      -4.1909    -0.2485    -1.9528  C.ar    1  <O>11      -0.0058
  26 H1       -6.7466     3.0886    -2.2002  H       1  <O>11       0.1494
  27 H2       -4.1150     3.2353    -1.0865  H       1  <O>11       0.0528
  28 H3       -5.0121     1.9647    -0.2210  H       1  <O>11       0.0528
  29 H4       -7.2676     4.3116     2.9279  H       1  <O>11       0.1921
  30 H5       -7.6266     8.0714     0.1136  H       1  <O>11       0.0625
  31 H6       -6.8031     8.6366    -2.0901  H       1  <O>11       0.0618
  32 H7       -5.5078     7.0238    -3.3502  H       1  <O>11       0.0618
  33 H8       -5.0370     4.8447    -2.4067  H       1  <O>11       0.0624
  34 H9       -2.9987     2.3875    -3.6834  H       1  <O>11       0.0625
  35 H10      -0.8946     1.2704    -3.2198  H       1  <O>11       0.0618
  36 H11      -0.8795    -0.8254    -1.9995  H       1  <O>11       0.0624
  37 H12      -2.0911    -2.6212    -0.8243  H       1  <O>11       0.0624
  38 H13      -4.1717    -3.5675    -0.0240  H       1  <O>11       0.0618
  39 H14      -6.2661    -2.4159    -0.4289  H       1  <O>11       0.0618
  40 H15      -6.2823    -0.3221    -1.6448  H       1  <O>11       0.0624
@<TRIPOS>BOND
     1     1     2    2
     2     2     3   am
     3     3     4    1
     4     4     5    1
     5     5     6   ar
     6     6     7   ar
     7     7     8   ar
     8     8     9    2
     9     8    10   ar
    10    10    11   ar
    11    11    12   ar
    12    12    13   ar
    13    13    14   ar
    14    14    15   ar
    15     5    15   ar
    16    10    15   ar
    17     2    16    1
    18    16    17   ar
    19    17    18   ar
    20    18    19   ar
    21    19    20   ar
    22    20    21   ar
    23    21    22   ar
    24    22    23   ar
    25    23    24   ar
    26    24    25   ar
    27    16    25   ar
    28    20    25   ar
    29     3    26    1
    30     4    27    1
    31     4    28    1
    32     7    29    1
    33    11    30    1
    34    12    31    1
    35    13    32    1
    36    14    33    1
    37    17    34    1
    38    18    35    1
    39    19    36    1
    40    21    37    1
    41    22    38    1
    42    23    39    1
    43    24    40    1
@<TRIPOS>MOLECULE
mol38_1_15
 40 43 0 0 0
SMALL
USER_CHARGES
****
VDW energy = -23.71
@<TRIPOS>ATOM
   1 O1       -6.0607     1.4255    -3.9319  O.2     1  <O>11      -0.2702
   2 C1       -5.4199     1.6625    -2.9188  C.2     1  <O>11       0.2450
   3 N1       -5.8740     2.5930    -2.0230  N.am    1  <O>11      -0.3057
   4 C2       -7.1250     3.3020    -2.2790  C.3     1  <O>11       0.0565
   5 C3       -7.0145     4.0552    -3.5560  C.ar    1  <O>11       0.0863
   6 N2       -5.8283     4.0013    -4.2973  N.ar    1  <O>11      -0.1737
   7 N3       -5.6744     4.7625    -5.4049  N.ar    1  <O>11      -0.2424
   8 C4       -6.6896     5.5711    -5.7952  C.ar    1  <O>11       0.2725
   9 O2       -6.4309     6.4083    -6.8977  O.2     1  <O>11      -0.2658
  10 C5       -7.9439     5.6050    -5.1688  C.ar    1  <O>11       0.0496
  11 C6       -9.0249     6.4034    -5.6092  C.ar    1  <O>11      -0.0487
  12 C7      -10.2373     6.4153    -4.9201  C.ar    1  <O>11      -0.0610
  13 C8      -10.3923     5.6397    -3.7785  C.ar    1  <O>11      -0.0611
  14 C9       -9.3346     4.8504    -3.3236  C.ar    1  <O>11      -0.0520
  15 C10      -8.1012     4.8189    -4.0139  C.ar    1  <O>11       0.0118
  16 C11      -4.1810     0.9600    -2.6660  C.ar    1  <O>11       0.0444
  17 C12      -4.2219    -0.2419    -1.9528  C.ar    1  <O>11      -0.0490
  18 C13      -3.0443    -0.9458    -1.7225  C.ar    1  <O>11      -0.0605
  19 C14      -1.8248    -0.4335    -2.1806  C.ar    1  <O>11      -0.0540
  20 C15      -1.7695     0.7818    -2.8817  C.ar    1  <O>11      -0.0172
  21 C16      -0.5530     1.3099    -3.3430  C.ar    1  <O>11      -0.0540
  22 C17      -0.5198     2.5160    -4.0440  C.ar    1  <O>11      -0.0612
  23 C18      -1.7011     3.2078    -4.2967  C.ar    1  <O>11      -0.0611
  24 C19      -2.9173     2.6962    -3.8454  C.ar    1  <O>11      -0.0533
  25 C20      -2.9668     1.4856    -3.1334  C.ar    1  <O>11      -0.0058
  26 H1       -5.3400     2.7910    -1.1780  H       1  <O>11       0.1494
  27 H2       -7.3222     3.9977    -1.4634  H       1  <O>11       0.0528
  28 H3       -7.9423     2.5841    -2.3498  H       1  <O>11       0.0528
  29 H4       -4.8141     4.7286    -5.9326  H       1  <O>11       0.1921
  30 H5       -8.9148     6.9864    -6.4537  H       1  <O>11       0.0625
  31 H6      -11.0181     6.9995    -5.2579  H       1  <O>11       0.0618
  32 H7      -11.2886     5.6467    -3.2670  H       1  <O>11       0.0618
  33 H8       -9.4547     4.2816    -2.4710  H       1  <O>11       0.0624
  34 H9       -5.1209    -0.6050    -1.5991  H       1  <O>11       0.0625
  35 H10      -3.0697    -1.8440    -1.2149  H       1  <O>11       0.0618
  36 H11      -0.9537    -0.9566    -2.0003  H       1  <O>11       0.0624
  37 H12       0.3260     0.8005    -3.1616  H       1  <O>11       0.0624
  38 H13       0.3809     2.8954    -4.3753  H       1  <O>11       0.0618
  39 H14      -1.6768     4.0983    -4.8176  H       1  <O>11       0.0618
  40 H15      -3.7904     3.2121    -4.0362  H       1  <O>11       0.0624
@<TRIPOS>BOND
     1     1     2    2
     2     2     3   am
     3     3     4    1
     4     4     5    1
     5     5     6   ar
     6     6     7   ar
     7     7     8   ar
     8     8     9    2
     9     8    10   ar
    10    10    11   ar
    11    11    12   ar
    12    12    13   ar
    13    13    14   ar
    14    14    15   ar
    15     5    15   ar
    16    10    15   ar
    17     2    16    1
    18    16    17   ar
    19    17    18   ar
    20    18    19   ar
    21    19    20   ar
    22    20    21   ar
    23    21    22   ar
    24    22    23   ar
    25    23    24   ar
    26    24    25   ar
    27    16    25   ar
    28    20    25   ar
    29     3    26    1
    30     4    27    1
    31     4    28    1
    32     7    29    1
    33    11    30    1
    34    12    31    1
    35    13    32    1
    36    14    33    1
    37    17    34    1
    38    18    35    1
    39    19    36    1
    40    21    37    1
    41    22    38    1
    42    23    39    1
    43    24    40    1
@<TRIPOS>MOLECULE
mol38_1_16
 40 43 0 0 0
SMALL
USER_CHARGES
****
VDW energy = -12.32
@<TRIPOS>ATOM
   1 O1       -6.0607     1.4255    -3.9319  O.2     1  <O>11      -0.2702
   2 C1       -5.4199     1.6625    -2.9188  C.2     1  <O>11       0.2450
   3 N1       -5.8740     2.5930    -2.0230  N.am    1  <O>11      -0.3057
   4 C2       -7.1250     3.3020    -2.2790  C.3     1  <O>11       0.0565
   5 C3       -7.0145     4.0552    -3.5560  C.ar    1  <O>11       0.0863
   6 N2       -7.3846     3.4449    -4.7602  N.ar    1  <O>11      -0.1737
   7 N3       -7.1918     4.0781    -5.9398  N.ar    1  <O>11      -0.2424
   8 C4       -6.6453     5.3183    -5.9405  C.ar    1  <O>11       0.2725
   9 O2       -6.3814     5.8825    -7.2036  O.2     1  <O>11      -0.2658
  10 C5       -6.3444     6.0380    -4.7751  C.ar    1  <O>11       0.0496
  11 C6       -5.8295     7.3552    -4.7714  C.ar    1  <O>11      -0.0487
  12 C7       -5.5204     8.0029    -3.5756  C.ar    1  <O>11      -0.0610
  13 C8       -5.7112     7.3495    -2.3651  C.ar    1  <O>11      -0.0611
  14 C9       -6.2115     6.0464    -2.3480  C.ar    1  <O>11      -0.0520
  15 C10      -6.5386     5.3770    -3.5495  C.ar    1  <O>11       0.0118
  16 C11      -4.1810     0.9600    -2.6660  C.ar    1  <O>11       0.0444
  17 C12      -4.1037    -0.4014    -2.9753  C.ar    1  <O>11      -0.0490
  18 C13      -2.9126    -1.0884    -2.7641  C.ar    1  <O>11      -0.0605
  19 C14      -1.8099    -0.4208    -2.2183  C.ar    1  <O>11      -0.0540
  20 C15      -1.8819     0.9416    -1.8867  C.ar    1  <O>11      -0.0172
  21 C16      -0.7854     1.6229    -1.3342  C.ar    1  <O>11      -0.0540
  22 C17      -0.8748     2.9790    -1.0177  C.ar    1  <O>11      -0.0612
  23 C18      -2.0586     3.6728    -1.2526  C.ar    1  <O>11      -0.0611
  24 C19      -3.1563     3.0103    -1.8009  C.ar    1  <O>11      -0.0533
  25 C20      -3.0839     1.6437    -2.1201  C.ar    1  <O>11      -0.0058
  26 H1       -5.3400     2.7910    -1.1780  H       1  <O>11       0.1494
  27 H2       -7.3222     3.9977    -1.4634  H       1  <O>11       0.0528
  28 H3       -7.9423     2.5841    -2.3498  H       1  <O>11       0.0528
  29 H4       -7.4511     3.6317    -6.8077  H       1  <O>11       0.1921
  30 H5       -5.6802     7.8447    -5.6676  H       1  <O>11       0.0625
  31 H6       -5.1505     8.9663    -3.5903  H       1  <O>11       0.0618
  32 H7       -5.4833     7.8268    -1.4790  H       1  <O>11       0.0618
  33 H8       -6.3446     5.5647    -1.4452  H       1  <O>11       0.0624
  34 H9       -4.9258    -0.8939    -3.3581  H       1  <O>11       0.0625
  35 H10      -2.8420    -2.0883    -3.0095  H       1  <O>11       0.0618
  36 H11      -0.9313    -0.9376    -2.0573  H       1  <O>11       0.0624
  37 H12       0.0961     1.1152    -1.1604  H       1  <O>11       0.0624
  38 H13      -0.0629     3.4679    -0.6093  H       1  <O>11       0.0618
  39 H14      -2.1238     4.6763    -1.0211  H       1  <O>11       0.0618
  40 H15      -4.0313     3.5293    -1.9742  H       1  <O>11       0.0624
@<TRIPOS>BOND
     1     1     2    2
     2     2     3   am
     3     3     4    1
     4     4     5    1
     5     5     6   ar
     6     6     7   ar
     7     7     8   ar
     8     8     9    2
     9     8    10   ar
    10    10    11   ar
    11    11    12   ar
    12    12    13   ar
    13    13    14   ar
    14    14    15   ar
    15     5    15   ar
    16    10    15   ar
    17     2    16    1
    18    16    17   ar
    19    17    18   ar
    20    18    19   ar
    21    19    20   ar
    22    20    21   ar
    23    21    22   ar
    24    22    23   ar
    25    23    24   ar
    26    24    25   ar
    27    16    25   ar
    28    20    25   ar
    29     3    26    1
    30     4    27    1
    31     4    28    1
    32     7    29    1
    33    11    30    1
    34    12    31    1
    35    13    32    1
    36    14    33    1
    37    17    34    1
    38    18    35    1
    39    19    36    1
    40    21    37    1
    41    22    38    1
    42    23    39    1
    43    24    40    1
@<TRIPOS>MOLECULE
mol38_1_17
 40 43 0 0 0
SMALL
USER_CHARGES
****
VDW energy = -12.31
@<TRIPOS>ATOM
   1 O1       -6.0607     1.4255    -3.9319  O.2     1  <O>11      -0.2702
   2 C1       -5.4199     1.6625    -2.9188  C.2     1  <O>11       0.2450
   3 N1       -5.8740     2.5930    -2.0230  N.am    1  <O>11      -0.3057
   4 C2       -7.1250     3.3020    -2.2790  C.3     1  <O>11       0.0565
   5 C3       -7.3940     4.2490    -1.1650  C.ar    1  <O>11       0.0863
   6 N2       -7.5023     5.6201    -1.4257  N.ar    1  <O>11      -0.1737
   7 N3       -7.6419     6.5041    -0.4114  N.ar    1  <O>11      -0.2424
   8 C4       -7.6874     6.0437     0.8625  C.ar    1  <O>11       0.2725
   9 O2       -7.7358     7.0197     1.8766  O.2     1  <O>11      -0.2658
  10 C5       -7.6900     4.6824     1.1996  C.ar    1  <O>11       0.0496
  11 C6       -7.7971     4.1972     2.5237  C.ar    1  <O>11      -0.0487
  12 C7       -7.7602     2.8294     2.7933  C.ar    1  <O>11      -0.0610
  13 C8       -7.6090     1.9226     1.7523  C.ar    1  <O>11      -0.0611
  14 C9       -7.4942     2.3821     0.4392  C.ar    1  <O>11      -0.0520
  15 C10      -7.5381     3.7643     0.1457  C.ar    1  <O>11       0.0118
  16 C11      -4.1810     0.9600    -2.6660  C.ar    1  <O>11       0.0444
  17 C12      -4.1037    -0.4014    -2.9753  C.ar    1  <O>11      -0.0490
  18 C13      -2.9126    -1.0884    -2.7641  C.ar    1  <O>11      -0.0605
  19 C14      -1.8099    -0.4208    -2.2183  C.ar    1  <O>11      -0.0540
  20 C15      -1.8819     0.9416    -1.8867  C.ar    1  <O>11      -0.0172
  21 C16      -0.7854     1.6229    -1.3342  C.ar    1  <O>11      -0.0540
  22 C17      -0.8748     2.9790    -1.0177  C.ar    1  <O>11      -0.0612
  23 C18      -2.0586     3.6728    -1.2526  C.ar    1  <O>11      -0.0611
  24 C19      -3.1563     3.0103    -1.8009  C.ar    1  <O>11      -0.0533
  25 C20      -3.0839     1.6437    -2.1201  C.ar    1  <O>11      -0.0058
  26 H1       -5.3400     2.7910    -1.1780  H       1  <O>11       0.1494
  27 H2       -7.9420     2.5840    -2.3500  H       1  <O>11       0.0528
  28 H3       -7.0450     3.8550    -3.2150  H       1  <O>11       0.0528
  29 H4       -7.7104     7.4934    -0.6017  H       1  <O>11       0.1921
  30 H5       -7.9043     4.8658     3.3025  H       1  <O>11       0.0625
  31 H6       -7.8451     2.4916     3.7647  H       1  <O>11       0.0618
  32 H7       -7.5815     0.9099     1.9493  H       1  <O>11       0.0618
  33 H8       -7.3755     1.7029    -0.3286  H       1  <O>11       0.0624
  34 H9       -4.9258    -0.8939    -3.3581  H       1  <O>11       0.0625
  35 H10      -2.8420    -2.0883    -3.0095  H       1  <O>11       0.0618
  36 H11      -0.9313    -0.9376    -2.0573  H       1  <O>11       0.0624
  37 H12       0.0961     1.1152    -1.1604  H       1  <O>11       0.0624
  38 H13      -0.0629     3.4679    -0.6093  H       1  <O>11       0.0618
  39 H14      -2.1238     4.6763    -1.0211  H       1  <O>11       0.0618
  40 H15      -4.0313     3.5293    -1.9742  H       1  <O>11       0.0624
@<TRIPOS>BOND
     1     1     2    2
     2     2     3   am
     3     3     4    1
     4     4     5    1
     5     5     6   ar
     6     6     7   ar
     7     7     8   ar
     8     8     9    2
     9     8    10   ar
    10    10    11   ar
    11    11    12   ar
    12    12    13   ar
    13    13    14   ar
    14    14    15   ar
    15     5    15   ar
    16    10    15   ar
    17     2    16    1
    18    16    17   ar
    19    17    18   ar
    20    18    19   ar
    21    19    20   ar
    22    20    21   ar
    23    21    22   ar
    24    22    23   ar
    25    23    24   ar
    26    24    25   ar
    27    16    25   ar
    28    20    25   ar
    29     3    26    1
    30     4    27    1
    31     4    28    1
    32     7    29    1
    33    11    30    1
    34    12    31    1
    35    13    32    1
    36    14    33    1
    37    17    34    1
    38    18    35    1
    39    19    36    1
    40    21    37    1
    41    22    38    1
    42    23    39    1
    43    24    40    1
@<TRIPOS>MOLECULE
mol38_1_18
 40 43 0 0 0
SMALL
USER_CHARGES
****
VDW energy = -11.20
@<TRIPOS>ATOM
   1 O1       -6.0607     1.4255    -3.9319  O.2     1  <O>11      -0.2702
   2 C1       -5.4199     1.6625    -2.9188  C.2     1  <O>11       0.2450
   3 N1       -5.8740     2.5930    -2.0230  N.am    1  <O>11      -0.3057
   4 C2       -7.1250     3.3020    -2.2790  C.3     1  <O>11       0.0565
   5 C3       -7.0145     4.0552    -3.5560  C.ar    1  <O>11       0.0863
   6 N2       -5.8287     4.0004    -4.2979  N.ar    1  <O>11      -0.1737
   7 N3       -5.6747     4.7615    -5.4054  N.ar    1  <O>11      -0.2424
   8 C4       -6.6894     5.5710    -5.7953  C.ar    1  <O>11       0.2725
   9 O2       -6.4306     6.4081    -6.8978  O.2     1  <O>11      -0.2658
  10 C5       -7.9434     5.6058    -5.1683  C.ar    1  <O>11       0.0496
  11 C6       -9.0240     6.4052    -5.6081  C.ar    1  <O>11      -0.0487
  12 C7      -10.2361     6.4181    -4.9184  C.ar    1  <O>11      -0.0610
  13 C8      -10.3911     5.6424    -3.7768  C.ar    1  <O>11      -0.0611
  14 C9       -9.3338     4.8523    -3.3224  C.ar    1  <O>11      -0.0520
  15 C10      -8.1008     4.8199    -4.0133  C.ar    1  <O>11       0.0118
  16 C11      -4.1810     0.9600    -2.6660  C.ar    1  <O>11       0.0444
  17 C12      -4.1037    -0.4014    -2.9753  C.ar    1  <O>11      -0.0490
  18 C13      -2.9126    -1.0884    -2.7641  C.ar    1  <O>11      -0.0605
  19 C14      -1.8099    -0.4208    -2.2183  C.ar    1  <O>11      -0.0540
  20 C15      -1.8819     0.9416    -1.8867  C.ar    1  <O>11      -0.0172
  21 C16      -0.7854     1.6229    -1.3342  C.ar    1  <O>11      -0.0540
  22 C17      -0.8748     2.9790    -1.0177  C.ar    1  <O>11      -0.0612
  23 C18      -2.0586     3.6728    -1.2526  C.ar    1  <O>11      -0.0611
  24 C19      -3.1563     3.0103    -1.8009  C.ar    1  <O>11      -0.0533
  25 C20      -3.0839     1.6437    -2.1201  C.ar    1  <O>11      -0.0058
  26 H1       -5.3400     2.7910    -1.1780  H       1  <O>11       0.1494
  27 H2       -7.3222     3.9977    -1.4634  H       1  <O>11       0.0528
  28 H3       -7.9423     2.5841    -2.3498  H       1  <O>11       0.0528
  29 H4       -4.8147     4.7270    -5.9336  H       1  <O>11       0.1921
  30 H5       -8.9138     6.9881    -6.4526  H       1  <O>11       0.0625
  31 H6      -11.0165     7.0029    -5.2557  H       1  <O>11       0.0618
  32 H7      -11.2871     5.6502    -3.2648  H       1  <O>11       0.0618
  33 H8       -9.4540     4.2835    -2.4698  H       1  <O>11       0.0624
  34 H9       -4.9258    -0.8939    -3.3581  H       1  <O>11       0.0625
  35 H10      -2.8420    -2.0883    -3.0095  H       1  <O>11       0.0618
  36 H11      -0.9313    -0.9376    -2.0573  H       1  <O>11       0.0624
  37 H12       0.0961     1.1152    -1.1604  H       1  <O>11       0.0624
  38 H13      -0.0629     3.4679    -0.6093  H       1  <O>11       0.0618
  39 H14      -2.1238     4.6763    -1.0211  H       1  <O>11       0.0618
  40 H15      -4.0313     3.5293    -1.9742  H       1  <O>11       0.0624
@<TRIPOS>BOND
     1     1     2    2
     2     2     3   am
     3     3     4    1
     4     4     5    1
     5     5     6   ar
     6     6     7   ar
     7     7     8   ar
     8     8     9    2
     9     8    10   ar
    10    10    11   ar
    11    11    12   ar
    12    12    13   ar
    13    13    14   ar
    14    14    15   ar
    15     5    15   ar
    16    10    15   ar
    17     2    16    1
    18    16    17   ar
    19    17    18   ar
    20    18    19   ar
    21    19    20   ar
    22    20    21   ar
    23    21    22   ar
    24    22    23   ar
    25    23    24   ar
    26    24    25   ar
    27    16    25   ar
    28    20    25   ar
    29     3    26    1
    30     4    27    1
    31     4    28    1
    32     7    29    1
    33    11    30    1
    34    12    31    1
    35    13    32    1
    36    14    33    1
    37    17    34    1
    38    18    35    1
    39    19    36    1
    40    21    37    1
    41    22    38    1
    42    23    39    1
    43    24    40    1
@<TRIPOS>MOLECULE
mol38_1_19
 40 43 0 0 0
SMALL
USER_CHARGES
****
VDW energy = -10.46
@<TRIPOS>ATOM
   1 O1       -6.0607     1.4255    -3.9319  O.2     1  <O>11      -0.2702
   2 C1       -5.4199     1.6625    -2.9188  C.2     1  <O>11       0.2450
   3 N1       -5.8740     2.5930    -2.0230  N.am    1  <O>11      -0.3057
   4 C2       -7.1250     3.3020    -2.2790  C.3     1  <O>11       0.0565
   5 C3       -8.2385     2.3217    -2.3758  C.ar    1  <O>11       0.0863
   6 N2       -7.9796     0.9546    -2.2228  N.ar    1  <O>11      -0.1737
   7 N3       -8.9613     0.0434    -2.4119  N.ar    1  <O>11      -0.2424
   8 C4      -10.2042     0.4722    -2.7406  C.ar    1  <O>11       0.2725
   9 O2      -11.1556    -0.5283    -3.0184  O.2     1  <O>11      -0.2658
  10 C5      -10.5688     1.8246    -2.8107  C.ar    1  <O>11       0.0496
  11 C6      -11.8788     2.2753    -3.0951  C.ar    1  <O>11      -0.0487
  12 C7      -12.1674     3.6370    -3.1827  C.ar    1  <O>11      -0.0610
  13 C8      -11.1575     4.5719    -2.9964  C.ar    1  <O>11      -0.0611
  14 C9       -9.8565     4.1469    -2.7220  C.ar    1  <O>11      -0.0520
  15 C10      -9.5468     2.7712    -2.6209  C.ar    1  <O>11       0.0118
  16 C11      -4.1810     0.9600    -2.6660  C.ar    1  <O>11       0.0444
  17 C12      -4.1037    -0.4014    -2.9753  C.ar    1  <O>11      -0.0490
  18 C13      -2.9126    -1.0884    -2.7641  C.ar    1  <O>11      -0.0605
  19 C14      -1.8099    -0.4208    -2.2183  C.ar    1  <O>11      -0.0540
  20 C15      -1.8819     0.9416    -1.8867  C.ar    1  <O>11      -0.0172
  21 C16      -0.7854     1.6229    -1.3342  C.ar    1  <O>11      -0.0540
  22 C17      -0.8748     2.9790    -1.0177  C.ar    1  <O>11      -0.0612
  23 C18      -2.0586     3.6728    -1.2526  C.ar    1  <O>11      -0.0611
  24 C19      -3.1563     3.0103    -1.8009  C.ar    1  <O>11      -0.0533
  25 C20      -3.0839     1.6437    -2.1201  C.ar    1  <O>11      -0.0058
  26 H1       -5.3400     2.7910    -1.1780  H       1  <O>11       0.1494
  27 H2       -7.0452     3.8539    -3.2155  H       1  <O>11       0.0528
  28 H3       -7.3227     3.9975    -1.4632  H       1  <O>11       0.0528
  29 H4       -8.7695    -0.9428    -2.3100  H       1  <O>11       0.1921
  30 H5      -12.6329     1.5859    -3.2401  H       1  <O>11       0.0625
  31 H6      -13.1298     3.9493    -3.3857  H       1  <O>11       0.0618
  32 H7      -11.3687     5.5801    -3.0606  H       1  <O>11       0.0618
  33 H8       -9.1098     4.8470    -2.5911  H       1  <O>11       0.0624
  34 H9       -4.9258    -0.8939    -3.3581  H       1  <O>11       0.0625
  35 H10      -2.8420    -2.0883    -3.0095  H       1  <O>11       0.0618
  36 H11      -0.9313    -0.9376    -2.0573  H       1  <O>11       0.0624
  37 H12       0.0961     1.1152    -1.1604  H       1  <O>11       0.0624
  38 H13      -0.0629     3.4679    -0.6093  H       1  <O>11       0.0618
  39 H14      -2.1238     4.6763    -1.0211  H       1  <O>11       0.0618
  40 H15      -4.0313     3.5293    -1.9742  H       1  <O>11       0.0624
@<TRIPOS>BOND
     1     1     2    2
     2     2     3   am
     3     3     4    1
     4     4     5    1
     5     5     6   ar
     6     6     7   ar
     7     7     8   ar
     8     8     9    2
     9     8    10   ar
    10    10    11   ar
    11    11    12   ar
    12    12    13   ar
    13    13    14   ar
    14    14    15   ar
    15     5    15   ar
    16    10    15   ar
    17     2    16    1
    18    16    17   ar
    19    17    18   ar
    20    18    19   ar
    21    19    20   ar
    22    20    21   ar
    23    21    22   ar
    24    22    23   ar
    25    23    24   ar
    26    24    25   ar
    27    16    25   ar
    28    20    25   ar
    29     3    26    1
    30     4    27    1
    31     4    28    1
    32     7    29    1
    33    11    30    1
    34    12    31    1
    35    13    32    1
    36    14    33    1
    37    17    34    1
    38    18    35    1
    39    19    36    1
    40    21    37    1
    41    22    38    1
    42    23    39    1
    43    24    40    1
@<TRIPOS>MOLECULE
mol38_1_20
 40 43 0 0 0
SMALL
USER_CHARGES
****
VDW energy = -9.90
@<TRIPOS>ATOM
   1 O1       -6.0607     1.4255    -3.9319  O.2     1  <O>11      -0.2702
   2 C1       -5.4199     1.6625    -2.9188  C.2     1  <O>11       0.2450
   3 N1       -5.8740     2.5930    -2.0230  N.am    1  <O>11      -0.3057
   4 C2       -5.1067     2.8754    -0.8127  C.3     1  <O>11       0.0565
   5 C3       -4.9781     1.6325    -0.0071  C.ar    1  <O>11       0.0863
   6 N2       -3.7094     1.1152     0.2796  N.ar    1  <O>11      -0.1737
   7 N3       -3.5782    -0.0689     0.9202  N.ar    1  <O>11      -0.2424
   8 C4       -4.6930    -0.7440     1.2923  C.ar    1  <O>11       0.2725
   9 O2       -4.4900    -2.0136     1.8671  O.2     1  <O>11      -0.2658
  10 C5       -5.9945    -0.2460     1.1352  C.ar    1  <O>11       0.0496
  11 C6       -7.1566    -0.9209     1.5758  C.ar    1  <O>11      -0.0487
  12 C7       -8.4254    -0.3845     1.3586  C.ar    1  <O>11      -0.0610
  13 C8       -8.5600     0.8275     0.6938  C.ar    1  <O>11      -0.0611
  14 C9       -7.4254     1.5055     0.2446  C.ar    1  <O>11      -0.0520
  15 C10      -6.1307     0.9814     0.4633  C.ar    1  <O>11       0.0118
  16 C11      -4.1810     0.9600    -2.6660  C.ar    1  <O>11       0.0444
  17 C12      -4.2219    -0.2419    -1.9528  C.ar    1  <O>11      -0.0490
  18 C13      -3.0443    -0.9458    -1.7225  C.ar    1  <O>11      -0.0605
  19 C14      -1.8248    -0.4335    -2.1806  C.ar    1  <O>11      -0.0540
  20 C15      -1.7695     0.7818    -2.8817  C.ar    1  <O>11      -0.0172
  21 C16      -0.5530     1.3099    -3.3430  C.ar    1  <O>11      -0.0540
  22 C17      -0.5198     2.5160    -4.0440  C.ar    1  <O>11      -0.0612
  23 C18      -1.7011     3.2078    -4.2967  C.ar    1  <O>11      -0.0611
  24 C19      -2.9173     2.6962    -3.8454  C.ar    1  <O>11      -0.0533
  25 C20      -2.9668     1.4856    -3.1334  C.ar    1  <O>11      -0.0058
  26 H1       -6.7466     3.0886    -2.2002  H       1  <O>11       0.1494
  27 H2       -5.6205     3.6366    -0.2257  H       1  <O>11       0.0528
  28 H3       -4.1149     3.2356    -1.0863  H       1  <O>11       0.0528
  29 H4       -2.6617    -0.4444     1.1175  H       1  <O>11       0.1921
  30 H5       -7.0642    -1.8245     2.0658  H       1  <O>11       0.0625
  31 H6       -9.2630    -0.8872     1.6913  H       1  <O>11       0.0618
  32 H7       -9.4979     1.2265     0.5320  H       1  <O>11       0.0618
  33 H8       -7.5333     2.4023    -0.2543  H       1  <O>11       0.0624
  34 H9       -5.1209    -0.6050    -1.5991  H       1  <O>11       0.0625
  35 H10      -3.0697    -1.8440    -1.2149  H       1  <O>11       0.0618
  36 H11      -0.9537    -0.9566    -2.0003  H       1  <O>11       0.0624
  37 H12       0.3260     0.8005    -3.1616  H       1  <O>11       0.0624
  38 H13       0.3809     2.8954    -4.3753  H       1  <O>11       0.0618
  39 H14      -1.6768     4.0983    -4.8176  H       1  <O>11       0.0618
  40 H15      -3.7904     3.2121    -4.0362  H       1  <O>11       0.0624
@<TRIPOS>BOND
     1     1     2    2
     2     2     3   am
     3     3     4    1
     4     4     5    1
     5     5     6   ar
     6     6     7   ar
     7     7     8   ar
     8     8     9    2
     9     8    10   ar
    10    10    11   ar
    11    11    12   ar
    12    12    13   ar
    13    13    14   ar
    14    14    15   ar
    15     5    15   ar
    16    10    15   ar
    17     2    16    1
    18    16    17   ar
    19    17    18   ar
    20    18    19   ar
    21    19    20   ar
    22    20    21   ar
    23    21    22   ar
    24    22    23   ar
    25    23    24   ar
    26    24    25   ar
    27    16    25   ar
    28    20    25   ar
    29     3    26    1
    30     4    27    1
    31     4    28    1
    32     7    29    1
    33    11    30    1
    34    12    31    1
    35    13    32    1
    36    14    33    1
    37    17    34    1
    38    18    35    1
    39    19    36    1
    40    21    37    1
    41    22    38    1
    42    23    39    1
    43    24    40    1
@<TRIPOS>MOLECULE
mol38_1_21
 40 43 0 0 0
SMALL
USER_CHARGES
****
VDW energy = -5.81
@<TRIPOS>ATOM
   1 O1       -6.0607     1.4255    -3.9319  O.2     1  <O>11      -0.2702
   2 C1       -5.4199     1.6625    -2.9188  C.2     1  <O>11       0.2450
   3 N1       -5.8740     2.5930    -2.0230  N.am    1  <O>11      -0.3057
   4 C2       -7.1250     3.3020    -2.2790  C.3     1  <O>11       0.0565
   5 C3       -7.3940     4.2490    -1.1650  C.ar    1  <O>11       0.0863
   6 N2       -7.5023     5.6201    -1.4257  N.ar    1  <O>11      -0.1737
   7 N3       -7.6419     6.5041    -0.4114  N.ar    1  <O>11      -0.2424
   8 C4       -7.6874     6.0437     0.8625  C.ar    1  <O>11       0.2725
   9 O2       -7.7358     7.0197     1.8766  O.2     1  <O>11      -0.2658
  10 C5       -7.6900     4.6824     1.1996  C.ar    1  <O>11       0.0496
  11 C6       -7.7971     4.1972     2.5237  C.ar    1  <O>11      -0.0487
  12 C7       -7.7602     2.8294     2.7933  C.ar    1  <O>11      -0.0610
  13 C8       -7.6090     1.9226     1.7523  C.ar    1  <O>11      -0.0611
  14 C9       -7.4942     2.3821     0.4392  C.ar    1  <O>11      -0.0520
  15 C10      -7.5381     3.7643     0.1457  C.ar    1  <O>11       0.0118
  16 C11      -4.1810     0.9600    -2.6660  C.ar    1  <O>11       0.0444
  17 C12      -3.3147     0.7164    -3.7361  C.ar    1  <O>11      -0.0490
  18 C13      -2.1063     0.0657    -3.5087  C.ar    1  <O>11      -0.0605
  19 C14      -1.7785    -0.3653    -2.2178  C.ar    1  <O>11      -0.0540
  20 C15      -2.6492    -0.1425    -1.1390  C.ar    1  <O>11      -0.0172
  21 C16      -2.3356    -0.5733     0.1601  C.ar    1  <O>11      -0.0540
  22 C17      -3.2113    -0.3361     1.2204  C.ar    1  <O>11      -0.0612
  23 C18      -4.4090     0.3375     0.9976  C.ar    1  <O>11      -0.0611
  24 C19      -4.7346     0.7718    -0.2869  C.ar    1  <O>11      -0.0533
  25 C20      -3.8658     0.5361    -1.3660  C.ar    1  <O>11      -0.0058
  26 H1       -5.3400     2.7910    -1.1780  H       1  <O>11       0.1494
  27 H2       -7.9420     2.5840    -2.3500  H       1  <O>11       0.0528
  28 H3       -7.0450     3.8550    -3.2150  H       1  <O>11       0.0528
  29 H4       -7.7104     7.4934    -0.6017  H       1  <O>11       0.1921
  30 H5       -7.9043     4.8658     3.3025  H       1  <O>11       0.0625
  31 H6       -7.8451     2.4916     3.7647  H       1  <O>11       0.0618
  32 H7       -7.5815     0.9099     1.9493  H       1  <O>11       0.0618
  33 H8       -7.3755     1.7029    -0.3286  H       1  <O>11       0.0624
  34 H9       -3.5703     1.0176    -4.6895  H       1  <O>11       0.0625
  35 H10      -1.4527    -0.0990    -4.2902  H       1  <O>11       0.0618
  36 H11      -0.8839    -0.8538    -2.0567  H       1  <O>11       0.0624
  37 H12      -1.4479    -1.0705     0.3326  H       1  <O>11       0.0624
  38 H13      -2.9710    -0.6604     2.1702  H       1  <O>11       0.0618
  39 H14      -5.0552     0.5153     1.7822  H       1  <O>11       0.0618
  40 H15      -5.6231     1.2718    -0.4467  H       1  <O>11       0.0624
@<TRIPOS>BOND
     1     1     2    2
     2     2     3   am
     3     3     4    1
     4     4     5    1
     5     5     6   ar
     6     6     7   ar
     7     7     8   ar
     8     8     9    2
     9     8    10   ar
    10    10    11   ar
    11    11    12   ar
    12    12    13   ar
    13    13    14   ar
    14    14    15   ar
    15     5    15   ar
    16    10    15   ar
    17     2    16    1
    18    16    17   ar
    19    17    18   ar
    20    18    19   ar
    21    19    20   ar
    22    20    21   ar
    23    21    22   ar
    24    22    23   ar
    25    23    24   ar
    26    24    25   ar
    27    16    25   ar
    28    20    25   ar
    29     3    26    1
    30     4    27    1
    31     4    28    1
    32     7    29    1
    33    11    30    1
    34    12    31    1
    35    13    32    1
    36    14    33    1
    37    17    34    1
    38    18    35    1
    39    19    36    1
    40    21    37    1
    41    22    38    1
    42    23    39    1
    43    24    40    1
@<TRIPOS>MOLECULE
mol38_1_22
 40 43 0 0 0
SMALL
USER_CHARGES
****
VDW energy = -4.42
@<TRIPOS>ATOM
   1 O1       -6.0607     1.4255    -3.9319  O.2     1  <O>11      -0.2702
   2 C1       -5.4199     1.6625    -2.9188  C.2     1  <O>11       0.2450
   3 N1       -5.8740     2.5930    -2.0230  N.am    1  <O>11      -0.3057
   4 C2       -7.1250     3.3020    -2.2790  C.3     1  <O>11       0.0565
   5 C3       -7.0145     4.0552    -3.5560  C.ar    1  <O>11       0.0863
   6 N2       -7.8953     3.7777    -4.6080  N.ar    1  <O>11      -0.1737
   7 N3       -7.7417     4.3786    -5.8101  N.ar    1  <O>11      -0.2424
   8 C4       -6.7293     5.2634    -5.9801  C.ar    1  <O>11       0.2725
   9 O2       -6.5647     5.7800    -7.2799  O.2     1  <O>11      -0.2658
  10 C5       -5.8706     5.6725    -4.9497  C.ar    1  <O>11       0.0496
  11 C6       -4.8510     6.6396    -5.1089  C.ar    1  <O>11      -0.0487
  12 C7       -4.0089     6.9775    -4.0497  C.ar    1  <O>11      -0.0610
  13 C8       -4.1619     6.3546    -2.8179  C.ar    1  <O>11      -0.0611
  14 C9       -5.1576     5.3920    -2.6429  C.ar    1  <O>11      -0.0520
  15 C10      -6.0261     5.0428    -3.7023  C.ar    1  <O>11       0.0118
  16 C11      -4.1810     0.9600    -2.6660  C.ar    1  <O>11       0.0444
  17 C12      -3.4680     1.2510    -1.4990  C.ar    1  <O>11      -0.0490
  18 C13      -2.2880     0.5670    -1.2250  C.ar    1  <O>11      -0.0605
  19 C14      -1.8080    -0.3860    -2.1310  C.ar    1  <O>11      -0.0540
  20 C15      -2.5060    -0.6730    -3.3150  C.ar    1  <O>11      -0.0172
  21 C16      -2.0340    -1.6230    -4.2350  C.ar    1  <O>11      -0.0540
  22 C17      -2.7460    -1.8990    -5.4030  C.ar    1  <O>11      -0.0612
  23 C18      -3.9400    -1.2330    -5.6650  C.ar    1  <O>11      -0.0611
  24 C19      -4.4220    -0.2870    -4.7610  C.ar    1  <O>11      -0.0533
  25 C20      -3.7140     0.0060    -3.5830  C.ar    1  <O>11      -0.0058
  26 H1       -5.3400     2.7910    -1.1780  H       1  <O>11       0.1494
  27 H2       -7.3222     3.9977    -1.4634  H       1  <O>11       0.0528
  28 H3       -7.9423     2.5841    -2.3498  H       1  <O>11       0.0528
  29 H4       -8.3729     4.1695    -6.5702  H       1  <O>11       0.1921
  30 H5       -4.7283     7.1025    -6.0230  H       1  <O>11       0.0625
  31 H6       -3.2733     7.6893    -4.1811  H       1  <O>11       0.0618
  32 H7       -3.5401     6.6030    -2.0327  H       1  <O>11       0.0618
  33 H8       -5.2613     4.9285    -1.7267  H       1  <O>11       0.0624
  34 H9       -3.8152     1.9693    -0.8444  H       1  <O>11       0.0625
  35 H10      -1.7675     0.7618    -0.3554  H       1  <O>11       0.0618
  36 H11      -0.9283    -0.8849    -1.9257  H       1  <O>11       0.0624
  37 H12      -1.1511    -2.1225    -4.0453  H       1  <O>11       0.0624
  38 H13      -2.3872    -2.5972    -6.0729  H       1  <O>11       0.0618
  39 H14      -4.4679    -1.4392    -6.5274  H       1  <O>11       0.0618
  40 H15      -5.3082     0.2032    -4.9592  H       1  <O>11       0.0624
@<TRIPOS>BOND
     1     1     2    2
     2     2     3   am
     3     3     4    1
     4     4     5    1
     5     5     6   ar
     6     6     7   ar
     7     7     8   ar
     8     8     9    2
     9     8    10   ar
    10    10    11   ar
    11    11    12   ar
    12    12    13   ar
    13    13    14   ar
    14    14    15   ar
    15     5    15   ar
    16    10    15   ar
    17     2    16    1
    18    16    17   ar
    19    17    18   ar
    20    18    19   ar
    21    19    20   ar
    22    20    21   ar
    23    21    22   ar
    24    22    23   ar
    25    23    24   ar
    26    24    25   ar
    27    16    25   ar
    28    20    25   ar
    29     3    26    1
    30     4    27    1
    31     4    28    1
    32     7    29    1
    33    11    30    1
    34    12    31    1
    35    13    32    1
    36    14    33    1
    37    17    34    1
    38    18    35    1
    39    19    36    1
    40    21    37    1
    41    22    38    1
    42    23    39    1
    43    24    40    1
@<TRIPOS>MOLECULE
mol38_1_23
 40 43 0 0 0
SMALL
USER_CHARGES
****
VDW energy = -4.21
@<TRIPOS>ATOM
   1 O1       -6.0607     1.4255    -3.9319  O.2     1  <O>11      -0.2702
   2 C1       -5.4199     1.6625    -2.9188  C.2     1  <O>11       0.2450
   3 N1       -5.8740     2.5930    -2.0230  N.am    1  <O>11      -0.3057
   4 C2       -7.1250     3.3020    -2.2790  C.3     1  <O>11       0.0565
   5 C3       -7.3940     4.2490    -1.1650  C.ar    1  <O>11       0.0863
   6 N2       -8.1325     3.8266    -0.0533  N.ar    1  <O>11      -0.1737
   7 N3       -8.4750     4.7033     0.9182  N.ar    1  <O>11      -0.2424
   8 C4       -8.0835     5.9961     0.8073  C.ar    1  <O>11       0.2725
   9 O2       -8.5537     6.8771     1.8003  O.2     1  <O>11      -0.2658
  10 C5       -7.2565     6.4746    -0.2192  C.ar    1  <O>11       0.0496
  11 C6       -6.7974     7.8095    -0.3057  C.ar    1  <O>11      -0.0487
  12 C7       -6.0028     8.2288    -1.3723  C.ar    1  <O>11      -0.0610
  13 C8       -5.6579     7.3303    -2.3736  C.ar    1  <O>11      -0.0611
  14 C9       -6.1073     6.0102    -2.3102  C.ar    1  <O>11      -0.0520
  15 C10      -6.9063     5.5648    -1.2323  C.ar    1  <O>11       0.0118
  16 C11      -4.1810     0.9600    -2.6660  C.ar    1  <O>11       0.0444
  17 C12      -3.4680     1.2510    -1.4990  C.ar    1  <O>11      -0.0490
  18 C13      -2.2880     0.5670    -1.2250  C.ar    1  <O>11      -0.0605
  19 C14      -1.8080    -0.3860    -2.1310  C.ar    1  <O>11      -0.0540
  20 C15      -2.5060    -0.6730    -3.3150  C.ar    1  <O>11      -0.0172
  21 C16      -2.0340    -1.6230    -4.2350  C.ar    1  <O>11      -0.0540
  22 C17      -2.7460    -1.8990    -5.4030  C.ar    1  <O>11      -0.0612
  23 C18      -3.9400    -1.2330    -5.6650  C.ar    1  <O>11      -0.0611
  24 C19      -4.4220    -0.2870    -4.7610  C.ar    1  <O>11      -0.0533
  25 C20      -3.7140     0.0060    -3.5830  C.ar    1  <O>11      -0.0058
  26 H1       -5.3400     2.7910    -1.1780  H       1  <O>11       0.1494
  27 H2       -7.9420     2.5840    -2.3500  H       1  <O>11       0.0528
  28 H3       -7.0450     3.8550    -3.2150  H       1  <O>11       0.0528
  29 H4       -9.0158     4.3980     1.7145  H       1  <O>11       0.1921
  30 H5       -7.0544     8.4838     0.4321  H       1  <O>11       0.0625
  31 H6       -5.6716     9.2052    -1.4176  H       1  <O>11       0.0618
  32 H7       -5.0699     7.6382    -3.1638  H       1  <O>11       0.0618
  33 H8       -5.8525     5.3497    -3.0610  H       1  <O>11       0.0624
  34 H9       -3.8152     1.9693    -0.8444  H       1  <O>11       0.0625
  35 H10      -1.7675     0.7618    -0.3554  H       1  <O>11       0.0618
  36 H11      -0.9283    -0.8849    -1.9257  H       1  <O>11       0.0624
  37 H12      -1.1511    -2.1225    -4.0453  H       1  <O>11       0.0624
  38 H13      -2.3872    -2.5972    -6.0729  H       1  <O>11       0.0618
  39 H14      -4.4679    -1.4392    -6.5274  H       1  <O>11       0.0618
  40 H15      -5.3082     0.2032    -4.9592  H       1  <O>11       0.0624
@<TRIPOS>BOND
     1     1     2    2
     2     2     3   am
     3     3     4    1
     4     4     5    1
     5     5     6   ar
     6     6     7   ar
     7     7     8   ar
     8     8     9    2
     9     8    10   ar
    10    10    11   ar
    11    11    12   ar
    12    12    13   ar
    13    13    14   ar
    14    14    15   ar
    15     5    15   ar
    16    10    15   ar
    17     2    16    1
    18    16    17   ar
    19    17    18   ar
    20    18    19   ar
    21    19    20   ar
    22    20    21   ar
    23    21    22   ar
    24    22    23   ar
    25    23    24   ar
    26    24    25   ar
    27    16    25   ar
    28    20    25   ar
    29     3    26    1
    30     4    27    1
    31     4    28    1
    32     7    29    1
    33    11    30    1
    34    12    31    1
    35    13    32    1
    36    14    33    1
    37    17    34    1
    38    18    35    1
    39    19    36    1
    40    21    37    1
    41    22    38    1
    42    23    39    1
    43    24    40    1
@<TRIPOS>MOLECULE
mol38_1_24
 40 43 0 0 0
SMALL
USER_CHARGES
****
VDW energy = -3.61
@<TRIPOS>ATOM
   1 O1       -6.0607     1.4255    -3.9319  O.2     1  <O>11      -0.2702
   2 C1       -5.4199     1.6625    -2.9188  C.2     1  <O>11       0.2450
   3 N1       -5.8740     2.5930    -2.0230  N.am    1  <O>11      -0.3057
   4 C2       -7.1250     3.3020    -2.2790  C.3     1  <O>11       0.0565
   5 C3       -7.3940     4.2490    -1.1650  C.ar    1  <O>11       0.0863
   6 N2       -6.9080     5.5601    -1.2312  N.ar    1  <O>11      -0.1737
   7 N3       -7.0534     6.4013    -0.1819  N.ar    1  <O>11      -0.2424
   8 C4       -7.6872     5.9615     0.9324  C.ar    1  <O>11       0.2725
   9 O2       -7.7202     6.8518     2.0231  O.2     1  <O>11      -0.2658
  10 C5       -8.2920     4.7007     1.0387  C.ar    1  <O>11       0.0496
  11 C6       -9.0053     4.2608     2.1779  C.ar    1  <O>11      -0.0487
  12 C7       -9.5553     2.9803     2.2315  C.ar    1  <O>11      -0.0610
  13 C8       -9.3990     2.1143     1.1571  C.ar    1  <O>11      -0.0611
  14 C9       -8.6919     2.5272     0.0265  C.ar    1  <O>11      -0.0520
  15 C10      -8.1348     3.8244    -0.0494  C.ar    1  <O>11       0.0118
  16 C11      -4.1810     0.9600    -2.6660  C.ar    1  <O>11       0.0444
  17 C12      -3.4680     1.2510    -1.4990  C.ar    1  <O>11      -0.0490
  18 C13      -2.2880     0.5670    -1.2250  C.ar    1  <O>11      -0.0605
  19 C14      -1.8080    -0.3860    -2.1310  C.ar    1  <O>11      -0.0540
  20 C15      -2.5060    -0.6730    -3.3150  C.ar    1  <O>11      -0.0172
  21 C16      -2.0340    -1.6230    -4.2350  C.ar    1  <O>11      -0.0540
  22 C17      -2.7460    -1.8990    -5.4030  C.ar    1  <O>11      -0.0612
  23 C18      -3.9400    -1.2330    -5.6650  C.ar    1  <O>11      -0.0611
  24 C19      -4.4220    -0.2870    -4.7610  C.ar    1  <O>11      -0.0533
  25 C20      -3.7140     0.0060    -3.5830  C.ar    1  <O>11      -0.0058
  26 H1       -5.3400     2.7910    -1.1780  H       1  <O>11       0.1494
  27 H2       -7.9420     2.5840    -2.3500  H       1  <O>11       0.0528
  28 H3       -7.0450     3.8550    -3.2150  H       1  <O>11       0.0528
  29 H4       -6.6936     7.3436    -0.2288  H       1  <O>11       0.1921
  30 H5       -9.1207     4.8973     2.9820  H       1  <O>11       0.0625
  31 H6      -10.0776     2.6767     3.0682  H       1  <O>11       0.0618
  32 H7       -9.8051     1.1663     1.1944  H       1  <O>11       0.0618
  33 H8       -8.5741     1.8762    -0.7654  H       1  <O>11       0.0624
  34 H9       -3.8152     1.9693    -0.8444  H       1  <O>11       0.0625
  35 H10      -1.7675     0.7618    -0.3554  H       1  <O>11       0.0618
  36 H11      -0.9283    -0.8849    -1.9257  H       1  <O>11       0.0624
  37 H12      -1.1511    -2.1225    -4.0453  H       1  <O>11       0.0624
  38 H13      -2.3872    -2.5972    -6.0729  H       1  <O>11       0.0618
  39 H14      -4.4679    -1.4392    -6.5274  H       1  <O>11       0.0618
  40 H15      -5.3082     0.2032    -4.9592  H       1  <O>11       0.0624
@<TRIPOS>BOND
     1     1     2    2
     2     2     3   am
     3     3     4    1
     4     4     5    1
     5     5     6   ar
     6     6     7   ar
     7     7     8   ar
     8     8     9    2
     9     8    10   ar
    10    10    11   ar
    11    11    12   ar
    12    12    13   ar
    13    13    14   ar
    14    14    15   ar
    15     5    15   ar
    16    10    15   ar
    17     2    16    1
    18    16    17   ar
    19    17    18   ar
    20    18    19   ar
    21    19    20   ar
    22    20    21   ar
    23    21    22   ar
    24    22    23   ar
    25    23    24   ar
    26    24    25   ar
    27    16    25   ar
    28    20    25   ar
    29     3    26    1
    30     4    27    1
    31     4    28    1
    32     7    29    1
    33    11    30    1
    34    12    31    1
    35    13    32    1
    36    14    33    1
    37    17    34    1
    38    18    35    1
    39    19    36    1
    40    21    37    1
    41    22    38    1
    42    23    39    1
    43    24    40    1
@<TRIPOS>MOLECULE
mol38_1_25
 40 43 0 0 0
SMALL
USER_CHARGES
****
VDW energy = -3.19
@<TRIPOS>ATOM
   1 O1       -6.0607     1.4255    -3.9319  O.2     1  <O>11      -0.2702
   2 C1       -5.4199     1.6625    -2.9188  C.2     1  <O>11       0.2450
   3 N1       -5.8740     2.5930    -2.0230  N.am    1  <O>11      -0.3057
   4 C2       -7.1250     3.3020    -2.2790  C.3     1  <O>11       0.0565
   5 C3       -7.3940     4.2490    -1.1650  C.ar    1  <O>11       0.0863
   6 N2       -7.5023     5.6201    -1.4257  N.ar    1  <O>11      -0.1737
   7 N3       -7.6419     6.5041    -0.4114  N.ar    1  <O>11      -0.2424
   8 C4       -7.6874     6.0437     0.8625  C.ar    1  <O>11       0.2725
   9 O2       -7.7358     7.0197     1.8766  O.2     1  <O>11      -0.2658
  10 C5       -7.6900     4.6824     1.1996  C.ar    1  <O>11       0.0496
  11 C6       -7.7971     4.1972     2.5237  C.ar    1  <O>11      -0.0487
  12 C7       -7.7602     2.8294     2.7933  C.ar    1  <O>11      -0.0610
  13 C8       -7.6090     1.9226     1.7523  C.ar    1  <O>11      -0.0611
  14 C9       -7.4942     2.3821     0.4392  C.ar    1  <O>11      -0.0520
  15 C10      -7.5381     3.7643     0.1457  C.ar    1  <O>11       0.0118
  16 C11      -4.1810     0.9600    -2.6660  C.ar    1  <O>11       0.0444
  17 C12      -3.4680     1.2510    -1.4990  C.ar    1  <O>11      -0.0490
  18 C13      -2.2880     0.5670    -1.2250  C.ar    1  <O>11      -0.0605
  19 C14      -1.8080    -0.3860    -2.1310  C.ar    1  <O>11      -0.0540
  20 C15      -2.5060    -0.6730    -3.3150  C.ar    1  <O>11      -0.0172
  21 C16      -2.0340    -1.6230    -4.2350  C.ar    1  <O>11      -0.0540
  22 C17      -2.7460    -1.8990    -5.4030  C.ar    1  <O>11      -0.0612
  23 C18      -3.9400    -1.2330    -5.6650  C.ar    1  <O>11      -0.0611
  24 C19      -4.4220    -0.2870    -4.7610  C.ar    1  <O>11      -0.0533
  25 C20      -3.7140     0.0060    -3.5830  C.ar    1  <O>11      -0.0058
  26 H1       -5.3400     2.7910    -1.1780  H       1  <O>11       0.1494
  27 H2       -7.9420     2.5840    -2.3500  H       1  <O>11       0.0528
  28 H3       -7.0450     3.8550    -3.2150  H       1  <O>11       0.0528
  29 H4       -7.7104     7.4934    -0.6017  H       1  <O>11       0.1921
  30 H5       -7.9043     4.8658     3.3025  H       1  <O>11       0.0625
  31 H6       -7.8451     2.4916     3.7647  H       1  <O>11       0.0618
  32 H7       -7.5815     0.9099     1.9493  H       1  <O>11       0.0618
  33 H8       -7.3755     1.7029    -0.3286  H       1  <O>11       0.0624
  34 H9       -3.8152     1.9693    -0.8444  H       1  <O>11       0.0625
  35 H10      -1.7675     0.7618    -0.3554  H       1  <O>11       0.0618
  36 H11      -0.9283    -0.8849    -1.9257  H       1  <O>11       0.0624
  37 H12      -1.1511    -2.1225    -4.0453  H       1  <O>11       0.0624
  38 H13      -2.3872    -2.5972    -6.0729  H       1  <O>11       0.0618
  39 H14      -4.4679    -1.4392    -6.5274  H       1  <O>11       0.0618
  40 H15      -5.3082     0.2032    -4.9592  H       1  <O>11       0.0624
@<TRIPOS>BOND
     1     1     2    2
     2     2     3   am
     3     3     4    1
     4     4     5    1
     5     5     6   ar
     6     6     7   ar
     7     7     8   ar
     8     8     9    2
     9     8    10   ar
    10    10    11   ar
    11    11    12   ar
    12    12    13   ar
    13    13    14   ar
    14    14    15   ar
    15     5    15   ar
    16    10    15   ar
    17     2    16    1
    18    16    17   ar
    19    17    18   ar
    20    18    19   ar
    21    19    20   ar
    22    20    21   ar
    23    21    22   ar
    24    22    23   ar
    25    23    24   ar
    26    24    25   ar
    27    16    25   ar
    28    20    25   ar
    29     3    26    1
    30     4    27    1
    31     4    28    1
    32     7    29    1
    33    11    30    1
    34    12    31    1
    35    13    32    1
    36    14    33    1
    37    17    34    1
    38    18    35    1
    39    19    36    1
    40    21    37    1
    41    22    38    1
    42    23    39    1
    43    24    40    1
@<TRIPOS>MOLECULE
mol38_1_26
 40 43 0 0 0
SMALL
USER_CHARGES
****
VDW energy = -3.03
@<TRIPOS>ATOM
   1 O1       -6.0607     1.4255    -3.9319  O.2     1  <O>11      -0.2702
   2 C1       -5.4199     1.6625    -2.9188  C.2     1  <O>11       0.2450
   3 N1       -5.8740     2.5930    -2.0230  N.am    1  <O>11      -0.3057
   4 C2       -7.1250     3.3020    -2.2790  C.3     1  <O>11       0.0565
   5 C3       -7.0145     4.0552    -3.5560  C.ar    1  <O>11       0.0863
   6 N2       -7.3846     3.4449    -4.7602  N.ar    1  <O>11      -0.1737
   7 N3       -7.1918     4.0781    -5.9398  N.ar    1  <O>11      -0.2424
   8 C4       -6.6453     5.3183    -5.9405  C.ar    1  <O>11       0.2725
   9 O2       -6.3814     5.8825    -7.2036  O.2     1  <O>11      -0.2658
  10 C5       -6.3444     6.0380    -4.7751  C.ar    1  <O>11       0.0496
  11 C6       -5.8295     7.3552    -4.7714  C.ar    1  <O>11      -0.0487
  12 C7       -5.5204     8.0029    -3.5756  C.ar    1  <O>11      -0.0610
  13 C8       -5.7112     7.3495    -2.3651  C.ar    1  <O>11      -0.0611
  14 C9       -6.2115     6.0464    -2.3480  C.ar    1  <O>11      -0.0520
  15 C10      -6.5386     5.3770    -3.5495  C.ar    1  <O>11       0.0118
  16 C11      -4.1810     0.9600    -2.6660  C.ar    1  <O>11       0.0444
  17 C12      -3.4680     1.2510    -1.4990  C.ar    1  <O>11      -0.0490
  18 C13      -2.2880     0.5670    -1.2250  C.ar    1  <O>11      -0.0605
  19 C14      -1.8080    -0.3860    -2.1310  C.ar    1  <O>11      -0.0540
  20 C15      -2.5060    -0.6730    -3.3150  C.ar    1  <O>11      -0.0172
  21 C16      -2.0340    -1.6230    -4.2350  C.ar    1  <O>11      -0.0540
  22 C17      -2.7460    -1.8990    -5.4030  C.ar    1  <O>11      -0.0612
  23 C18      -3.9400    -1.2330    -5.6650  C.ar    1  <O>11      -0.0611
  24 C19      -4.4220    -0.2870    -4.7610  C.ar    1  <O>11      -0.0533
  25 C20      -3.7140     0.0060    -3.5830  C.ar    1  <O>11      -0.0058
  26 H1       -5.3400     2.7910    -1.1780  H       1  <O>11       0.1494
  27 H2       -7.3222     3.9977    -1.4634  H       1  <O>11       0.0528
  28 H3       -7.9423     2.5841    -2.3498  H       1  <O>11       0.0528
  29 H4       -7.4511     3.6317    -6.8077  H       1  <O>11       0.1921
  30 H5       -5.6802     7.8447    -5.6676  H       1  <O>11       0.0625
  31 H6       -5.1505     8.9663    -3.5903  H       1  <O>11       0.0618
  32 H7       -5.4833     7.8268    -1.4790  H       1  <O>11       0.0618
  33 H8       -6.3446     5.5647    -1.4452  H       1  <O>11       0.0624
  34 H9       -3.8152     1.9693    -0.8444  H       1  <O>11       0.0625
  35 H10      -1.7675     0.7618    -0.3554  H       1  <O>11       0.0618
  36 H11      -0.9283    -0.8849    -1.9257  H       1  <O>11       0.0624
  37 H12      -1.1511    -2.1225    -4.0453  H       1  <O>11       0.0624
  38 H13      -2.3872    -2.5972    -6.0729  H       1  <O>11       0.0618
  39 H14      -4.4679    -1.4392    -6.5274  H       1  <O>11       0.0618
  40 H15      -5.3082     0.2032    -4.9592  H       1  <O>11       0.0624
@<TRIPOS>BOND
     1     1     2    2
     2     2     3   am
     3     3     4    1
     4     4     5    1
     5     5     6   ar
     6     6     7   ar
     7     7     8   ar
     8     8     9    2
     9     8    10   ar
    10    10    11   ar
    11    11    12   ar
    12    12    13   ar
    13    13    14   ar
    14    14    15   ar
    15     5    15   ar
    16    10    15   ar
    17     2    16    1
    18    16    17   ar
    19    17    18   ar
    20    18    19   ar
    21    19    20   ar
    22    20    21   ar
    23    21    22   ar
    24    22    23   ar
    25    23    24   ar
    26    24    25   ar
    27    16    25   ar
    28    20    25   ar
    29     3    26    1
    30     4    27    1
    31     4    28    1
    32     7    29    1
    33    11    30    1
    34    12    31    1
    35    13    32    1
    36    14    33    1
    37    17    34    1
    38    18    35    1
    39    19    36    1
    40    21    37    1
    41    22    38    1
    42    23    39    1
    43    24    40    1
@<TRIPOS>MOLECULE
mol38_1_27
 40 43 0 0 0
SMALL
USER_CHARGES
****
VDW energy = -2.31
@<TRIPOS>ATOM
   1 O1       -6.0607     1.4255    -3.9319  O.2     1  <O>11      -0.2702
   2 C1       -5.4199     1.6625    -2.9188  C.2     1  <O>11       0.2450
   3 N1       -5.8740     2.5930    -2.0230  N.am    1  <O>11      -0.3057
   4 C2       -7.1250     3.3020    -2.2790  C.3     1  <O>11       0.0565
   5 C3       -7.0145     4.0552    -3.5560  C.ar    1  <O>11       0.0863
   6 N2       -5.8287     4.0004    -4.2979  N.ar    1  <O>11      -0.1737
   7 N3       -5.6747     4.7615    -5.4054  N.ar    1  <O>11      -0.2424
   8 C4       -6.6894     5.5710    -5.7953  C.ar    1  <O>11       0.2725
   9 O2       -6.4306     6.4081    -6.8978  O.2     1  <O>11      -0.2658
  10 C5       -7.9434     5.6058    -5.1683  C.ar    1  <O>11       0.0496
  11 C6       -9.0240     6.4052    -5.6081  C.ar    1  <O>11      -0.0487
  12 C7      -10.2361     6.4181    -4.9184  C.ar    1  <O>11      -0.0610
  13 C8      -10.3911     5.6424    -3.7768  C.ar    1  <O>11      -0.0611
  14 C9       -9.3338     4.8523    -3.3224  C.ar    1  <O>11      -0.0520
  15 C10      -8.1008     4.8199    -4.0133  C.ar    1  <O>11       0.0118
  16 C11      -4.1810     0.9600    -2.6660  C.ar    1  <O>11       0.0444
  17 C12      -3.4680     1.2510    -1.4990  C.ar    1  <O>11      -0.0490
  18 C13      -2.2880     0.5670    -1.2250  C.ar    1  <O>11      -0.0605
  19 C14      -1.8080    -0.3860    -2.1310  C.ar    1  <O>11      -0.0540
  20 C15      -2.5060    -0.6730    -3.3150  C.ar    1  <O>11      -0.0172
  21 C16      -2.0340    -1.6230    -4.2350  C.ar    1  <O>11      -0.0540
  22 C17      -2.7460    -1.8990    -5.4030  C.ar    1  <O>11      -0.0612
  23 C18      -3.9400    -1.2330    -5.6650  C.ar    1  <O>11      -0.0611
  24 C19      -4.4220    -0.2870    -4.7610  C.ar    1  <O>11      -0.0533
  25 C20      -3.7140     0.0060    -3.5830  C.ar    1  <O>11      -0.0058
  26 H1       -5.3400     2.7910    -1.1780  H       1  <O>11       0.1494
  27 H2       -7.3222     3.9977    -1.4634  H       1  <O>11       0.0528
  28 H3       -7.9423     2.5841    -2.3498  H       1  <O>11       0.0528
  29 H4       -4.8147     4.7270    -5.9336  H       1  <O>11       0.1921
  30 H5       -8.9138     6.9881    -6.4526  H       1  <O>11       0.0625
  31 H6      -11.0165     7.0029    -5.2557  H       1  <O>11       0.0618
  32 H7      -11.2871     5.6502    -3.2648  H       1  <O>11       0.0618
  33 H8       -9.4540     4.2835    -2.4698  H       1  <O>11       0.0624
  34 H9       -3.8152     1.9693    -0.8444  H       1  <O>11       0.0625
  35 H10      -1.7675     0.7618    -0.3554  H       1  <O>11       0.0618
  36 H11      -0.9283    -0.8849    -1.9257  H       1  <O>11       0.0624
  37 H12      -1.1511    -2.1225    -4.0453  H       1  <O>11       0.0624
  38 H13      -2.3872    -2.5972    -6.0729  H       1  <O>11       0.0618
  39 H14      -4.4679    -1.4392    -6.5274  H       1  <O>11       0.0618
  40 H15      -5.3082     0.2032    -4.9592  H       1  <O>11       0.0624
@<TRIPOS>BOND
     1     1     2    2
     2     2     3   am
     3     3     4    1
     4     4     5    1
     5     5     6   ar
     6     6     7   ar
     7     7     8   ar
     8     8     9    2
     9     8    10   ar
    10    10    11   ar
    11    11    12   ar
    12    12    13   ar
    13    13    14   ar
    14    14    15   ar
    15     5    15   ar
    16    10    15   ar
    17     2    16    1
    18    16    17   ar
    19    17    18   ar
    20    18    19   ar
    21    19    20   ar
    22    20    21   ar
    23    21    22   ar
    24    22    23   ar
    25    23    24   ar
    26    24    25   ar
    27    16    25   ar
    28    20    25   ar
    29     3    26    1
    30     4    27    1
    31     4    28    1
    32     7    29    1
    33    11    30    1
    34    12    31    1
    35    13    32    1
    36    14    33    1
    37    17    34    1
    38    18    35    1
    39    19    36    1
    40    21    37    1
    41    22    38    1
    42    23    39    1
    43    24    40    1
@<TRIPOS>MOLECULE
mol38_1_28
 40 43 0 0 0
SMALL
USER_CHARGES
****
VDW energy = -1.75
@<TRIPOS>ATOM
   1 O1       -6.0607     1.4255    -3.9319  O.2     1  <O>11      -0.2702
   2 C1       -5.4199     1.6625    -2.9188  C.2     1  <O>11       0.2450
   3 N1       -5.8740     2.5930    -2.0230  N.am    1  <O>11      -0.3057
   4 C2       -7.1250     3.3020    -2.2790  C.3     1  <O>11       0.0565
   5 C3       -7.3940     4.2490    -1.1650  C.ar    1  <O>11       0.0863
   6 N2       -6.4950     4.3420    -0.0960  N.ar    1  <O>11      -0.1737
   7 N3       -6.7770     5.1200     0.9740  N.ar    1  <O>11      -0.2424
   8 C4       -7.9380     5.8190     0.9930  C.ar    1  <O>11       0.2725
   9 O2       -8.2170     6.5320     2.1750  O.2     1  <O>11      -0.2658
  10 C5       -8.8400     5.8610    -0.0800  C.ar    1  <O>11       0.0496
  11 C6      -10.0230     6.6360    -0.0870  C.ar    1  <O>11      -0.0487
  12 C7      -10.8950     6.6070    -1.1750  C.ar    1  <O>11      -0.0610
  13 C8      -10.6090     5.8020    -2.2700  C.ar    1  <O>11      -0.0611
  14 C9       -9.4500     5.0240    -2.2790  C.ar    1  <O>11      -0.0520
  15 C10      -8.5500     5.0470    -1.1890  C.ar    1  <O>11       0.0118
  16 C11      -4.1810     0.9600    -2.6660  C.ar    1  <O>11       0.0444
  17 C12      -3.4680     1.2510    -1.4990  C.ar    1  <O>11      -0.0490
  18 C13      -2.2880     0.5670    -1.2250  C.ar    1  <O>11      -0.0605
  19 C14      -1.8080    -0.3860    -2.1310  C.ar    1  <O>11      -0.0540
  20 C15      -2.5060    -0.6730    -3.3150  C.ar    1  <O>11      -0.0172
  21 C16      -2.0340    -1.6230    -4.2350  C.ar    1  <O>11      -0.0540
  22 C17      -2.7460    -1.8990    -5.4030  C.ar    1  <O>11      -0.0612
  23 C18      -3.9400    -1.2330    -5.6650  C.ar    1  <O>11      -0.0611
  24 C19      -4.4220    -0.2870    -4.7610  C.ar    1  <O>11      -0.0533
  25 C20      -3.7140     0.0060    -3.5830  C.ar    1  <O>11      -0.0058
  26 H1       -5.3400     2.7910    -1.1780  H       1  <O>11       0.1494
  27 H2       -7.9420     2.5840    -2.3500  H       1  <O>11       0.0528
  28 H3       -7.0450     3.8550    -3.2150  H       1  <O>11       0.0528
  29 H4       -6.1310     5.1780     1.7480  H       1  <O>11       0.1921
  30 H5      -10.2444     7.2323     0.7257  H       1  <O>11       0.0625
  31 H6      -11.7514     7.1828    -1.1665  H       1  <O>11       0.0618
  32 H7      -11.2527     5.7790    -3.0763  H       1  <O>11       0.0618
  33 H8       -9.2472     4.4233    -3.0932  H       1  <O>11       0.0624
  34 H9       -3.8152     1.9693    -0.8444  H       1  <O>11       0.0625
  35 H10      -1.7675     0.7618    -0.3554  H       1  <O>11       0.0618
  36 H11      -0.9283    -0.8849    -1.9257  H       1  <O>11       0.0624
  37 H12      -1.1511    -2.1225    -4.0453  H       1  <O>11       0.0624
  38 H13      -2.3872    -2.5972    -6.0729  H       1  <O>11       0.0618
  39 H14      -4.4679    -1.4392    -6.5274  H       1  <O>11       0.0618
  40 H15      -5.3082     0.2032    -4.9592  H       1  <O>11       0.0624
@<TRIPOS>BOND
     1     1     2    2
     2     2     3   am
     3     3     4    1
     4     4     5    1
     5     5     6   ar
     6     6     7   ar
     7     7     8   ar
     8     8     9    2
     9     8    10   ar
    10    10    11   ar
    11    11    12   ar
    12    12    13   ar
    13    13    14   ar
    14    14    15   ar
    15     5    15   ar
    16    10    15   ar
    17     2    16    1
    18    16    17   ar
    19    17    18   ar
    20    18    19   ar
    21    19    20   ar
    22    20    21   ar
    23    21    22   ar
    24    22    23   ar
    25    23    24   ar
    26    24    25   ar
    27    16    25   ar
    28    20    25   ar
    29     3    26    1
    30     4    27    1
    31     4    28    1
    32     7    29    1
    33    11    30    1
    34    12    31    1
    35    13    32    1
    36    14    33    1
    37    17    34    1
    38    18    35    1
    39    19    36    1
    40    21    37    1
    41    22    38    1
    42    23    39    1
    43    24    40    1
@<TRIPOS>MOLECULE
mol38_1_29
 40 43 0 0 0
SMALL
USER_CHARGES
****
VDW energy = -1.71
@<TRIPOS>ATOM
   1 O1       -6.0607     1.4255    -3.9319  O.2     1  <O>11      -0.2702
   2 C1       -5.4199     1.6625    -2.9188  C.2     1  <O>11       0.2450
   3 N1       -5.8740     2.5930    -2.0230  N.am    1  <O>11      -0.3057
   4 C2       -7.1250     3.3020    -2.2790  C.3     1  <O>11       0.0565
   5 C3       -8.2385     2.3217    -2.3758  C.ar    1  <O>11       0.0863
   6 N2       -7.9796     0.9546    -2.2228  N.ar    1  <O>11      -0.1737
   7 N3       -8.9613     0.0434    -2.4119  N.ar    1  <O>11      -0.2424
   8 C4      -10.2042     0.4722    -2.7406  C.ar    1  <O>11       0.2725
   9 O2      -11.1556    -0.5283    -3.0184  O.2     1  <O>11      -0.2658
  10 C5      -10.5688     1.8246    -2.8107  C.ar    1  <O>11       0.0496
  11 C6      -11.8788     2.2753    -3.0951  C.ar    1  <O>11      -0.0487
  12 C7      -12.1674     3.6370    -3.1827  C.ar    1  <O>11      -0.0610
  13 C8      -11.1575     4.5719    -2.9964  C.ar    1  <O>11      -0.0611
  14 C9       -9.8565     4.1469    -2.7220  C.ar    1  <O>11      -0.0520
  15 C10      -9.5468     2.7712    -2.6209  C.ar    1  <O>11       0.0118
  16 C11      -4.1810     0.9600    -2.6660  C.ar    1  <O>11       0.0444
  17 C12      -3.4680     1.2510    -1.4990  C.ar    1  <O>11      -0.0490
  18 C13      -2.2880     0.5670    -1.2250  C.ar    1  <O>11      -0.0605
  19 C14      -1.8080    -0.3860    -2.1310  C.ar    1  <O>11      -0.0540
  20 C15      -2.5060    -0.6730    -3.3150  C.ar    1  <O>11      -0.0172
  21 C16      -2.0340    -1.6230    -4.2350  C.ar    1  <O>11      -0.0540
  22 C17      -2.7460    -1.8990    -5.4030  C.ar    1  <O>11      -0.0612
  23 C18      -3.9400    -1.2330    -5.6650  C.ar    1  <O>11      -0.0611
  24 C19      -4.4220    -0.2870    -4.7610  C.ar    1  <O>11      -0.0533
  25 C20      -3.7140     0.0060    -3.5830  C.ar    1  <O>11      -0.0058
  26 H1       -5.3400     2.7910    -1.1780  H       1  <O>11       0.1494
  27 H2       -7.0452     3.8539    -3.2155  H       1  <O>11       0.0528
  28 H3       -7.3227     3.9975    -1.4632  H       1  <O>11       0.0528
  29 H4       -8.7695    -0.9428    -2.3100  H       1  <O>11       0.1921
  30 H5      -12.6329     1.5859    -3.2401  H       1  <O>11       0.0625
  31 H6      -13.1298     3.9493    -3.3857  H       1  <O>11       0.0618
  32 H7      -11.3687     5.5801    -3.0606  H       1  <O>11       0.0618
  33 H8       -9.1098     4.8470    -2.5911  H       1  <O>11       0.0624
  34 H9       -3.8152     1.9693    -0.8444  H       1  <O>11       0.0625
  35 H10      -1.7675     0.7618    -0.3554  H       1  <O>11       0.0618
  36 H11      -0.9283    -0.8849    -1.9257  H       1  <O>11       0.0624
  37 H12      -1.1511    -2.1225    -4.0453  H       1  <O>11       0.0624
  38 H13      -2.3872    -2.5972    -6.0729  H       1  <O>11       0.0618
  39 H14      -4.4679    -1.4392    -6.5274  H       1  <O>11       0.0618
  40 H15      -5.3082     0.2032    -4.9592  H       1  <O>11       0.0624
@<TRIPOS>BOND
     1     1     2    2
     2     2     3   am
     3     3     4    1
     4     4     5    1
     5     5     6   ar
     6     6     7   ar
     7     7     8   ar
     8     8     9    2
     9     8    10   ar
    10    10    11   ar
    11    11    12   ar
    12    12    13   ar
    13    13    14   ar
    14    14    15   ar
    15     5    15   ar
    16    10    15   ar
    17     2    16    1
    18    16    17   ar
    19    17    18   ar
    20    18    19   ar
    21    19    20   ar
    22    20    21   ar
    23    21    22   ar
    24    22    23   ar
    25    23    24   ar
    26    24    25   ar
    27    16    25   ar
    28    20    25   ar
    29     3    26    1
    30     4    27    1
    31     4    28    1
    32     7    29    1
    33    11    30    1
    34    12    31    1
    35    13    32    1
    36    14    33    1
    37    17    34    1
    38    18    35    1
    39    19    36    1
    40    21    37    1
    41    22    38    1
    42    23    39    1
    43    24    40    1
@<TRIPOS>MOLECULE
mol38_1_30
 40 43 0 0 0
SMALL
USER_CHARGES
****
VDW energy = 12.40
@<TRIPOS>ATOM
   1 O1       -6.0607     1.4255    -3.9319  O.2     1  <O>11      -0.2702
   2 C1       -5.4199     1.6625    -2.9188  C.2     1  <O>11       0.2450
   3 N1       -5.8740     2.5930    -2.0230  N.am    1  <O>11      -0.3057
   4 C2       -7.1250     3.3020    -2.2790  C.3     1  <O>11       0.0565
   5 C3       -7.0145     4.0552    -3.5560  C.ar    1  <O>11       0.0863
   6 N2       -6.5408     5.3725    -3.5502  N.ar    1  <O>11      -0.1737
   7 N3       -6.5333     6.1056    -4.6869  N.ar    1  <O>11      -0.2424
   8 C4       -6.9803     5.5438    -5.8365  C.ar    1  <O>11       0.2725
   9 O2       -7.0376     6.3885    -6.9619  O.2     1  <O>11      -0.2658
  10 C5       -7.3724     4.2019    -5.9470  C.ar    1  <O>11       0.0496
  11 C6       -7.7829     3.5965    -7.1574  C.ar    1  <O>11      -0.0487
  12 C7       -8.1925     2.2639    -7.1920  C.ar    1  <O>11      -0.0610
  13 C8       -8.2075     1.5138    -6.0232  C.ar    1  <O>11      -0.0611
  14 C9       -7.8130     2.0954    -4.8170  C.ar    1  <O>11      -0.0520
  15 C10      -7.3866     3.4422    -4.7641  C.ar    1  <O>11       0.0118
  16 C11      -4.1810     0.9600    -2.6660  C.ar    1  <O>11       0.0444
  17 C12      -4.2219    -0.2419    -1.9528  C.ar    1  <O>11      -0.0490
  18 C13      -3.0443    -0.9458    -1.7225  C.ar    1  <O>11      -0.0605
  19 C14      -1.8248    -0.4335    -2.1806  C.ar    1  <O>11      -0.0540
  20 C15      -1.7695     0.7818    -2.8817  C.ar    1  <O>11      -0.0172
  21 C16      -0.5530     1.3099    -3.3430  C.ar    1  <O>11      -0.0540
  22 C17      -0.5198     2.5160    -4.0440  C.ar    1  <O>11      -0.0612
  23 C18      -1.7011     3.2078    -4.2967  C.ar    1  <O>11      -0.0611
  24 C19      -2.9173     2.6962    -3.8454  C.ar    1  <O>11      -0.0533
  25 C20      -2.9668     1.4856    -3.1334  C.ar    1  <O>11      -0.0058
  26 H1       -5.3400     2.7910    -1.1780  H       1  <O>11       0.1494
  27 H2       -7.3222     3.9977    -1.4634  H       1  <O>11       0.0528
  28 H3       -7.9423     2.5841    -2.3498  H       1  <O>11       0.0528
  29 H4       -6.1997     7.0587    -4.6780  H       1  <O>11       0.1921
  30 H5       -7.7793     4.1496    -8.0287  H       1  <O>11       0.0625
  31 H6       -8.4839     1.8357    -8.0846  H       1  <O>11       0.0618
  32 H7       -8.5101     0.5275    -6.0463  H       1  <O>11       0.0618
  33 H8       -7.8329     1.5340    -3.9514  H       1  <O>11       0.0624
  34 H9       -5.1209    -0.6050    -1.5991  H       1  <O>11       0.0625
  35 H10      -3.0697    -1.8440    -1.2149  H       1  <O>11       0.0618
  36 H11      -0.9537    -0.9566    -2.0003  H       1  <O>11       0.0624
  37 H12       0.3260     0.8005    -3.1616  H       1  <O>11       0.0624
  38 H13       0.3809     2.8954    -4.3753  H       1  <O>11       0.0618
  39 H14      -1.6768     4.0983    -4.8176  H       1  <O>11       0.0618
  40 H15      -3.7904     3.2121    -4.0362  H       1  <O>11       0.0624
@<TRIPOS>BOND
     1     1     2    2
     2     2     3   am
     3     3     4    1
     4     4     5    1
     5     5     6   ar
     6     6     7   ar
     7     7     8   ar
     8     8     9    2
     9     8    10   ar
    10    10    11   ar
    11    11    12   ar
    12    12    13   ar
    13    13    14   ar
    14    14    15   ar
    15     5    15   ar
    16    10    15   ar
    17     2    16    1
    18    16    17   ar
    19    17    18   ar
    20    18    19   ar
    21    19    20   ar
    22    20    21   ar
    23    21    22   ar
    24    22    23   ar
    25    23    24   ar
    26    24    25   ar
    27    16    25   ar
    28    20    25   ar
    29     3    26    1
    30     4    27    1
    31     4    28    1
    32     7    29    1
    33    11    30    1
    34    12    31    1
    35    13    32    1
    36    14    33    1
    37    17    34    1
    38    18    35    1
    39    19    36    1
    40    21    37    1
    41    22    38    1
    42    23    39    1
    43    24    40    1
