@<TRIPOS>MOLECULE
mol31_1_1
 38 41 0 0 0
SMALL
USER_CHARGES
****
VDW energy = -85.00
@<TRIPOS>ATOM
   1 O1       -4.0202     6.2292    -0.2381  O.2     1  <O>11      -0.2682
   2 C1       -4.9778     5.9218     0.4561  C.2     1  <O>11       0.2676
   3 C2       -6.3200     6.3350     0.0700  C.ar    1  <O>11       0.1535
   4 N1       -6.8320     7.5571     0.5214  N.ar    1  <O>11      -0.1656
   5 N2       -8.1120     7.9072     0.2580  N.ar    1  <O>11      -0.2420
   6 C3       -8.8909     7.0635    -0.4595  C.ar    1  <O>11       0.2725
   7 O2      -10.2379     7.4416    -0.6145  O.2     1  <O>11      -0.2658
   8 C4       -8.4273     5.8712    -1.0341  C.ar    1  <O>11       0.0501
   9 C5       -9.2223     5.0170    -1.8318  C.ar    1  <O>11      -0.0487
  10 C6       -8.7057     3.8281    -2.3477  C.ar    1  <O>11      -0.0610
  11 C7       -7.3927     3.4658    -2.0711  C.ar    1  <O>11      -0.0611
  12 C8       -6.5954     4.2918    -1.2787  C.ar    1  <O>11      -0.0516
  13 C9       -7.0989     5.5050    -0.7548  C.ar    1  <O>11       0.0195
  14 N3       -4.7900     5.1940     1.5890  N.am    1  <O>11      -0.2916
  15 C10      -5.8139     4.7021     2.5941  C.3     1  <O>11       0.0194
  16 C11      -5.8349     3.1759     2.6744  C.3     1  <O>11      -0.0115
  17 C12      -4.4623     2.5477     2.6764  C.ar    1  <O>11      -0.0412
  18 C13      -4.3375     1.1868     2.9852  C.ar    1  <O>11      -0.0582
  19 C14      -3.0883     0.5688     2.9602  C.ar    1  <O>11      -0.0615
  20 C15      -1.9551     1.3011     2.6223  C.ar    1  <O>11      -0.0614
  21 C16      -2.0664     2.6549     2.3046  C.ar    1  <O>11      -0.0568
  22 C17      -3.3188     3.2863     2.3158  C.ar    1  <O>11      -0.0269
  23 C18      -3.4129     4.7546     2.0088  C.3     1  <O>11       0.0403
  24 H1       -8.4806     8.7862     0.5928  H       1  <O>11       0.1921
  25 H2       -5.5677     5.1051     3.5766  H       1  <O>11       0.0468
  26 H3       -6.8017     5.0541     2.2938  H       1  <O>11       0.0468
  27 H4       -6.3463     2.8871     3.5925  H       1  <O>11       0.0328
  28 H5       -6.3874     2.7939     1.8157  H       1  <O>11       0.0328
  29 H6       -3.1316     5.3115     2.9018  H       1  <O>11       0.0514
  30 H7       -2.7170     4.9837     1.2019  H       1  <O>11       0.0514
  31 H8      -10.2001     5.2768    -2.0357  H       1  <O>11       0.0625
  32 H9       -9.2975     3.2187    -2.9337  H       1  <O>11       0.0618
  33 H10      -7.0081     2.5868    -2.4515  H       1  <O>11       0.0618
  34 H11      -5.6234     4.0134    -1.0717  H       1  <O>11       0.0624
  35 H12      -5.1759     0.6383     3.2327  H       1  <O>11       0.0620
  36 H13      -3.0043    -0.4331     3.1928  H       1  <O>11       0.0618
  37 H14      -1.0308     0.8423     2.6066  H       1  <O>11       0.0618
  38 H15      -1.2219     3.1953     2.0597  H       1  <O>11       0.0621
@<TRIPOS>BOND
     1     1     2    2
     2     2     3    1
     3     3     4   ar
     4     4     5   ar
     5     5     6   ar
     6     6     7    2
     7     6     8   ar
     8     8     9   ar
     9     9    10   ar
    10    10    11   ar
    11    11    12   ar
    12    12    13   ar
    13     3    13   ar
    14     8    13   ar
    15     2    14   am
    16    14    15    1
    17    15    16    1
    18    16    17    1
    19    17    18   ar
    20    18    19   ar
    21    19    20   ar
    22    20    21   ar
    23    21    22   ar
    24    17    22   ar
    25    22    23    1
    26    14    23    1
    27     5    24    1
    28    15    25    1
    29    15    26    1
    30    16    27    1
    31    16    28    1
    32    23    29    1
    33    23    30    1
    34     9    31    1
    35    10    32    1
    36    11    33    1
    37    12    34    1
    38    18    35    1
    39    19    36    1
    40    20    37    1
    41    21    38    1
@<TRIPOS>MOLECULE
mol31_1_2
 38 41 0 0 0
SMALL
USER_CHARGES
****
VDW energy = -84.34
@<TRIPOS>ATOM
   1 O1       -4.0202     6.2292    -0.2381  O.2     1  <O>11      -0.2682
   2 C1       -4.9778     5.9218     0.4561  C.2     1  <O>11       0.2676
   3 C2       -6.3200     6.3350     0.0700  C.ar    1  <O>11       0.1535
   4 N1       -7.0961     5.5094    -0.7519  N.ar    1  <O>11      -0.1656
   5 N2       -8.3019     5.9246    -1.2036  N.ar    1  <O>11      -0.2420
   6 C3       -8.7553     7.1477    -0.8406  C.ar    1  <O>11       0.2725
   7 O2       -9.9696     7.5581    -1.4224  O.2     1  <O>11      -0.2658
   8 C4       -8.0889     7.9921     0.0590  C.ar    1  <O>11       0.0501
   9 C5       -8.5872     9.2444     0.4847  C.ar    1  <O>11      -0.0487
  10 C6       -7.8568    10.0494     1.3593  C.ar    1  <O>11      -0.0610
  11 C7       -6.6151     9.6253     1.8177  C.ar    1  <O>11      -0.0611
  12 C8       -6.1030     8.3962     1.4019  C.ar    1  <O>11      -0.0516
  13 C9       -6.8330     7.5628     0.5231  C.ar    1  <O>11       0.0195
  14 N3       -4.7900     5.1940     1.5890  N.am    1  <O>11      -0.2916
  15 C10      -5.8139     4.7021     2.5941  C.3     1  <O>11       0.0194
  16 C11      -5.8349     3.1759     2.6744  C.3     1  <O>11      -0.0115
  17 C12      -4.4623     2.5477     2.6764  C.ar    1  <O>11      -0.0412
  18 C13      -4.3375     1.1868     2.9852  C.ar    1  <O>11      -0.0582
  19 C14      -3.0883     0.5688     2.9602  C.ar    1  <O>11      -0.0615
  20 C15      -1.9551     1.3011     2.6223  C.ar    1  <O>11      -0.0614
  21 C16      -2.0664     2.6549     2.3046  C.ar    1  <O>11      -0.0568
  22 C17      -3.3188     3.2863     2.3158  C.ar    1  <O>11      -0.0269
  23 C18      -3.4129     4.7546     2.0088  C.3     1  <O>11       0.0403
  24 H1       -8.8553     5.3295    -1.8037  H       1  <O>11       0.1921
  25 H2       -5.5677     5.1051     3.5766  H       1  <O>11       0.0468
  26 H3       -6.8017     5.0541     2.2938  H       1  <O>11       0.0468
  27 H4       -6.3463     2.8871     3.5925  H       1  <O>11       0.0328
  28 H5       -6.3874     2.7939     1.8157  H       1  <O>11       0.0328
  29 H6       -3.1316     5.3115     2.9018  H       1  <O>11       0.0514
  30 H7       -2.7170     4.9837     1.2019  H       1  <O>11       0.0514
  31 H8       -9.5057     9.5684     0.1432  H       1  <O>11       0.0625
  32 H9       -8.2379    10.9583     1.6655  H       1  <O>11       0.0618
  33 H10      -6.0728    10.2189     2.4647  H       1  <O>11       0.0618
  34 H11      -5.1773     8.0904     1.7408  H       1  <O>11       0.0624
  35 H12      -5.1759     0.6383     3.2327  H       1  <O>11       0.0620
  36 H13      -3.0043    -0.4331     3.1928  H       1  <O>11       0.0618
  37 H14      -1.0308     0.8423     2.6066  H       1  <O>11       0.0618
  38 H15      -1.2219     3.1953     2.0597  H       1  <O>11       0.0621
@<TRIPOS>BOND
     1     1     2    2
     2     2     3    1
     3     3     4   ar
     4     4     5   ar
     5     5     6   ar
     6     6     7    2
     7     6     8   ar
     8     8     9   ar
     9     9    10   ar
    10    10    11   ar
    11    11    12   ar
    12    12    13   ar
    13     3    13   ar
    14     8    13   ar
    15     2    14   am
    16    14    15    1
    17    15    16    1
    18    16    17    1
    19    17    18   ar
    20    18    19   ar
    21    19    20   ar
    22    20    21   ar
    23    21    22   ar
    24    17    22   ar
    25    22    23    1
    26    14    23    1
    27     5    24    1
    28    15    25    1
    29    15    26    1
    30    16    27    1
    31    16    28    1
    32    23    29    1
    33    23    30    1
    34     9    31    1
    35    10    32    1
    36    11    33    1
    37    12    34    1
    38    18    35    1
    39    19    36    1
    40    20    37    1
    41    21    38    1
@<TRIPOS>MOLECULE
mol31_1_3
 38 41 0 0 0
SMALL
USER_CHARGES
****
VDW energy = -81.71
@<TRIPOS>ATOM
   1 O1       -4.0202     6.2292    -0.2381  O.2     1  <O>11      -0.2682
   2 C1       -4.9778     5.9218     0.4561  C.2     1  <O>11       0.2676
   3 C2       -6.3200     6.3350     0.0700  C.ar    1  <O>11       0.1535
   4 N1       -6.8320     7.5571     0.5214  N.ar    1  <O>11      -0.1656
   5 N2       -8.1120     7.9072     0.2580  N.ar    1  <O>11      -0.2420
   6 C3       -8.8909     7.0635    -0.4595  C.ar    1  <O>11       0.2725
   7 O2      -10.2379     7.4416    -0.6145  O.2     1  <O>11      -0.2658
   8 C4       -8.4273     5.8712    -1.0341  C.ar    1  <O>11       0.0501
   9 C5       -9.2223     5.0170    -1.8318  C.ar    1  <O>11      -0.0487
  10 C6       -8.7057     3.8281    -2.3477  C.ar    1  <O>11      -0.0610
  11 C7       -7.3927     3.4658    -2.0711  C.ar    1  <O>11      -0.0611
  12 C8       -6.5954     4.2918    -1.2787  C.ar    1  <O>11      -0.0516
  13 C9       -7.0989     5.5050    -0.7548  C.ar    1  <O>11       0.0195
  14 N3       -4.7900     5.1940     1.5890  N.am    1  <O>11      -0.2916
  15 C10      -3.5010     4.6590     2.1830  C.3     1  <O>11       0.0194
  16 C11      -3.2370     5.2420     3.5710  C.3     1  <O>11      -0.0115
  17 C12      -4.4640     5.3050     4.4480  C.ar    1  <O>11      -0.0412
  18 C13      -4.3120     5.5920     5.8110  C.ar    1  <O>11      -0.0582
  19 C14      -5.4280     5.6930     6.6400  C.ar    1  <O>11      -0.0615
  20 C15      -6.7040     5.5140     6.1160  C.ar    1  <O>11      -0.0614
  21 C16      -6.8700     5.2360     4.7590  C.ar    1  <O>11      -0.0568
  22 C17      -5.7560     5.1420     3.9120  C.ar    1  <O>11      -0.0269
  23 C18      -5.9530     4.8030     2.4610  C.3     1  <O>11       0.0403
  24 H1       -8.4806     8.7862     0.5928  H       1  <O>11       0.1921
  25 H2       -3.5710     3.5740     2.2620  H       1  <O>11       0.0468
  26 H3       -2.6720     4.9230     1.5250  H       1  <O>11       0.0468
  27 H4       -2.4910     4.6220     4.0680  H       1  <O>11       0.0328
  28 H5       -2.8470     6.2530     3.4510  H       1  <O>11       0.0328
  29 H6       -6.1000     3.7270     2.3760  H       1  <O>11       0.0514
  30 H7       -6.8420     5.3220     2.1030  H       1  <O>11       0.0514
  31 H8      -10.2001     5.2768    -2.0357  H       1  <O>11       0.0625
  32 H9       -9.2975     3.2187    -2.9337  H       1  <O>11       0.0618
  33 H10      -7.0081     2.5868    -2.4515  H       1  <O>11       0.0618
  34 H11      -5.6234     4.0134    -1.0717  H       1  <O>11       0.0624
  35 H12      -3.3676     5.7295     6.2037  H       1  <O>11       0.0620
  36 H13      -5.3074     5.9008     7.6436  H       1  <O>11       0.0618
  37 H14      -7.5289     5.5869     6.7318  H       1  <O>11       0.0618
  38 H15      -7.8184     5.0987     4.3760  H       1  <O>11       0.0621
@<TRIPOS>BOND
     1     1     2    2
     2     2     3    1
     3     3     4   ar
     4     4     5   ar
     5     5     6   ar
     6     6     7    2
     7     6     8   ar
     8     8     9   ar
     9     9    10   ar
    10    10    11   ar
    11    11    12   ar
    12    12    13   ar
    13     3    13   ar
    14     8    13   ar
    15     2    14   am
    16    14    15    1
    17    15    16    1
    18    16    17    1
    19    17    18   ar
    20    18    19   ar
    21    19    20   ar
    22    20    21   ar
    23    21    22   ar
    24    17    22   ar
    25    22    23    1
    26    14    23    1
    27     5    24    1
    28    15    25    1
    29    15    26    1
    30    16    27    1
    31    16    28    1
    32    23    29    1
    33    23    30    1
    34     9    31    1
    35    10    32    1
    36    11    33    1
    37    12    34    1
    38    18    35    1
    39    19    36    1
    40    20    37    1
    41    21    38    1
@<TRIPOS>MOLECULE
mol31_1_4
 38 41 0 0 0
SMALL
USER_CHARGES
****
VDW energy = -81.40
@<TRIPOS>ATOM
   1 O1       -4.0202     6.2292    -0.2381  O.2     1  <O>11      -0.2682
   2 C1       -4.9778     5.9218     0.4561  C.2     1  <O>11       0.2676
   3 C2       -6.3200     6.3350     0.0700  C.ar    1  <O>11       0.1535
   4 N1       -7.0961     5.5094    -0.7519  N.ar    1  <O>11      -0.1656
   5 N2       -8.3019     5.9246    -1.2036  N.ar    1  <O>11      -0.2420
   6 C3       -8.7553     7.1477    -0.8406  C.ar    1  <O>11       0.2725
   7 O2       -9.9696     7.5581    -1.4224  O.2     1  <O>11      -0.2658
   8 C4       -8.0889     7.9921     0.0590  C.ar    1  <O>11       0.0501
   9 C5       -8.5872     9.2444     0.4847  C.ar    1  <O>11      -0.0487
  10 C6       -7.8568    10.0494     1.3593  C.ar    1  <O>11      -0.0610
  11 C7       -6.6151     9.6253     1.8177  C.ar    1  <O>11      -0.0611
  12 C8       -6.1030     8.3962     1.4019  C.ar    1  <O>11      -0.0516
  13 C9       -6.8330     7.5628     0.5231  C.ar    1  <O>11       0.0195
  14 N3       -4.7900     5.1940     1.5890  N.am    1  <O>11      -0.2916
  15 C10      -3.5010     4.6590     2.1830  C.3     1  <O>11       0.0194
  16 C11      -3.2370     5.2420     3.5710  C.3     1  <O>11      -0.0115
  17 C12      -4.4640     5.3050     4.4480  C.ar    1  <O>11      -0.0412
  18 C13      -4.3120     5.5920     5.8110  C.ar    1  <O>11      -0.0582
  19 C14      -5.4280     5.6930     6.6400  C.ar    1  <O>11      -0.0615
  20 C15      -6.7040     5.5140     6.1160  C.ar    1  <O>11      -0.0614
  21 C16      -6.8700     5.2360     4.7590  C.ar    1  <O>11      -0.0568
  22 C17      -5.7560     5.1420     3.9120  C.ar    1  <O>11      -0.0269
  23 C18      -5.9530     4.8030     2.4610  C.3     1  <O>11       0.0403
  24 H1       -8.8553     5.3295    -1.8037  H       1  <O>11       0.1921
  25 H2       -3.5710     3.5740     2.2620  H       1  <O>11       0.0468
  26 H3       -2.6720     4.9230     1.5250  H       1  <O>11       0.0468
  27 H4       -2.4910     4.6220     4.0680  H       1  <O>11       0.0328
  28 H5       -2.8470     6.2530     3.4510  H       1  <O>11       0.0328
  29 H6       -6.1000     3.7270     2.3760  H       1  <O>11       0.0514
  30 H7       -6.8420     5.3220     2.1030  H       1  <O>11       0.0514
  31 H8       -9.5057     9.5684     0.1432  H       1  <O>11       0.0625
  32 H9       -8.2379    10.9583     1.6655  H       1  <O>11       0.0618
  33 H10      -6.0728    10.2189     2.4647  H       1  <O>11       0.0618
  34 H11      -5.1773     8.0904     1.7408  H       1  <O>11       0.0624
  35 H12      -3.3676     5.7295     6.2037  H       1  <O>11       0.0620
  36 H13      -5.3074     5.9008     7.6436  H       1  <O>11       0.0618
  37 H14      -7.5289     5.5869     6.7318  H       1  <O>11       0.0618
  38 H15      -7.8184     5.0987     4.3760  H       1  <O>11       0.0621
@<TRIPOS>BOND
     1     1     2    2
     2     2     3    1
     3     3     4   ar
     4     4     5   ar
     5     5     6   ar
     6     6     7    2
     7     6     8   ar
     8     8     9   ar
     9     9    10   ar
    10    10    11   ar
    11    11    12   ar
    12    12    13   ar
    13     3    13   ar
    14     8    13   ar
    15     2    14   am
    16    14    15    1
    17    15    16    1
    18    16    17    1
    19    17    18   ar
    20    18    19   ar
    21    19    20   ar
    22    20    21   ar
    23    21    22   ar
    24    17    22   ar
    25    22    23    1
    26    14    23    1
    27     5    24    1
    28    15    25    1
    29    15    26    1
    30    16    27    1
    31    16    28    1
    32    23    29    1
    33    23    30    1
    34     9    31    1
    35    10    32    1
    36    11    33    1
    37    12    34    1
    38    18    35    1
    39    19    36    1
    40    20    37    1
    41    21    38    1
@<TRIPOS>MOLECULE
mol31_1_5
 38 41 0 0 0
SMALL
USER_CHARGES
****
VDW energy = -46.19
@<TRIPOS>ATOM
   1 O1       -4.0202     6.2292    -0.2381  O.2     1  <O>11      -0.2682
   2 C1       -4.9778     5.9218     0.4561  C.2     1  <O>11       0.2676
   3 C2       -6.3200     6.3350     0.0700  C.ar    1  <O>11       0.1535
   4 N1       -7.4160     5.9820     0.8660  N.ar    1  <O>11      -0.1656
   5 N2       -8.6770     6.2680     0.4680  N.ar    1  <O>11      -0.2420
   6 C3       -8.8660     6.9120    -0.7080  C.ar    1  <O>11       0.2725
   7 O2      -10.2030     7.0920    -1.1100  O.2     1  <O>11      -0.2658
   8 C4       -7.8220     7.3900    -1.5130  C.ar    1  <O>11       0.0501
   9 C5       -8.0160     8.1130    -2.7120  C.ar    1  <O>11      -0.0487
  10 C6       -6.9310     8.5330    -3.4820  C.ar    1  <O>11      -0.0610
  11 C7       -5.6360     8.2330    -3.0760  C.ar    1  <O>11      -0.0611
  12 C8       -5.4250     7.5130    -1.9000  C.ar    1  <O>11      -0.0516
  13 C9       -6.5120     7.0870    -1.1020  C.ar    1  <O>11       0.0195
  14 N3       -4.7900     5.1940     1.5890  N.am    1  <O>11      -0.2916
  15 C10      -5.8139     4.7021     2.5941  C.3     1  <O>11       0.0194
  16 C11      -5.8349     3.1759     2.6744  C.3     1  <O>11      -0.0115
  17 C12      -4.4623     2.5477     2.6764  C.ar    1  <O>11      -0.0412
  18 C13      -4.3375     1.1868     2.9852  C.ar    1  <O>11      -0.0582
  19 C14      -3.0883     0.5688     2.9602  C.ar    1  <O>11      -0.0615
  20 C15      -1.9551     1.3011     2.6223  C.ar    1  <O>11      -0.0614
  21 C16      -2.0664     2.6549     2.3046  C.ar    1  <O>11      -0.0568
  22 C17      -3.3188     3.2863     2.3158  C.ar    1  <O>11      -0.0269
  23 C18      -3.4129     4.7546     2.0088  C.3     1  <O>11       0.0403
  24 H1       -9.4660     6.0040     1.0410  H       1  <O>11       0.1921
  25 H2       -5.5677     5.1051     3.5766  H       1  <O>11       0.0468
  26 H3       -6.8017     5.0541     2.2938  H       1  <O>11       0.0468
  27 H4       -6.3463     2.8871     3.5925  H       1  <O>11       0.0328
  28 H5       -6.3874     2.7939     1.8157  H       1  <O>11       0.0328
  29 H6       -3.1316     5.3115     2.9018  H       1  <O>11       0.0514
  30 H7       -2.7170     4.9837     1.2019  H       1  <O>11       0.0514
  31 H8       -8.9751     8.3336    -3.0227  H       1  <O>11       0.0625
  32 H9       -7.0897     9.0656    -4.3516  H       1  <O>11       0.0618
  33 H10      -4.8317     8.5425    -3.6438  H       1  <O>11       0.0618
  34 H11      -4.4611     7.2878    -1.6079  H       1  <O>11       0.0624
  35 H12      -5.1759     0.6383     3.2327  H       1  <O>11       0.0620
  36 H13      -3.0043    -0.4331     3.1928  H       1  <O>11       0.0618
  37 H14      -1.0308     0.8423     2.6066  H       1  <O>11       0.0618
  38 H15      -1.2219     3.1953     2.0597  H       1  <O>11       0.0621
@<TRIPOS>BOND
     1     1     2    2
     2     2     3    1
     3     3     4   ar
     4     4     5   ar
     5     5     6   ar
     6     6     7    2
     7     6     8   ar
     8     8     9   ar
     9     9    10   ar
    10    10    11   ar
    11    11    12   ar
    12    12    13   ar
    13     3    13   ar
    14     8    13   ar
    15     2    14   am
    16    14    15    1
    17    15    16    1
    18    16    17    1
    19    17    18   ar
    20    18    19   ar
    21    19    20   ar
    22    20    21   ar
    23    21    22   ar
    24    17    22   ar
    25    22    23    1
    26    14    23    1
    27     5    24    1
    28    15    25    1
    29    15    26    1
    30    16    27    1
    31    16    28    1
    32    23    29    1
    33    23    30    1
    34     9    31    1
    35    10    32    1
    36    11    33    1
    37    12    34    1
    38    18    35    1
    39    19    36    1
    40    20    37    1
    41    21    38    1
