@<TRIPOS>MOLECULE
mol39_1_1
 36 37 0 0 0
SMALL
USER_CHARGES
****
VDW energy = 152.52
@<TRIPOS>ATOM
   1 C1        2.8832    -9.8059    -4.4252  C.3     1  <O>11      -0.0397
   2 C2        1.4617   -10.1611    -4.6036  C.ar    1  <O>11      -0.0504
   3 C3        0.8050   -10.8783    -3.6012  C.ar    1  <O>11      -0.0585
   4 C4       -0.5391   -11.2290    -3.7692  C.ar    1  <O>11      -0.0561
   5 C5       -1.2224   -10.8607    -4.9311  C.ar    1  <O>11      -0.0196
   6 C6       -2.6400   -11.2300    -5.1160  C.3     1  <O>11       0.0983
   7 O1       -2.7407   -12.2324    -6.1140  O.3     1  <O>11      -0.2749
   8 N1       -3.2855   -13.4046    -5.5501  N.am    1  <O>11      -0.1902
   9 C7       -2.5600   -14.5642    -5.5504  C.2     1  <O>11       0.2668
  10 O2       -3.0331   -15.5800    -5.0611  O.2     1  <O>11      -0.2681
  11 C8       -1.2241   -14.5889    -6.1317  C.ar    1  <O>11       0.0408
  12 C9       -1.0506   -14.8712    -7.4979  C.ar    1  <O>11      -0.0494
  13 C10       0.2329   -14.9044    -8.0527  C.ar    1  <O>11      -0.0589
  14 C11       1.3523   -14.6551    -7.2528  C.ar    1  <O>11      -0.0316
  15 C12       1.1783   -14.3677    -5.8950  C.ar    1  <O>11       0.1223
  16 N2        2.3342   -14.1096    -5.0751  N.4     1  <O>11       0.0060
  17 O3        3.1109   -13.0348    -5.6580  O.2     1  <O>11      -0.1300
  18 O4        3.1461   -15.3087    -4.9974  O.2     1  <O>11      -0.3961
  19 C13      -0.0981   -14.3298    -5.3329  C.ar    1  <O>11      -0.0195
  20 C14      -0.5527   -10.1366    -5.9237  C.ar    1  <O>11      -0.0561
  21 C15       0.7874    -9.7806    -5.7650  C.ar    1  <O>11      -0.0585
  22 H1        3.2314    -9.2521    -5.2971  H       1  <O>11       0.0278
  23 H2        3.4736   -10.7152    -4.3128  H       1  <O>11       0.0278
  24 H3        2.9942    -9.1880    -3.5342  H       1  <O>11       0.0278
  25 H4       -3.2062   -10.3508    -5.4244  H       1  <O>11       0.0634
  26 H5       -3.0418   -11.6101    -4.1770  H       1  <O>11       0.0634
  27 H6       -4.2214   -13.3871    -5.1422  H       1  <O>11       0.1828
  28 H7        1.3082   -11.1481    -2.7415  H       1  <O>11       0.0620
  29 H8       -1.0275   -11.7615    -3.0324  H       1  <O>11       0.0621
  30 H9       -1.8731   -15.0547    -8.0936  H       1  <O>11       0.0625
  31 H10       0.3541   -15.1135    -9.0560  H       1  <O>11       0.0618
  32 H11       2.2997   -14.6830    -7.6610  H       1  <O>11       0.0640
  33 H12       2.7851   -16.0967    -4.6411  H       1  <O>11       0.3292
  34 H13      -0.2150   -14.1114    -4.3311  H       1  <O>11       0.0648
  35 H14      -1.0552    -9.8628    -6.7825  H       1  <O>11       0.0621
  36 H15       1.2744    -9.2420    -6.4983  H       1  <O>11       0.0620
@<TRIPOS>BOND
     1     1     2    1
     2     2     3   ar
     3     3     4   ar
     4     4     5   ar
     5     5     6    1
     6     6     7    1
     7     7     8    1
     8     8     9   am
     9     9    10    2
    10     9    11    1
    11    11    12   ar
    12    12    13   ar
    13    13    14   ar
    14    14    15   ar
    15    15    16    1
    16    16    17    2
    17    16    18    1
    18    15    19   ar
    19    11    19   ar
    20     5    20   ar
    21    20    21   ar
    22     2    21   ar
    23     1    22    1
    24     1    23    1
    25     1    24    1
    26     6    25    1
    27     6    26    1
    28     8    27    1
    29     3    28    1
    30     4    29    1
    31    12    30    1
    32    13    31    1
    33    14    32    1
    34    18    33    1
    35    19    34    1
    36    20    35    1
    37    21    36    1
@<TRIPOS>MOLECULE
mol39_1_2
 36 37 0 0 0
SMALL
USER_CHARGES
****
VDW energy = 152.53
@<TRIPOS>ATOM
   1 C1        2.8832    -9.8059    -4.4252  C.3     1  <O>11      -0.0397
   2 C2        1.4617   -10.1611    -4.6036  C.ar    1  <O>11      -0.0504
   3 C3        0.8050   -10.8783    -3.6012  C.ar    1  <O>11      -0.0585
   4 C4       -0.5391   -11.2290    -3.7692  C.ar    1  <O>11      -0.0561
   5 C5       -1.2224   -10.8607    -4.9311  C.ar    1  <O>11      -0.0196
   6 C6       -2.6400   -11.2300    -5.1160  C.3     1  <O>11       0.0983
   7 O1       -2.7195   -12.4921    -5.7577  O.3     1  <O>11      -0.2749
   8 N1       -4.0732   -12.8454    -5.9346  N.am    1  <O>11      -0.1902
   9 C7       -4.5669   -13.9770    -5.3458  C.2     1  <O>11       0.2668
  10 O2       -5.7409   -14.2825    -5.4996  O.2     1  <O>11      -0.2681
  11 C8       -3.6953   -14.8171    -4.5347  C.ar    1  <O>11       0.0408
  12 C9       -3.5691   -14.5829    -3.1543  C.ar    1  <O>11      -0.0494
  13 C10      -2.7247   -15.3838    -2.3784  C.ar    1  <O>11      -0.0589
  14 C11      -2.0015   -16.4241    -2.9700  C.ar    1  <O>11      -0.0316
  15 C12      -2.1329   -16.6606    -4.3424  C.ar    1  <O>11       0.1223
  16 N2       -1.3876   -17.7346    -4.9474  N.4     1  <O>11       0.0060
  17 O3       -1.6770   -18.9741    -4.2558  O.2     1  <O>11      -0.1300
  18 O4        0.0308   -17.4470    -4.8555  O.2     1  <O>11      -0.3961
  19 C13      -2.9747   -15.8688    -5.1242  C.ar    1  <O>11      -0.0195
  20 C14      -0.5527   -10.1366    -5.9237  C.ar    1  <O>11      -0.0561
  21 C15       0.7874    -9.7806    -5.7650  C.ar    1  <O>11      -0.0585
  22 H1        3.2314    -9.2521    -5.2971  H       1  <O>11       0.0278
  23 H2        3.4736   -10.7152    -4.3128  H       1  <O>11       0.0278
  24 H3        2.9942    -9.1880    -3.5342  H       1  <O>11       0.0278
  25 H4       -3.1334   -10.4770    -5.7310  H       1  <O>11       0.0634
  26 H5       -3.1309   -11.2845    -4.1446  H       1  <O>11       0.0634
  27 H6       -4.6841   -12.2564    -6.5025  H       1  <O>11       0.1828
  28 H7        1.3082   -11.1481    -2.7415  H       1  <O>11       0.0620
  29 H8       -1.0275   -11.7615    -3.0324  H       1  <O>11       0.0621
  30 H9       -4.1013   -13.8175    -2.7118  H       1  <O>11       0.0625
  31 H10      -2.6350   -15.2062    -1.3658  H       1  <O>11       0.0618
  32 H11      -1.3757   -17.0129    -2.3986  H       1  <O>11       0.0640
  33 H12       0.3791   -16.6743    -5.2552  H       1  <O>11       0.3292
  34 H13      -3.0679   -16.0558    -6.1348  H       1  <O>11       0.0648
  35 H14      -1.0552    -9.8628    -6.7825  H       1  <O>11       0.0621
  36 H15       1.2744    -9.2420    -6.4983  H       1  <O>11       0.0620
@<TRIPOS>BOND
     1     1     2    1
     2     2     3   ar
     3     3     4   ar
     4     4     5   ar
     5     5     6    1
     6     6     7    1
     7     7     8    1
     8     8     9   am
     9     9    10    2
    10     9    11    1
    11    11    12   ar
    12    12    13   ar
    13    13    14   ar
    14    14    15   ar
    15    15    16    1
    16    16    17    2
    17    16    18    1
    18    15    19   ar
    19    11    19   ar
    20     5    20   ar
    21    20    21   ar
    22     2    21   ar
    23     1    22    1
    24     1    23    1
    25     1    24    1
    26     6    25    1
    27     6    26    1
    28     8    27    1
    29     3    28    1
    30     4    29    1
    31    12    30    1
    32    13    31    1
    33    14    32    1
    34    18    33    1
    35    19    34    1
    36    20    35    1
    37    21    36    1
@<TRIPOS>MOLECULE
mol39_1_3
 36 37 0 0 0
SMALL
USER_CHARGES
****
VDW energy = 152.98
@<TRIPOS>ATOM
   1 C1        2.8832    -9.8059    -4.4252  C.3     1  <O>11      -0.0397
   2 C2        1.4617   -10.1611    -4.6036  C.ar    1  <O>11      -0.0504
   3 C3        0.8050   -10.8783    -3.6012  C.ar    1  <O>11      -0.0585
   4 C4       -0.5391   -11.2290    -3.7692  C.ar    1  <O>11      -0.0561
   5 C5       -1.2224   -10.8607    -4.9311  C.ar    1  <O>11      -0.0196
   6 C6       -2.6400   -11.2300    -5.1160  C.3     1  <O>11       0.0983
   7 O1       -3.4162   -10.6605    -4.0747  O.3     1  <O>11      -0.2749
   8 N1       -4.3548    -9.7631    -4.6245  N.am    1  <O>11      -0.1902
   9 C7       -4.3214    -8.4408    -4.2764  C.2     1  <O>11       0.2668
  10 O2       -5.1356    -7.6633    -4.7538  O.2     1  <O>11      -0.2681
  11 C8       -3.3157    -7.9584    -3.3388  C.ar    1  <O>11       0.0408
  12 C9       -2.0722    -7.4993    -3.8070  C.ar    1  <O>11      -0.0494
  13 C10      -1.1040    -7.0456    -2.9054  C.ar    1  <O>11      -0.0589
  14 C11      -1.3668    -7.0437    -1.5320  C.ar    1  <O>11      -0.0316
  15 C12      -2.6068    -7.4943    -1.0675  C.ar    1  <O>11       0.1223
  16 N2       -2.8740    -7.4888     0.3480  N.4     1  <O>11       0.0060
  17 O3       -2.6625    -6.1562     0.8752  O.2     1  <O>11      -0.1300
  18 O4       -1.9809    -8.4202     1.0096  O.2     1  <O>11      -0.3961
  19 C13      -3.5800    -7.9463    -1.9593  C.ar    1  <O>11      -0.0195
  20 C14      -0.5527   -10.1366    -5.9237  C.ar    1  <O>11      -0.0561
  21 C15       0.7874    -9.7806    -5.7650  C.ar    1  <O>11      -0.0585
  22 H1        3.2314    -9.2521    -5.2971  H       1  <O>11       0.0278
  23 H2        3.4736   -10.7152    -4.3128  H       1  <O>11       0.0278
  24 H3        2.9942    -9.1880    -3.5342  H       1  <O>11       0.0278
  25 H4       -2.7378   -12.3156    -5.0913  H       1  <O>11       0.0634
  26 H5       -2.9906   -10.8553    -6.0774  H       1  <O>11       0.0634
  27 H6       -5.0592   -10.1011    -5.2820  H       1  <O>11       0.1828
  28 H7        1.3082   -11.1481    -2.7415  H       1  <O>11       0.0620
  29 H8       -1.0275   -11.7615    -3.0324  H       1  <O>11       0.0621
  30 H9       -1.8730    -7.4971    -4.8196  H       1  <O>11       0.0625
  31 H10      -0.1924    -6.7111    -3.2549  H       1  <O>11       0.0618
  32 H11      -0.6513    -6.7124    -0.8662  H       1  <O>11       0.0640
  33 H12      -1.9957    -9.3281     0.7783  H       1  <O>11       0.3292
  34 H13      -4.4933    -8.2716    -1.6057  H       1  <O>11       0.0648
  35 H14      -1.0552    -9.8628    -6.7825  H       1  <O>11       0.0621
  36 H15       1.2744    -9.2420    -6.4983  H       1  <O>11       0.0620
@<TRIPOS>BOND
     1     1     2    1
     2     2     3   ar
     3     3     4   ar
     4     4     5   ar
     5     5     6    1
     6     6     7    1
     7     7     8    1
     8     8     9   am
     9     9    10    2
    10     9    11    1
    11    11    12   ar
    12    12    13   ar
    13    13    14   ar
    14    14    15   ar
    15    15    16    1
    16    16    17    2
    17    16    18    1
    18    15    19   ar
    19    11    19   ar
    20     5    20   ar
    21    20    21   ar
    22     2    21   ar
    23     1    22    1
    24     1    23    1
    25     1    24    1
    26     6    25    1
    27     6    26    1
    28     8    27    1
    29     3    28    1
    30     4    29    1
    31    12    30    1
    32    13    31    1
    33    14    32    1
    34    18    33    1
    35    19    34    1
    36    20    35    1
    37    21    36    1
@<TRIPOS>MOLECULE
mol39_1_4
 36 37 0 0 0
SMALL
USER_CHARGES
****
VDW energy = 153.09
@<TRIPOS>ATOM
   1 C1        2.8832    -9.8059    -4.4252  C.3     1  <O>11      -0.0397
   2 C2        1.4617   -10.1611    -4.6036  C.ar    1  <O>11      -0.0504
   3 C3        0.8050   -10.8783    -3.6012  C.ar    1  <O>11      -0.0585
   4 C4       -0.5391   -11.2290    -3.7692  C.ar    1  <O>11      -0.0561
   5 C5       -1.2224   -10.8607    -4.9311  C.ar    1  <O>11      -0.0196
   6 C6       -2.6400   -11.2300    -5.1160  C.3     1  <O>11       0.0983
   7 O1       -2.7407   -12.2324    -6.1140  O.3     1  <O>11      -0.2749
   8 N1       -3.2855   -13.4046    -5.5501  N.am    1  <O>11      -0.1902
   9 C7       -2.5600   -14.5642    -5.5504  C.2     1  <O>11       0.2668
  10 O2       -3.0331   -15.5800    -5.0611  O.2     1  <O>11      -0.2681
  11 C8       -1.2241   -14.5889    -6.1317  C.ar    1  <O>11       0.0408
  12 C9       -0.0998   -14.3045    -5.3371  C.ar    1  <O>11      -0.0494
  13 C10       1.1812   -14.3189    -5.8984  C.ar    1  <O>11      -0.0589
  14 C11       1.3527   -14.6183    -7.2535  C.ar    1  <O>11      -0.0316
  15 C12       0.2341   -14.9077    -8.0418  C.ar    1  <O>11       0.1223
  16 N2        0.4157   -15.2175    -9.4369  N.4     1  <O>11       0.0060
  17 O3        1.3474   -16.3185    -9.5709  O.2     1  <O>11      -0.1300
  18 O4        0.9385   -14.0524   -10.1240  O.2     1  <O>11      -0.3961
  19 C13      -1.0475   -14.8984    -7.4904  C.ar    1  <O>11      -0.0195
  20 C14      -0.5527   -10.1366    -5.9237  C.ar    1  <O>11      -0.0561
  21 C15       0.7874    -9.7806    -5.7650  C.ar    1  <O>11      -0.0585
  22 H1        3.2314    -9.2521    -5.2971  H       1  <O>11       0.0278
  23 H2        3.4736   -10.7152    -4.3128  H       1  <O>11       0.0278
  24 H3        2.9942    -9.1880    -3.5342  H       1  <O>11       0.0278
  25 H4       -3.2062   -10.3508    -5.4244  H       1  <O>11       0.0634
  26 H5       -3.0418   -11.6101    -4.1770  H       1  <O>11       0.0634
  27 H6       -4.2214   -13.3871    -5.1422  H       1  <O>11       0.1828
  28 H7        1.3082   -11.1481    -2.7415  H       1  <O>11       0.0620
  29 H8       -1.0275   -11.7615    -3.0324  H       1  <O>11       0.0621
  30 H9       -0.2201   -14.0842    -4.3361  H       1  <O>11       0.0625
  31 H10       2.0026   -14.1080    -5.3105  H       1  <O>11       0.0618
  32 H11       2.2974   -14.6256    -7.6688  H       1  <O>11       0.0640
  33 H12       0.4496   -13.2531   -10.1297  H       1  <O>11       0.3292
  34 H13      -1.8651   -15.1187    -8.0803  H       1  <O>11       0.0648
  35 H14      -1.0552    -9.8628    -6.7825  H       1  <O>11       0.0621
  36 H15       1.2744    -9.2420    -6.4983  H       1  <O>11       0.0620
@<TRIPOS>BOND
     1     1     2    1
     2     2     3   ar
     3     3     4   ar
     4     4     5   ar
     5     5     6    1
     6     6     7    1
     7     7     8    1
     8     8     9   am
     9     9    10    2
    10     9    11    1
    11    11    12   ar
    12    12    13   ar
    13    13    14   ar
    14    14    15   ar
    15    15    16    1
    16    16    17    2
    17    16    18    1
    18    15    19   ar
    19    11    19   ar
    20     5    20   ar
    21    20    21   ar
    22     2    21   ar
    23     1    22    1
    24     1    23    1
    25     1    24    1
    26     6    25    1
    27     6    26    1
    28     8    27    1
    29     3    28    1
    30     4    29    1
    31    12    30    1
    32    13    31    1
    33    14    32    1
    34    18    33    1
    35    19    34    1
    36    20    35    1
    37    21    36    1
@<TRIPOS>MOLECULE
mol39_1_5
 36 37 0 0 0
SMALL
USER_CHARGES
****
VDW energy = 153.19
@<TRIPOS>ATOM
   1 C1        2.8832    -9.8059    -4.4252  C.3     1  <O>11      -0.0397
   2 C2        1.4617   -10.1611    -4.6036  C.ar    1  <O>11      -0.0504
   3 C3        0.8050   -10.8783    -3.6012  C.ar    1  <O>11      -0.0585
   4 C4       -0.5391   -11.2290    -3.7692  C.ar    1  <O>11      -0.0561
   5 C5       -1.2224   -10.8607    -4.9311  C.ar    1  <O>11      -0.0196
   6 C6       -2.6400   -11.2300    -5.1160  C.3     1  <O>11       0.0983
   7 O1       -3.4162   -10.6605    -4.0747  O.3     1  <O>11      -0.2749
   8 N1       -4.7702   -11.0129    -4.2507  N.am    1  <O>11      -0.1902
   9 C7       -5.7113   -10.0382    -4.4388  C.2     1  <O>11       0.2668
  10 O2       -6.8852   -10.3446    -4.5915  O.2     1  <O>11      -0.2681
  11 C8       -5.3154    -8.6360    -4.4589  C.ar    1  <O>11       0.0408
  12 C9       -4.9510    -8.0194    -5.6685  C.ar    1  <O>11      -0.0494
  13 C10      -4.5618    -6.6761    -5.6851  C.ar    1  <O>11      -0.0589
  14 C11      -4.5343    -5.9364    -4.4988  C.ar    1  <O>11      -0.0316
  15 C12      -4.9035    -6.5489    -3.2966  C.ar    1  <O>11       0.1223
  16 N2       -4.8756    -5.7826    -2.0772  N.4     1  <O>11       0.0060
  17 O3       -5.6871    -4.5930    -2.2344  O.2     1  <O>11      -0.1300
  18 O4       -3.5082    -5.4018    -1.7797  O.2     1  <O>11      -0.3961
  19 C13      -5.2957    -7.8876    -3.2704  C.ar    1  <O>11      -0.0195
  20 C14      -0.5527   -10.1366    -5.9237  C.ar    1  <O>11      -0.0561
  21 C15       0.7874    -9.7806    -5.7650  C.ar    1  <O>11      -0.0585
  22 H1        3.2314    -9.2521    -5.2971  H       1  <O>11       0.0278
  23 H2        3.4736   -10.7152    -4.3128  H       1  <O>11       0.0278
  24 H3        2.9942    -9.1880    -3.5342  H       1  <O>11       0.0278
  25 H4       -2.7378   -12.3156    -5.0913  H       1  <O>11       0.0634
  26 H5       -2.9906   -10.8553    -6.0774  H       1  <O>11       0.0634
  27 H6       -5.0475   -11.9955    -4.2373  H       1  <O>11       0.1828
  28 H7        1.3082   -11.1481    -2.7415  H       1  <O>11       0.0620
  29 H8       -1.0275   -11.7615    -3.0324  H       1  <O>11       0.0621
  30 H9       -4.9707    -8.5599    -6.5475  H       1  <O>11       0.0625
  31 H10      -4.2941    -6.2293    -6.5760  H       1  <O>11       0.0618
  32 H11      -4.2438    -4.9463    -4.5100  H       1  <O>11       0.0640
  33 H12      -2.8559    -6.0618    -1.6494  H       1  <O>11       0.3292
  34 H13      -5.5711    -8.3276    -2.3785  H       1  <O>11       0.0648
  35 H14      -1.0552    -9.8628    -6.7825  H       1  <O>11       0.0621
  36 H15       1.2744    -9.2420    -6.4983  H       1  <O>11       0.0620
@<TRIPOS>BOND
     1     1     2    1
     2     2     3   ar
     3     3     4   ar
     4     4     5   ar
     5     5     6    1
     6     6     7    1
     7     7     8    1
     8     8     9   am
     9     9    10    2
    10     9    11    1
    11    11    12   ar
    12    12    13   ar
    13    13    14   ar
    14    14    15   ar
    15    15    16    1
    16    16    17    2
    17    16    18    1
    18    15    19   ar
    19    11    19   ar
    20     5    20   ar
    21    20    21   ar
    22     2    21   ar
    23     1    22    1
    24     1    23    1
    25     1    24    1
    26     6    25    1
    27     6    26    1
    28     8    27    1
    29     3    28    1
    30     4    29    1
    31    12    30    1
    32    13    31    1
    33    14    32    1
    34    18    33    1
    35    19    34    1
    36    20    35    1
    37    21    36    1
@<TRIPOS>MOLECULE
mol39_1_6
 36 37 0 0 0
SMALL
USER_CHARGES
****
VDW energy = 154.80
@<TRIPOS>ATOM
   1 C1        2.8832    -9.8059    -4.4252  C.3     1  <O>11      -0.0397
   2 C2        1.4617   -10.1611    -4.6036  C.ar    1  <O>11      -0.0504
   3 C3        0.8050   -10.8783    -3.6012  C.ar    1  <O>11      -0.0585
   4 C4       -0.5391   -11.2290    -3.7692  C.ar    1  <O>11      -0.0561
   5 C5       -1.2224   -10.8607    -4.9311  C.ar    1  <O>11      -0.0196
   6 C6       -2.6400   -11.2300    -5.1160  C.3     1  <O>11       0.0983
   7 O1       -3.4675   -10.2042    -4.5926  O.3     1  <O>11      -0.2749
   8 N1       -4.2513    -9.6572    -5.6294  N.am    1  <O>11      -0.1902
   9 C7       -5.5933    -9.4678    -5.4446  C.2     1  <O>11       0.2668
  10 O2       -6.2722    -8.9932    -6.3442  O.2     1  <O>11      -0.2681
  11 C8       -6.2135    -9.8295    -4.1766  C.ar    1  <O>11       0.0408
  12 C9       -6.7072   -11.1302    -3.9745  C.ar    1  <O>11      -0.0494
  13 C10      -7.3111   -11.4735    -2.7605  C.ar    1  <O>11      -0.0589
  14 C11      -7.4262   -10.5260    -1.7387  C.ar    1  <O>11      -0.0316
  15 C12      -6.9286    -9.2340    -1.9383  C.ar    1  <O>11       0.1223
  16 N2       -7.0477    -8.2616    -0.8821  N.4     1  <O>11       0.0060
  17 O3       -6.4462    -8.7847     0.3274  O.2     1  <O>11      -0.1300
  18 O4       -8.4501    -7.9793    -0.6443  O.2     1  <O>11      -0.3961
  19 C13      -6.3223    -8.8828    -3.1448  C.ar    1  <O>11      -0.0195
  20 C14      -0.5527   -10.1366    -5.9237  C.ar    1  <O>11      -0.0561
  21 C15       0.7874    -9.7806    -5.7650  C.ar    1  <O>11      -0.0585
  22 H1        3.2314    -9.2521    -5.2971  H       1  <O>11       0.0278
  23 H2        3.4736   -10.7152    -4.3128  H       1  <O>11       0.0278
  24 H3        2.9942    -9.1880    -3.5342  H       1  <O>11       0.0278
  25 H4       -2.8424   -12.1643    -4.5918  H       1  <O>11       0.0634
  26 H5       -2.8467   -11.3573    -6.1784  H       1  <O>11       0.0634
  27 H6       -3.8167    -9.4031    -6.5178  H       1  <O>11       0.1828
  28 H7        1.3082   -11.1481    -2.7415  H       1  <O>11       0.0620
  29 H8       -1.0275   -11.7615    -3.0324  H       1  <O>11       0.0621
  30 H9       -6.6238   -11.8341    -4.7245  H       1  <O>11       0.0625
  31 H10      -7.6729   -12.4295    -2.6185  H       1  <O>11       0.0618
  32 H11      -7.8749   -10.7779    -0.8442  H       1  <O>11       0.0640
  33 H12      -8.9818    -7.6332    -1.3338  H       1  <O>11       0.3292
  34 H13      -5.9540    -7.9281    -3.2789  H       1  <O>11       0.0648
  35 H14      -1.0552    -9.8628    -6.7825  H       1  <O>11       0.0621
  36 H15       1.2744    -9.2420    -6.4983  H       1  <O>11       0.0620
@<TRIPOS>BOND
     1     1     2    1
     2     2     3   ar
     3     3     4   ar
     4     4     5   ar
     5     5     6    1
     6     6     7    1
     7     7     8    1
     8     8     9   am
     9     9    10    2
    10     9    11    1
    11    11    12   ar
    12    12    13   ar
    13    13    14   ar
    14    14    15   ar
    15    15    16    1
    16    16    17    2
    17    16    18    1
    18    15    19   ar
    19    11    19   ar
    20     5    20   ar
    21    20    21   ar
    22     2    21   ar
    23     1    22    1
    24     1    23    1
    25     1    24    1
    26     6    25    1
    27     6    26    1
    28     8    27    1
    29     3    28    1
    30     4    29    1
    31    12    30    1
    32    13    31    1
    33    14    32    1
    34    18    33    1
    35    19    34    1
    36    20    35    1
    37    21    36    1
@<TRIPOS>MOLECULE
mol39_1_7
 36 37 0 0 0
SMALL
USER_CHARGES
****
VDW energy = 154.87
@<TRIPOS>ATOM
   1 C1        2.8832    -9.8059    -4.4252  C.3     1  <O>11      -0.0397
   2 C2        1.4617   -10.1611    -4.6036  C.ar    1  <O>11      -0.0504
   3 C3        0.8050   -10.8783    -3.6012  C.ar    1  <O>11      -0.0585
   4 C4       -0.5391   -11.2290    -3.7692  C.ar    1  <O>11      -0.0561
   5 C5       -1.2224   -10.8607    -4.9311  C.ar    1  <O>11      -0.0196
   6 C6       -2.6400   -11.2300    -5.1160  C.3     1  <O>11       0.0983
   7 O1       -3.4162   -10.6605    -4.0747  O.3     1  <O>11      -0.2749
   8 N1       -4.3548    -9.7631    -4.6245  N.am    1  <O>11      -0.1902
   9 C7       -4.3214    -8.4408    -4.2764  C.2     1  <O>11       0.2668
  10 O2       -5.1356    -7.6633    -4.7538  O.2     1  <O>11      -0.2681
  11 C8       -3.3157    -7.9584    -3.3388  C.ar    1  <O>11       0.0408
  12 C9       -2.0722    -7.4993    -3.8070  C.ar    1  <O>11      -0.0494
  13 C10      -1.1040    -7.0456    -2.9054  C.ar    1  <O>11      -0.0589
  14 C11      -1.3668    -7.0437    -1.5320  C.ar    1  <O>11      -0.0316
  15 C12      -2.6068    -7.4943    -1.0675  C.ar    1  <O>11       0.1223
  16 N2       -2.8740    -7.4888     0.3480  N.4     1  <O>11       0.0060
  17 O3       -2.1350    -6.4126     0.9758  O.2     1  <O>11      -0.1300
  18 O4       -2.4645    -8.7571     0.9196  O.2     1  <O>11      -0.3961
  19 C13      -3.5800    -7.9463    -1.9593  C.ar    1  <O>11      -0.0195
  20 C14      -0.5527   -10.1366    -5.9237  C.ar    1  <O>11      -0.0561
  21 C15       0.7874    -9.7806    -5.7650  C.ar    1  <O>11      -0.0585
  22 H1        3.2314    -9.2521    -5.2971  H       1  <O>11       0.0278
  23 H2        3.4736   -10.7152    -4.3128  H       1  <O>11       0.0278
  24 H3        2.9942    -9.1880    -3.5342  H       1  <O>11       0.0278
  25 H4       -2.7378   -12.3156    -5.0913  H       1  <O>11       0.0634
  26 H5       -2.9906   -10.8553    -6.0774  H       1  <O>11       0.0634
  27 H6       -5.0592   -10.1011    -5.2820  H       1  <O>11       0.1828
  28 H7        1.3082   -11.1481    -2.7415  H       1  <O>11       0.0620
  29 H8       -1.0275   -11.7615    -3.0324  H       1  <O>11       0.0621
  30 H9       -1.8730    -7.4971    -4.8196  H       1  <O>11       0.0625
  31 H10      -0.1924    -6.7111    -3.2549  H       1  <O>11       0.0618
  32 H11      -0.6513    -6.7124    -0.8662  H       1  <O>11       0.0640
  33 H12      -2.8530    -9.5544     0.6174  H       1  <O>11       0.3292
  34 H13      -4.4933    -8.2716    -1.6057  H       1  <O>11       0.0648
  35 H14      -1.0552    -9.8628    -6.7825  H       1  <O>11       0.0621
  36 H15       1.2744    -9.2420    -6.4983  H       1  <O>11       0.0620
@<TRIPOS>BOND
     1     1     2    1
     2     2     3   ar
     3     3     4   ar
     4     4     5   ar
     5     5     6    1
     6     6     7    1
     7     7     8    1
     8     8     9   am
     9     9    10    2
    10     9    11    1
    11    11    12   ar
    12    12    13   ar
    13    13    14   ar
    14    14    15   ar
    15    15    16    1
    16    16    17    2
    17    16    18    1
    18    15    19   ar
    19    11    19   ar
    20     5    20   ar
    21    20    21   ar
    22     2    21   ar
    23     1    22    1
    24     1    23    1
    25     1    24    1
    26     6    25    1
    27     6    26    1
    28     8    27    1
    29     3    28    1
    30     4    29    1
    31    12    30    1
    32    13    31    1
    33    14    32    1
    34    18    33    1
    35    19    34    1
    36    20    35    1
    37    21    36    1
@<TRIPOS>MOLECULE
mol39_1_8
 36 37 0 0 0
SMALL
USER_CHARGES
****
VDW energy = 155.12
@<TRIPOS>ATOM
   1 C1        2.8832    -9.8059    -4.4252  C.3     1  <O>11      -0.0397
   2 C2        1.4617   -10.1611    -4.6036  C.ar    1  <O>11      -0.0504
   3 C3        0.8050   -10.8783    -3.6012  C.ar    1  <O>11      -0.0585
   4 C4       -0.5391   -11.2290    -3.7692  C.ar    1  <O>11      -0.0561
   5 C5       -1.2224   -10.8607    -4.9311  C.ar    1  <O>11      -0.0196
   6 C6       -2.6400   -11.2300    -5.1160  C.3     1  <O>11       0.0983
   7 O1       -3.4675   -10.2042    -4.5926  O.3     1  <O>11      -0.2749
   8 N1       -4.2513    -9.6572    -5.6294  N.am    1  <O>11      -0.1902
   9 C7       -4.1309    -8.3333    -5.9517  C.2     1  <O>11       0.2668
  10 O2       -4.8108    -7.8599    -6.8510  O.2     1  <O>11      -0.2681
  11 C8       -3.1922    -7.4881    -5.2253  C.ar    1  <O>11       0.0408
  12 C9       -3.5963    -6.8236    -4.0543  C.ar    1  <O>11      -0.0494
  13 C10      -2.6972    -6.0047    -3.3633  C.ar    1  <O>11      -0.0589
  14 C11      -1.3896    -5.8427    -3.8314  C.ar    1  <O>11      -0.0316
  15 C12      -0.9865    -6.5096    -4.9930  C.ar    1  <O>11       0.1223
  16 N2        0.3621    -6.3414    -5.4706  N.4     1  <O>11       0.0060
  17 O3        1.2951    -6.6856    -4.4173  O.2     1  <O>11      -0.1300
  18 O4        0.5636    -4.9607    -5.8658  O.2     1  <O>11      -0.3961
  19 C13      -1.8752    -7.3307    -5.6877  C.ar    1  <O>11      -0.0195
  20 C14      -0.5527   -10.1366    -5.9237  C.ar    1  <O>11      -0.0561
  21 C15       0.7874    -9.7806    -5.7650  C.ar    1  <O>11      -0.0585
  22 H1        3.2314    -9.2521    -5.2971  H       1  <O>11       0.0278
  23 H2        3.4736   -10.7152    -4.3128  H       1  <O>11       0.0278
  24 H3        2.9942    -9.1880    -3.5342  H       1  <O>11       0.0278
  25 H4       -2.8424   -12.1643    -4.5918  H       1  <O>11       0.0634
  26 H5       -2.8467   -11.3573    -6.1784  H       1  <O>11       0.0634
  27 H6       -4.9087   -10.2496    -6.1388  H       1  <O>11       0.1828
  28 H7        1.3082   -11.1481    -2.7415  H       1  <O>11       0.0620
  29 H8       -1.0275   -11.7615    -3.0324  H       1  <O>11       0.0621
  30 H9       -4.5596    -6.9404    -3.7032  H       1  <O>11       0.0625
  31 H10      -3.0000    -5.5184    -2.5049  H       1  <O>11       0.0618
  32 H11      -0.7271    -5.2358    -3.3238  H       1  <O>11       0.0640
  33 H12       0.0340    -4.5846    -6.5411  H       1  <O>11       0.3292
  34 H13      -1.5652    -7.8220    -6.5407  H       1  <O>11       0.0648
  35 H14      -1.0552    -9.8628    -6.7825  H       1  <O>11       0.0621
  36 H15       1.2744    -9.2420    -6.4983  H       1  <O>11       0.0620
@<TRIPOS>BOND
     1     1     2    1
     2     2     3   ar
     3     3     4   ar
     4     4     5   ar
     5     5     6    1
     6     6     7    1
     7     7     8    1
     8     8     9   am
     9     9    10    2
    10     9    11    1
    11    11    12   ar
    12    12    13   ar
    13    13    14   ar
    14    14    15   ar
    15    15    16    1
    16    16    17    2
    17    16    18    1
    18    15    19   ar
    19    11    19   ar
    20     5    20   ar
    21    20    21   ar
    22     2    21   ar
    23     1    22    1
    24     1    23    1
    25     1    24    1
    26     6    25    1
    27     6    26    1
    28     8    27    1
    29     3    28    1
    30     4    29    1
    31    12    30    1
    32    13    31    1
    33    14    32    1
    34    18    33    1
    35    19    34    1
    36    20    35    1
    37    21    36    1
@<TRIPOS>MOLECULE
mol39_1_9
 36 37 0 0 0
SMALL
USER_CHARGES
****
VDW energy = 155.95
@<TRIPOS>ATOM
   1 C1        2.8832    -9.8059    -4.4252  C.3     1  <O>11      -0.0397
   2 C2        1.4617   -10.1611    -4.6036  C.ar    1  <O>11      -0.0504
   3 C3        0.8050   -10.8783    -3.6012  C.ar    1  <O>11      -0.0585
   4 C4       -0.5391   -11.2290    -3.7692  C.ar    1  <O>11      -0.0561
   5 C5       -1.2224   -10.8607    -4.9311  C.ar    1  <O>11      -0.0196
   6 C6       -2.6400   -11.2300    -5.1160  C.3     1  <O>11       0.0983
   7 O1       -3.4675   -10.2042    -4.5926  O.3     1  <O>11      -0.2749
   8 N1       -3.2001   -10.0396    -3.2178  N.am    1  <O>11      -0.1902
   9 C7       -3.0143    -8.7861    -2.7029  C.2     1  <O>11       0.2668
  10 O2       -2.7826    -8.6444    -1.5106  O.2     1  <O>11      -0.2681
  11 C8       -3.0938    -7.6205    -3.5736  C.ar    1  <O>11       0.0408
  12 C9       -1.9475    -7.1545    -4.2408  C.ar    1  <O>11      -0.0494
  13 C10      -2.0228    -6.0297    -5.0687  C.ar    1  <O>11      -0.0589
  14 C11      -3.2393    -5.3619    -5.2400  C.ar    1  <O>11      -0.0316
  15 C12      -4.3808    -5.8302    -4.5811  C.ar    1  <O>11       0.1223
  16 N2       -5.6324    -5.1403    -4.7619  N.4     1  <O>11       0.0060
  17 O3       -5.9403    -5.0588    -6.1751  O.2     1  <O>11      -0.1300
  18 O4       -5.5287    -3.8034    -4.2096  O.2     1  <O>11      -0.3961
  19 C13      -4.3162    -6.9529    -3.7553  C.ar    1  <O>11      -0.0195
  20 C14      -0.5527   -10.1366    -5.9237  C.ar    1  <O>11      -0.0561
  21 C15       0.7874    -9.7806    -5.7650  C.ar    1  <O>11      -0.0585
  22 H1        3.2314    -9.2521    -5.2971  H       1  <O>11       0.0278
  23 H2        3.4736   -10.7152    -4.3128  H       1  <O>11       0.0278
  24 H3        2.9942    -9.1880    -3.5342  H       1  <O>11       0.0278
  25 H4       -2.8424   -12.1643    -4.5918  H       1  <O>11       0.0634
  26 H5       -2.8467   -11.3573    -6.1784  H       1  <O>11       0.0634
  27 H6       -3.1451   -10.8564    -2.6075  H       1  <O>11       0.1828
  28 H7        1.3082   -11.1481    -2.7415  H       1  <O>11       0.0620
  29 H8       -1.0275   -11.7615    -3.0324  H       1  <O>11       0.0621
  30 H9       -1.0472    -7.6441    -4.1193  H       1  <O>11       0.0625
  31 H10      -1.1777    -5.6915    -5.5548  H       1  <O>11       0.0618
  32 H11      -3.2946    -4.5298    -5.8479  H       1  <O>11       0.0640
  33 H12      -5.3328    -3.6858    -3.3009  H       1  <O>11       0.3292
  34 H13      -5.1659    -7.2927    -3.2782  H       1  <O>11       0.0648
  35 H14      -1.0552    -9.8628    -6.7825  H       1  <O>11       0.0621
  36 H15       1.2744    -9.2420    -6.4983  H       1  <O>11       0.0620
@<TRIPOS>BOND
     1     1     2    1
     2     2     3   ar
     3     3     4   ar
     4     4     5   ar
     5     5     6    1
     6     6     7    1
     7     7     8    1
     8     8     9   am
     9     9    10    2
    10     9    11    1
    11    11    12   ar
    12    12    13   ar
    13    13    14   ar
    14    14    15   ar
    15    15    16    1
    16    16    17    2
    17    16    18    1
    18    15    19   ar
    19    11    19   ar
    20     5    20   ar
    21    20    21   ar
    22     2    21   ar
    23     1    22    1
    24     1    23    1
    25     1    24    1
    26     6    25    1
    27     6    26    1
    28     8    27    1
    29     3    28    1
    30     4    29    1
    31    12    30    1
    32    13    31    1
    33    14    32    1
    34    18    33    1
    35    19    34    1
    36    20    35    1
    37    21    36    1
@<TRIPOS>MOLECULE
mol39_1_10
 36 37 0 0 0
SMALL
USER_CHARGES
****
VDW energy = 156.79
@<TRIPOS>ATOM
   1 C1        2.8832    -9.8059    -4.4252  C.3     1  <O>11      -0.0397
   2 C2        1.4617   -10.1611    -4.6036  C.ar    1  <O>11      -0.0504
   3 C3        0.8050   -10.8783    -3.6012  C.ar    1  <O>11      -0.0585
   4 C4       -0.5391   -11.2290    -3.7692  C.ar    1  <O>11      -0.0561
   5 C5       -1.2224   -10.8607    -4.9311  C.ar    1  <O>11      -0.0196
   6 C6       -2.6400   -11.2300    -5.1160  C.3     1  <O>11       0.0983
   7 O1       -3.4675   -10.2042    -4.5926  O.3     1  <O>11      -0.2749
   8 N1       -4.2513    -9.6572    -5.6294  N.am    1  <O>11      -0.1902
   9 C7       -5.5933    -9.4678    -5.4446  C.2     1  <O>11       0.2668
  10 O2       -6.2722    -8.9932    -6.3442  O.2     1  <O>11      -0.2681
  11 C8       -6.2135    -9.8295    -4.1766  C.ar    1  <O>11       0.0408
  12 C9       -6.7072   -11.1302    -3.9745  C.ar    1  <O>11      -0.0494
  13 C10      -7.3111   -11.4735    -2.7605  C.ar    1  <O>11      -0.0589
  14 C11      -7.4262   -10.5260    -1.7387  C.ar    1  <O>11      -0.0316
  15 C12      -6.9286    -9.2340    -1.9383  C.ar    1  <O>11       0.1223
  16 N2       -7.0477    -8.2616    -0.8821  N.4     1  <O>11       0.0060
  17 O3       -7.1579    -6.9358    -1.4552  O.2     1  <O>11      -0.1300
  18 O4       -5.8739    -8.3277    -0.0331  O.2     1  <O>11      -0.3961
  19 C13      -6.3223    -8.8828    -3.1448  C.ar    1  <O>11      -0.0195
  20 C14      -0.5527   -10.1366    -5.9237  C.ar    1  <O>11      -0.0561
  21 C15       0.7874    -9.7806    -5.7650  C.ar    1  <O>11      -0.0585
  22 H1        3.2314    -9.2521    -5.2971  H       1  <O>11       0.0278
  23 H2        3.4736   -10.7152    -4.3128  H       1  <O>11       0.0278
  24 H3        2.9942    -9.1880    -3.5342  H       1  <O>11       0.0278
  25 H4       -2.8424   -12.1643    -4.5918  H       1  <O>11       0.0634
  26 H5       -2.8467   -11.3573    -6.1784  H       1  <O>11       0.0634
  27 H6       -3.8167    -9.4031    -6.5178  H       1  <O>11       0.1828
  28 H7        1.3082   -11.1481    -2.7415  H       1  <O>11       0.0620
  29 H8       -1.0275   -11.7615    -3.0324  H       1  <O>11       0.0621
  30 H9       -6.6238   -11.8341    -4.7245  H       1  <O>11       0.0625
  31 H10      -7.6729   -12.4295    -2.6185  H       1  <O>11       0.0618
  32 H11      -7.8749   -10.7779    -0.8442  H       1  <O>11       0.0640
  33 H12      -5.6626    -9.1242     0.4131  H       1  <O>11       0.3292
  34 H13      -5.9540    -7.9281    -3.2789  H       1  <O>11       0.0648
  35 H14      -1.0552    -9.8628    -6.7825  H       1  <O>11       0.0621
  36 H15       1.2744    -9.2420    -6.4983  H       1  <O>11       0.0620
@<TRIPOS>BOND
     1     1     2    1
     2     2     3   ar
     3     3     4   ar
     4     4     5   ar
     5     5     6    1
     6     6     7    1
     7     7     8    1
     8     8     9   am
     9     9    10    2
    10     9    11    1
    11    11    12   ar
    12    12    13   ar
    13    13    14   ar
    14    14    15   ar
    15    15    16    1
    16    16    17    2
    17    16    18    1
    18    15    19   ar
    19    11    19   ar
    20     5    20   ar
    21    20    21   ar
    22     2    21   ar
    23     1    22    1
    24     1    23    1
    25     1    24    1
    26     6    25    1
    27     6    26    1
    28     8    27    1
    29     3    28    1
    30     4    29    1
    31    12    30    1
    32    13    31    1
    33    14    32    1
    34    18    33    1
    35    19    34    1
    36    20    35    1
    37    21    36    1
@<TRIPOS>MOLECULE
mol39_1_11
 36 37 0 0 0
SMALL
USER_CHARGES
****
VDW energy = 157.58
@<TRIPOS>ATOM
   1 C1        2.8832    -9.8059    -4.4252  C.3     1  <O>11      -0.0397
   2 C2        1.4617   -10.1611    -4.6036  C.ar    1  <O>11      -0.0504
   3 C3        0.8050   -10.8783    -3.6012  C.ar    1  <O>11      -0.0585
   4 C4       -0.5391   -11.2290    -3.7692  C.ar    1  <O>11      -0.0561
   5 C5       -1.2224   -10.8607    -4.9311  C.ar    1  <O>11      -0.0196
   6 C6       -2.6400   -11.2300    -5.1160  C.3     1  <O>11       0.0983
   7 O1       -3.4675   -10.2042    -4.5926  O.3     1  <O>11      -0.2749
   8 N1       -4.2513    -9.6572    -5.6294  N.am    1  <O>11      -0.1902
   9 C7       -5.5933    -9.4678    -5.4446  C.2     1  <O>11       0.2668
  10 O2       -6.2722    -8.9932    -6.3442  O.2     1  <O>11      -0.2681
  11 C8       -6.2135    -9.8295    -4.1766  C.ar    1  <O>11       0.0408
  12 C9       -6.2991    -8.8888    -3.1355  C.ar    1  <O>11      -0.0494
  13 C10      -6.8858    -9.2402    -1.9154  C.ar    1  <O>11      -0.0589
  14 C11      -7.3929   -10.5290    -1.7233  C.ar    1  <O>11      -0.0316
  15 C12      -7.3133   -11.4623    -2.7621  C.ar    1  <O>11       0.1223
  16 N2       -7.8387   -12.7883    -2.5605  N.4     1  <O>11       0.0060
  17 O3       -7.0864   -13.7337    -3.3597  O.2     1  <O>11      -0.1300
  18 O4       -9.2332   -12.8185    -2.9572  O.2     1  <O>11      -0.3961
  19 C13      -6.7322   -11.1205    -3.9837  C.ar    1  <O>11      -0.0195
  20 C14      -0.5527   -10.1366    -5.9237  C.ar    1  <O>11      -0.0561
  21 C15       0.7874    -9.7806    -5.7650  C.ar    1  <O>11      -0.0585
  22 H1        3.2314    -9.2521    -5.2971  H       1  <O>11       0.0278
  23 H2        3.4736   -10.7152    -4.3128  H       1  <O>11       0.0278
  24 H3        2.9942    -9.1880    -3.5342  H       1  <O>11       0.0278
  25 H4       -2.8424   -12.1643    -4.5918  H       1  <O>11       0.0634
  26 H5       -2.8467   -11.3573    -6.1784  H       1  <O>11       0.0634
  27 H6       -3.8167    -9.4031    -6.5178  H       1  <O>11       0.1828
  28 H7        1.3082   -11.1481    -2.7415  H       1  <O>11       0.0620
  29 H8       -1.0275   -11.7615    -3.0324  H       1  <O>11       0.0621
  30 H9       -5.9278    -7.9357    -3.2719  H       1  <O>11       0.0625
  31 H10      -6.9446    -8.5457    -1.1542  H       1  <O>11       0.0618
  32 H11      -7.8226   -10.7897    -0.8220  H       1  <O>11       0.0640
  33 H12      -9.8537   -12.2602    -2.5314  H       1  <O>11       0.3292
  34 H13      -6.6837   -11.8156    -4.7449  H       1  <O>11       0.0648
  35 H14      -1.0552    -9.8628    -6.7825  H       1  <O>11       0.0621
  36 H15       1.2744    -9.2420    -6.4983  H       1  <O>11       0.0620
@<TRIPOS>BOND
     1     1     2    1
     2     2     3   ar
     3     3     4   ar
     4     4     5   ar
     5     5     6    1
     6     6     7    1
     7     7     8    1
     8     8     9   am
     9     9    10    2
    10     9    11    1
    11    11    12   ar
    12    12    13   ar
    13    13    14   ar
    14    14    15   ar
    15    15    16    1
    16    16    17    2
    17    16    18    1
    18    15    19   ar
    19    11    19   ar
    20     5    20   ar
    21    20    21   ar
    22     2    21   ar
    23     1    22    1
    24     1    23    1
    25     1    24    1
    26     6    25    1
    27     6    26    1
    28     8    27    1
    29     3    28    1
    30     4    29    1
    31    12    30    1
    32    13    31    1
    33    14    32    1
    34    18    33    1
    35    19    34    1
    36    20    35    1
    37    21    36    1
@<TRIPOS>MOLECULE
mol39_1_12
 36 37 0 0 0
SMALL
USER_CHARGES
****
VDW energy = 159.64
@<TRIPOS>ATOM
   1 C1        2.8832    -9.8059    -4.4252  C.3     1  <O>11      -0.0397
   2 C2        1.4617   -10.1611    -4.6036  C.ar    1  <O>11      -0.0504
   3 C3        0.8050   -10.8783    -3.6012  C.ar    1  <O>11      -0.0585
   4 C4       -0.5391   -11.2290    -3.7692  C.ar    1  <O>11      -0.0561
   5 C5       -1.2224   -10.8607    -4.9311  C.ar    1  <O>11      -0.0196
   6 C6       -2.6400   -11.2300    -5.1160  C.3     1  <O>11       0.0983
   7 O1       -3.4675   -10.2042    -4.5926  O.3     1  <O>11      -0.2749
   8 N1       -4.2513    -9.6572    -5.6294  N.am    1  <O>11      -0.1902
   9 C7       -4.1309    -8.3333    -5.9517  C.2     1  <O>11       0.2668
  10 O2       -4.8108    -7.8599    -6.8510  O.2     1  <O>11      -0.2681
  11 C8       -3.1922    -7.4881    -5.2253  C.ar    1  <O>11       0.0408
  12 C9       -3.0371    -7.6325    -3.8356  C.ar    1  <O>11      -0.0494
  13 C10      -2.1429    -6.8139    -3.1379  C.ar    1  <O>11      -0.0589
  14 C11      -1.3956    -5.8475    -3.8182  C.ar    1  <O>11      -0.0316
  15 C12      -1.5456    -5.7091    -5.2020  C.ar    1  <O>11       0.1223
  16 N2       -0.7723    -4.7135    -5.8990  N.4     1  <O>11       0.0060
  17 O3        0.6358    -4.9154    -5.6253  O.2     1  <O>11      -0.1300
  18 O4       -1.1701    -3.3936    -5.4489  O.2     1  <O>11      -0.3961
  19 C13      -2.4331    -6.5227    -5.9070  C.ar    1  <O>11      -0.0195
  20 C14      -0.5527   -10.1366    -5.9237  C.ar    1  <O>11      -0.0561
  21 C15       0.7874    -9.7806    -5.7650  C.ar    1  <O>11      -0.0585
  22 H1        3.2314    -9.2521    -5.2971  H       1  <O>11       0.0278
  23 H2        3.4736   -10.7152    -4.3128  H       1  <O>11       0.0278
  24 H3        2.9942    -9.1880    -3.5342  H       1  <O>11       0.0278
  25 H4       -2.8424   -12.1643    -4.5918  H       1  <O>11       0.0634
  26 H5       -2.8467   -11.3573    -6.1784  H       1  <O>11       0.0634
  27 H6       -4.9087   -10.2496    -6.1388  H       1  <O>11       0.1828
  28 H7        1.3082   -11.1481    -2.7415  H       1  <O>11       0.0620
  29 H8       -1.0275   -11.7615    -3.0324  H       1  <O>11       0.0621
  30 H9       -3.5849    -8.3449    -3.3283  H       1  <O>11       0.0625
  31 H10      -2.0343    -6.9236    -2.1175  H       1  <O>11       0.0618
  32 H11      -0.7384    -5.2410    -3.3032  H       1  <O>11       0.0640
  33 H12      -2.0567    -3.1096    -5.5557  H       1  <O>11       0.3292
  34 H13      -2.5317    -6.4152    -6.9287  H       1  <O>11       0.0648
  35 H14      -1.0552    -9.8628    -6.7825  H       1  <O>11       0.0621
  36 H15       1.2744    -9.2420    -6.4983  H       1  <O>11       0.0620
@<TRIPOS>BOND
     1     1     2    1
     2     2     3   ar
     3     3     4   ar
     4     4     5   ar
     5     5     6    1
     6     6     7    1
     7     7     8    1
     8     8     9   am
     9     9    10    2
    10     9    11    1
    11    11    12   ar
    12    12    13   ar
    13    13    14   ar
    14    14    15   ar
    15    15    16    1
    16    16    17    2
    17    16    18    1
    18    15    19   ar
    19    11    19   ar
    20     5    20   ar
    21    20    21   ar
    22     2    21   ar
    23     1    22    1
    24     1    23    1
    25     1    24    1
    26     6    25    1
    27     6    26    1
    28     8    27    1
    29     3    28    1
    30     4    29    1
    31    12    30    1
    32    13    31    1
    33    14    32    1
    34    18    33    1
    35    19    34    1
    36    20    35    1
    37    21    36    1
@<TRIPOS>MOLECULE
mol39_1_13
 36 37 0 0 0
SMALL
USER_CHARGES
****
VDW energy = 162.19
@<TRIPOS>ATOM
   1 C1        2.8832    -9.8059    -4.4252  C.3     1  <O>11      -0.0397
   2 C2        1.4617   -10.1611    -4.6036  C.ar    1  <O>11      -0.0504
   3 C3        0.8050   -10.8783    -3.6012  C.ar    1  <O>11      -0.0585
   4 C4       -0.5391   -11.2290    -3.7692  C.ar    1  <O>11      -0.0561
   5 C5       -1.2224   -10.8607    -4.9311  C.ar    1  <O>11      -0.0196
   6 C6       -2.6400   -11.2300    -5.1160  C.3     1  <O>11       0.0983
   7 O1       -2.7195   -12.4921    -5.7577  O.3     1  <O>11      -0.2749
   8 N1       -4.0732   -12.8454    -5.9346  N.am    1  <O>11      -0.1902
   9 C7       -4.5669   -13.9770    -5.3458  C.2     1  <O>11       0.2668
  10 O2       -5.7409   -14.2825    -5.4996  O.2     1  <O>11      -0.2681
  11 C8       -3.6953   -14.8171    -4.5347  C.ar    1  <O>11       0.0408
  12 C9       -2.7489   -14.2340    -3.6741  C.ar    1  <O>11      -0.0494
  13 C10      -1.9062   -15.0414    -2.9033  C.ar    1  <O>11      -0.0589
  14 C11      -2.0004   -16.4343    -2.9819  C.ar    1  <O>11      -0.0316
  15 C12      -2.9469   -17.0135    -3.8334  C.ar    1  <O>11       0.1223
  16 N2       -3.0418   -18.4489    -3.9097  N.4     1  <O>11       0.0060
  17 O3       -3.2506   -18.9914    -2.5829  O.2     1  <O>11      -0.1300
  18 O4       -1.8133   -18.9832    -4.4650  O.2     1  <O>11      -0.3961
  19 C13      -3.7937   -16.2165    -4.6043  C.ar    1  <O>11      -0.0195
  20 C14      -0.5527   -10.1366    -5.9237  C.ar    1  <O>11      -0.0561
  21 C15       0.7874    -9.7806    -5.7650  C.ar    1  <O>11      -0.0585
  22 H1        3.2314    -9.2521    -5.2971  H       1  <O>11       0.0278
  23 H2        3.4736   -10.7152    -4.3128  H       1  <O>11       0.0278
  24 H3        2.9942    -9.1880    -3.5342  H       1  <O>11       0.0278
  25 H4       -3.1334   -10.4770    -5.7310  H       1  <O>11       0.0634
  26 H5       -3.1309   -11.2845    -4.1446  H       1  <O>11       0.0634
  27 H6       -4.6841   -12.2564    -6.5025  H       1  <O>11       0.1828
  28 H7        1.3082   -11.1481    -2.7415  H       1  <O>11       0.0620
  29 H8       -1.0275   -11.7615    -3.0324  H       1  <O>11       0.0621
  30 H9       -2.6757   -13.2065    -3.6109  H       1  <O>11       0.0625
  31 H10      -1.2124   -14.6076    -2.2744  H       1  <O>11       0.0618
  32 H11      -1.3763   -17.0304    -2.4160  H       1  <O>11       0.0640
  33 H12      -1.5365   -18.7270    -5.3228  H       1  <O>11       0.3292
  34 H13      -4.4919   -16.6548    -5.2251  H       1  <O>11       0.0648
  35 H14      -1.0552    -9.8628    -6.7825  H       1  <O>11       0.0621
  36 H15       1.2744    -9.2420    -6.4983  H       1  <O>11       0.0620
@<TRIPOS>BOND
     1     1     2    1
     2     2     3   ar
     3     3     4   ar
     4     4     5   ar
     5     5     6    1
     6     6     7    1
     7     7     8    1
     8     8     9   am
     9     9    10    2
    10     9    11    1
    11    11    12   ar
    12    12    13   ar
    13    13    14   ar
    14    14    15   ar
    15    15    16    1
    16    16    17    2
    17    16    18    1
    18    15    19   ar
    19    11    19   ar
    20     5    20   ar
    21    20    21   ar
    22     2    21   ar
    23     1    22    1
    24     1    23    1
    25     1    24    1
    26     6    25    1
    27     6    26    1
    28     8    27    1
    29     3    28    1
    30     4    29    1
    31    12    30    1
    32    13    31    1
    33    14    32    1
    34    18    33    1
    35    19    34    1
    36    20    35    1
    37    21    36    1
@<TRIPOS>MOLECULE
mol39_1_14
 36 37 0 0 0
SMALL
USER_CHARGES
****
VDW energy = 163.05
@<TRIPOS>ATOM
   1 C1        2.8832    -9.8059    -4.4252  C.3     1  <O>11      -0.0397
   2 C2        1.4617   -10.1611    -4.6036  C.ar    1  <O>11      -0.0504
   3 C3        0.8050   -10.8783    -3.6012  C.ar    1  <O>11      -0.0585
   4 C4       -0.5391   -11.2290    -3.7692  C.ar    1  <O>11      -0.0561
   5 C5       -1.2224   -10.8607    -4.9311  C.ar    1  <O>11      -0.0196
   6 C6       -2.6400   -11.2300    -5.1160  C.3     1  <O>11       0.0983
   7 O1       -3.4162   -10.6605    -4.0747  O.3     1  <O>11      -0.2749
   8 N1       -4.3548    -9.7631    -4.6245  N.am    1  <O>11      -0.1902
   9 C7       -4.3214    -8.4408    -4.2764  C.2     1  <O>11       0.2668
  10 O2       -5.1356    -7.6633    -4.7538  O.2     1  <O>11      -0.2681
  11 C8       -3.3157    -7.9584    -3.3388  C.ar    1  <O>11       0.0408
  12 C9       -2.0722    -7.4993    -3.8070  C.ar    1  <O>11      -0.0494
  13 C10      -1.1040    -7.0456    -2.9054  C.ar    1  <O>11      -0.0589
  14 C11      -1.3668    -7.0437    -1.5320  C.ar    1  <O>11      -0.0316
  15 C12      -2.6068    -7.4943    -1.0675  C.ar    1  <O>11       0.1223
  16 N2       -2.8740    -7.4888     0.3480  N.4     1  <O>11       0.0060
  17 O3       -1.9086    -8.3295     1.0260  O.2     1  <O>11      -0.1300
  18 O4       -4.2117    -7.9953     0.5869  O.2     1  <O>11      -0.3961
  19 C13      -3.5800    -7.9463    -1.9593  C.ar    1  <O>11      -0.0195
  20 C14      -0.5527   -10.1366    -5.9237  C.ar    1  <O>11      -0.0561
  21 C15       0.7874    -9.7806    -5.7650  C.ar    1  <O>11      -0.0585
  22 H1        3.2314    -9.2521    -5.2971  H       1  <O>11       0.0278
  23 H2        3.4736   -10.7152    -4.3128  H       1  <O>11       0.0278
  24 H3        2.9942    -9.1880    -3.5342  H       1  <O>11       0.0278
  25 H4       -2.7378   -12.3156    -5.0913  H       1  <O>11       0.0634
  26 H5       -2.9906   -10.8553    -6.0774  H       1  <O>11       0.0634
  27 H6       -5.0592   -10.1011    -5.2820  H       1  <O>11       0.1828
  28 H7        1.3082   -11.1481    -2.7415  H       1  <O>11       0.0620
  29 H8       -1.0275   -11.7615    -3.0324  H       1  <O>11       0.0621
  30 H9       -1.8730    -7.4971    -4.8196  H       1  <O>11       0.0625
  31 H10      -0.1924    -6.7111    -3.2549  H       1  <O>11       0.0618
  32 H11      -0.6513    -6.7124    -0.8662  H       1  <O>11       0.0640
  33 H12      -4.9517    -7.5584     0.2135  H       1  <O>11       0.3292
  34 H13      -4.4933    -8.2716    -1.6057  H       1  <O>11       0.0648
  35 H14      -1.0552    -9.8628    -6.7825  H       1  <O>11       0.0621
  36 H15       1.2744    -9.2420    -6.4983  H       1  <O>11       0.0620
@<TRIPOS>BOND
     1     1     2    1
     2     2     3   ar
     3     3     4   ar
     4     4     5   ar
     5     5     6    1
     6     6     7    1
     7     7     8    1
     8     8     9   am
     9     9    10    2
    10     9    11    1
    11    11    12   ar
    12    12    13   ar
    13    13    14   ar
    14    14    15   ar
    15    15    16    1
    16    16    17    2
    17    16    18    1
    18    15    19   ar
    19    11    19   ar
    20     5    20   ar
    21    20    21   ar
    22     2    21   ar
    23     1    22    1
    24     1    23    1
    25     1    24    1
    26     6    25    1
    27     6    26    1
    28     8    27    1
    29     3    28    1
    30     4    29    1
    31    12    30    1
    32    13    31    1
    33    14    32    1
    34    18    33    1
    35    19    34    1
    36    20    35    1
    37    21    36    1
@<TRIPOS>MOLECULE
mol39_1_15
 36 37 0 0 0
SMALL
USER_CHARGES
****
VDW energy = 163.19
@<TRIPOS>ATOM
   1 C1        2.8832    -9.8059    -4.4252  C.3     1  <O>11      -0.0397
   2 C2        1.4617   -10.1611    -4.6036  C.ar    1  <O>11      -0.0504
   3 C3        0.8050   -10.8783    -3.6012  C.ar    1  <O>11      -0.0585
   4 C4       -0.5391   -11.2290    -3.7692  C.ar    1  <O>11      -0.0561
   5 C5       -1.2224   -10.8607    -4.9311  C.ar    1  <O>11      -0.0196
   6 C6       -2.6400   -11.2300    -5.1160  C.3     1  <O>11       0.0983
   7 O1       -3.4162   -10.6605    -4.0747  O.3     1  <O>11      -0.2749
   8 N1       -4.3548    -9.7631    -4.6245  N.am    1  <O>11      -0.1902
   9 C7       -4.3214    -8.4408    -4.2764  C.2     1  <O>11       0.2668
  10 O2       -5.1356    -7.6633    -4.7538  O.2     1  <O>11      -0.2681
  11 C8       -3.3157    -7.9584    -3.3388  C.ar    1  <O>11       0.0408
  12 C9       -2.9617    -8.7312    -2.2191  C.ar    1  <O>11      -0.0494
  13 C10      -2.0033    -8.2627    -1.3145  C.ar    1  <O>11      -0.0589
  14 C11      -1.3893    -7.0231    -1.5185  C.ar    1  <O>11      -0.0316
  15 C12      -1.7373    -6.2579    -2.6364  C.ar    1  <O>11       0.1223
  16 N2       -1.1008    -4.9823    -2.8437  N.4     1  <O>11       0.0060
  17 O3        0.2368    -5.0130    -2.2884  O.2     1  <O>11      -0.1300
  18 O4       -1.8752    -3.9463    -2.1879  O.2     1  <O>11      -0.3961
  19 C13      -2.6902    -6.7178    -3.5458  C.ar    1  <O>11      -0.0195
  20 C14      -0.5527   -10.1366    -5.9237  C.ar    1  <O>11      -0.0561
  21 C15       0.7874    -9.7806    -5.7650  C.ar    1  <O>11      -0.0585
  22 H1        3.2314    -9.2521    -5.2971  H       1  <O>11       0.0278
  23 H2        3.4736   -10.7152    -4.3128  H       1  <O>11       0.0278
  24 H3        2.9942    -9.1880    -3.5342  H       1  <O>11       0.0278
  25 H4       -2.7378   -12.3156    -5.0913  H       1  <O>11       0.0634
  26 H5       -2.9906   -10.8553    -6.0774  H       1  <O>11       0.0634
  27 H6       -5.0592   -10.1011    -5.2820  H       1  <O>11       0.1828
  28 H7        1.3082   -11.1481    -2.7415  H       1  <O>11       0.0620
  29 H8       -1.0275   -11.7615    -3.0324  H       1  <O>11       0.0621
  30 H9       -3.4105    -9.6475    -2.0641  H       1  <O>11       0.0625
  31 H10      -1.7485    -8.8339    -0.4936  H       1  <O>11       0.0618
  32 H11      -0.6847    -6.6755    -0.8493  H       1  <O>11       0.0640
  33 H12      -2.7666    -3.7994    -2.4366  H       1  <O>11       0.3292
  34 H13      -2.9353    -6.1471    -4.3699  H       1  <O>11       0.0648
  35 H14      -1.0552    -9.8628    -6.7825  H       1  <O>11       0.0621
  36 H15       1.2744    -9.2420    -6.4983  H       1  <O>11       0.0620
@<TRIPOS>BOND
     1     1     2    1
     2     2     3   ar
     3     3     4   ar
     4     4     5   ar
     5     5     6    1
     6     6     7    1
     7     7     8    1
     8     8     9   am
     9     9    10    2
    10     9    11    1
    11    11    12   ar
    12    12    13   ar
    13    13    14   ar
    14    14    15   ar
    15    15    16    1
    16    16    17    2
    17    16    18    1
    18    15    19   ar
    19    11    19   ar
    20     5    20   ar
    21    20    21   ar
    22     2    21   ar
    23     1    22    1
    24     1    23    1
    25     1    24    1
    26     6    25    1
    27     6    26    1
    28     8    27    1
    29     3    28    1
    30     4    29    1
    31    12    30    1
    32    13    31    1
    33    14    32    1
    34    18    33    1
    35    19    34    1
    36    20    35    1
    37    21    36    1
@<TRIPOS>MOLECULE
mol39_1_16
 36 37 0 0 0
SMALL
USER_CHARGES
****
VDW energy = 163.56
@<TRIPOS>ATOM
   1 C1        2.8832    -9.8059    -4.4252  C.3     1  <O>11      -0.0397
   2 C2        1.4617   -10.1611    -4.6036  C.ar    1  <O>11      -0.0504
   3 C3        0.8050   -10.8783    -3.6012  C.ar    1  <O>11      -0.0585
   4 C4       -0.5391   -11.2290    -3.7692  C.ar    1  <O>11      -0.0561
   5 C5       -1.2224   -10.8607    -4.9311  C.ar    1  <O>11      -0.0196
   6 C6       -2.6400   -11.2300    -5.1160  C.3     1  <O>11       0.0983
   7 O1       -3.4162   -10.6605    -4.0747  O.3     1  <O>11      -0.2749
   8 N1       -4.7702   -11.0129    -4.2507  N.am    1  <O>11      -0.1902
   9 C7       -5.7113   -10.0382    -4.4388  C.2     1  <O>11       0.2668
  10 O2       -6.8852   -10.3446    -4.5915  O.2     1  <O>11      -0.2681
  11 C8       -5.3154    -8.6360    -4.4589  C.ar    1  <O>11       0.0408
  12 C9       -4.9510    -8.0194    -5.6685  C.ar    1  <O>11      -0.0494
  13 C10      -4.5618    -6.6761    -5.6851  C.ar    1  <O>11      -0.0589
  14 C11      -4.5343    -5.9364    -4.4988  C.ar    1  <O>11      -0.0316
  15 C12      -4.9035    -6.5489    -3.2966  C.ar    1  <O>11       0.1223
  16 N2       -4.8756    -5.7826    -2.0772  N.4     1  <O>11       0.0060
  17 O3       -3.5299    -5.3025    -1.8380  O.2     1  <O>11      -0.1300
  18 O4       -5.2953    -6.6222    -0.9718  O.2     1  <O>11      -0.3961
  19 C13      -5.2957    -7.8876    -3.2704  C.ar    1  <O>11      -0.0195
  20 C14      -0.5527   -10.1366    -5.9237  C.ar    1  <O>11      -0.0561
  21 C15       0.7874    -9.7806    -5.7650  C.ar    1  <O>11      -0.0585
  22 H1        3.2314    -9.2521    -5.2971  H       1  <O>11       0.0278
  23 H2        3.4736   -10.7152    -4.3128  H       1  <O>11       0.0278
  24 H3        2.9942    -9.1880    -3.5342  H       1  <O>11       0.0278
  25 H4       -2.7378   -12.3156    -5.0913  H       1  <O>11       0.0634
  26 H5       -2.9906   -10.8553    -6.0774  H       1  <O>11       0.0634
  27 H6       -5.0475   -11.9955    -4.2373  H       1  <O>11       0.1828
  28 H7        1.3082   -11.1481    -2.7415  H       1  <O>11       0.0620
  29 H8       -1.0275   -11.7615    -3.0324  H       1  <O>11       0.0621
  30 H9       -4.9707    -8.5599    -6.5475  H       1  <O>11       0.0625
  31 H10      -4.2941    -6.2293    -6.5760  H       1  <O>11       0.0618
  32 H11      -4.2438    -4.9463    -4.5100  H       1  <O>11       0.0640
  33 H12      -6.1474    -7.0119    -0.9768  H       1  <O>11       0.3292
  34 H13      -5.5711    -8.3276    -2.3785  H       1  <O>11       0.0648
  35 H14      -1.0552    -9.8628    -6.7825  H       1  <O>11       0.0621
  36 H15       1.2744    -9.2420    -6.4983  H       1  <O>11       0.0620
@<TRIPOS>BOND
     1     1     2    1
     2     2     3   ar
     3     3     4   ar
     4     4     5   ar
     5     5     6    1
     6     6     7    1
     7     7     8    1
     8     8     9   am
     9     9    10    2
    10     9    11    1
    11    11    12   ar
    12    12    13   ar
    13    13    14   ar
    14    14    15   ar
    15    15    16    1
    16    16    17    2
    17    16    18    1
    18    15    19   ar
    19    11    19   ar
    20     5    20   ar
    21    20    21   ar
    22     2    21   ar
    23     1    22    1
    24     1    23    1
    25     1    24    1
    26     6    25    1
    27     6    26    1
    28     8    27    1
    29     3    28    1
    30     4    29    1
    31    12    30    1
    32    13    31    1
    33    14    32    1
    34    18    33    1
    35    19    34    1
    36    20    35    1
    37    21    36    1
@<TRIPOS>MOLECULE
mol39_1_17
 36 37 0 0 0
SMALL
USER_CHARGES
****
VDW energy = 164.54
@<TRIPOS>ATOM
   1 C1        2.8832    -9.8059    -4.4252  C.3     1  <O>11      -0.0397
   2 C2        1.4617   -10.1611    -4.6036  C.ar    1  <O>11      -0.0504
   3 C3        0.8050   -10.8783    -3.6012  C.ar    1  <O>11      -0.0585
   4 C4       -0.5391   -11.2290    -3.7692  C.ar    1  <O>11      -0.0561
   5 C5       -1.2224   -10.8607    -4.9311  C.ar    1  <O>11      -0.0196
   6 C6       -2.6400   -11.2300    -5.1160  C.3     1  <O>11       0.0983
   7 O1       -3.4675   -10.2042    -4.5926  O.3     1  <O>11      -0.2749
   8 N1       -4.2513    -9.6572    -5.6294  N.am    1  <O>11      -0.1902
   9 C7       -4.1309    -8.3333    -5.9517  C.2     1  <O>11       0.2668
  10 O2       -4.8108    -7.8599    -6.8510  O.2     1  <O>11      -0.2681
  11 C8       -3.1922    -7.4881    -5.2253  C.ar    1  <O>11       0.0408
  12 C9       -3.5963    -6.8236    -4.0543  C.ar    1  <O>11      -0.0494
  13 C10      -2.6972    -6.0047    -3.3633  C.ar    1  <O>11      -0.0589
  14 C11      -1.3896    -5.8427    -3.8314  C.ar    1  <O>11      -0.0316
  15 C12      -0.9865    -6.5096    -4.9930  C.ar    1  <O>11       0.1223
  16 N2        0.3621    -6.3414    -5.4706  N.4     1  <O>11       0.0060
  17 O3        0.3847    -6.4732    -6.9130  O.2     1  <O>11      -0.1300
  18 O4        1.2125    -7.3550    -4.8770  O.2     1  <O>11      -0.3961
  19 C13      -1.8752    -7.3307    -5.6877  C.ar    1  <O>11      -0.0195
  20 C14      -0.5527   -10.1366    -5.9237  C.ar    1  <O>11      -0.0561
  21 C15       0.7874    -9.7806    -5.7650  C.ar    1  <O>11      -0.0585
  22 H1        3.2314    -9.2521    -5.2971  H       1  <O>11       0.0278
  23 H2        3.4736   -10.7152    -4.3128  H       1  <O>11       0.0278
  24 H3        2.9942    -9.1880    -3.5342  H       1  <O>11       0.0278
  25 H4       -2.8424   -12.1643    -4.5918  H       1  <O>11       0.0634
  26 H5       -2.8467   -11.3573    -6.1784  H       1  <O>11       0.0634
  27 H6       -4.9087   -10.2496    -6.1388  H       1  <O>11       0.1828
  28 H7        1.3082   -11.1481    -2.7415  H       1  <O>11       0.0620
  29 H8       -1.0275   -11.7615    -3.0324  H       1  <O>11       0.0621
  30 H9       -4.5596    -6.9404    -3.7032  H       1  <O>11       0.0625
  31 H10      -3.0000    -5.5184    -2.5049  H       1  <O>11       0.0618
  32 H11      -0.7271    -5.2358    -3.3238  H       1  <O>11       0.0640
  33 H12       1.3047    -7.4026    -3.9457  H       1  <O>11       0.3292
  34 H13      -1.5652    -7.8220    -6.5407  H       1  <O>11       0.0648
  35 H14      -1.0552    -9.8628    -6.7825  H       1  <O>11       0.0621
  36 H15       1.2744    -9.2420    -6.4983  H       1  <O>11       0.0620
@<TRIPOS>BOND
     1     1     2    1
     2     2     3   ar
     3     3     4   ar
     4     4     5   ar
     5     5     6    1
     6     6     7    1
     7     7     8    1
     8     8     9   am
     9     9    10    2
    10     9    11    1
    11    11    12   ar
    12    12    13   ar
    13    13    14   ar
    14    14    15   ar
    15    15    16    1
    16    16    17    2
    17    16    18    1
    18    15    19   ar
    19    11    19   ar
    20     5    20   ar
    21    20    21   ar
    22     2    21   ar
    23     1    22    1
    24     1    23    1
    25     1    24    1
    26     6    25    1
    27     6    26    1
    28     8    27    1
    29     3    28    1
    30     4    29    1
    31    12    30    1
    32    13    31    1
    33    14    32    1
    34    18    33    1
    35    19    34    1
    36    20    35    1
    37    21    36    1
@<TRIPOS>MOLECULE
mol39_1_18
 36 37 0 0 0
SMALL
USER_CHARGES
****
VDW energy = 166.02
@<TRIPOS>ATOM
   1 C1        2.8832    -9.8059    -4.4252  C.3     1  <O>11      -0.0397
   2 C2        1.4617   -10.1611    -4.6036  C.ar    1  <O>11      -0.0504
   3 C3        0.8050   -10.8783    -3.6012  C.ar    1  <O>11      -0.0585
   4 C4       -0.5391   -11.2290    -3.7692  C.ar    1  <O>11      -0.0561
   5 C5       -1.2224   -10.8607    -4.9311  C.ar    1  <O>11      -0.0196
   6 C6       -2.6400   -11.2300    -5.1160  C.3     1  <O>11       0.0983
   7 O1       -2.7407   -12.2324    -6.1140  O.3     1  <O>11      -0.2749
   8 N1       -3.2855   -13.4046    -5.5501  N.am    1  <O>11      -0.1902
   9 C7       -2.5600   -14.5642    -5.5504  C.2     1  <O>11       0.2668
  10 O2       -1.4401   -14.5832    -6.0410  O.2     1  <O>11      -0.2681
  11 C8       -3.1214   -15.7762    -4.9681  C.ar    1  <O>11       0.0408
  12 C9       -3.8699   -16.6629    -5.7616  C.ar    1  <O>11      -0.0494
  13 C10      -4.4166   -17.8211    -5.1994  C.ar    1  <O>11      -0.0589
  14 C11      -4.2209   -18.1059    -3.8445  C.ar    1  <O>11      -0.0316
  15 C12      -3.4704   -17.2264    -3.0573  C.ar    1  <O>11       0.1223
  16 N2       -3.2697   -17.5248    -1.6624  N.4     1  <O>11       0.0060
  17 O3       -2.6870   -18.8443    -1.5287  O.2     1  <O>11      -0.1300
  18 O4       -4.5453   -17.4852    -0.9737  O.2     1  <O>11      -0.3961
  19 C13      -2.9188   -16.0700    -3.6096  C.ar    1  <O>11      -0.0195
  20 C14      -0.5527   -10.1366    -5.9237  C.ar    1  <O>11      -0.0561
  21 C15       0.7874    -9.7806    -5.7650  C.ar    1  <O>11      -0.0585
  22 H1        3.2314    -9.2521    -5.2971  H       1  <O>11       0.0278
  23 H2        3.4736   -10.7152    -4.3128  H       1  <O>11       0.0278
  24 H3        2.9942    -9.1880    -3.5342  H       1  <O>11       0.0278
  25 H4       -3.2062   -10.3508    -5.4244  H       1  <O>11       0.0634
  26 H5       -3.0418   -11.6101    -4.1770  H       1  <O>11       0.0634
  27 H6       -4.2214   -13.3871    -5.1422  H       1  <O>11       0.1828
  28 H7        1.3082   -11.1481    -2.7415  H       1  <O>11       0.0620
  29 H8       -1.0275   -11.7615    -3.0324  H       1  <O>11       0.0621
  30 H9       -4.0166   -16.4587    -6.7625  H       1  <O>11       0.0625
  31 H10      -4.9663   -18.4677    -5.7866  H       1  <O>11       0.0618
  32 H11      -4.6271   -18.9585    -3.4285  H       1  <O>11       0.0640
  33 H12      -5.0502   -16.6959    -0.9677  H       1  <O>11       0.3292
  34 H13      -2.3624   -15.4310    -3.0205  H       1  <O>11       0.0648
  35 H14      -1.0552    -9.8628    -6.7825  H       1  <O>11       0.0621
  36 H15       1.2744    -9.2420    -6.4983  H       1  <O>11       0.0620
@<TRIPOS>BOND
     1     1     2    1
     2     2     3   ar
     3     3     4   ar
     4     4     5   ar
     5     5     6    1
     6     6     7    1
     7     7     8    1
     8     8     9   am
     9     9    10    2
    10     9    11    1
    11    11    12   ar
    12    12    13   ar
    13    13    14   ar
    14    14    15   ar
    15    15    16    1
    16    16    17    2
    17    16    18    1
    18    15    19   ar
    19    11    19   ar
    20     5    20   ar
    21    20    21   ar
    22     2    21   ar
    23     1    22    1
    24     1    23    1
    25     1    24    1
    26     6    25    1
    27     6    26    1
    28     8    27    1
    29     3    28    1
    30     4    29    1
    31    12    30    1
    32    13    31    1
    33    14    32    1
    34    18    33    1
    35    19    34    1
    36    20    35    1
    37    21    36    1
@<TRIPOS>MOLECULE
mol39_1_19
 36 37 0 0 0
SMALL
USER_CHARGES
****
VDW energy = 166.41
@<TRIPOS>ATOM
   1 C1        2.8832    -9.8059    -4.4252  C.3     1  <O>11      -0.0397
   2 C2        1.4617   -10.1611    -4.6036  C.ar    1  <O>11      -0.0504
   3 C3        0.8050   -10.8783    -3.6012  C.ar    1  <O>11      -0.0585
   4 C4       -0.5391   -11.2290    -3.7692  C.ar    1  <O>11      -0.0561
   5 C5       -1.2224   -10.8607    -4.9311  C.ar    1  <O>11      -0.0196
   6 C6       -2.6400   -11.2300    -5.1160  C.3     1  <O>11       0.0983
   7 O1       -3.4162   -10.6605    -4.0747  O.3     1  <O>11      -0.2749
   8 N1       -4.3548    -9.7631    -4.6245  N.am    1  <O>11      -0.1902
   9 C7       -4.3214    -8.4408    -4.2764  C.2     1  <O>11       0.2668
  10 O2       -3.4781    -8.0386    -3.4875  O.2     1  <O>11      -0.2681
  11 C8       -5.2905    -7.5122    -4.8436  C.ar    1  <O>11       0.0408
  12 C9       -6.5173    -7.2846    -4.1960  C.ar    1  <O>11      -0.0494
  13 C10      -7.4509    -6.4004    -4.7465  C.ar    1  <O>11      -0.0589
  14 C11      -7.1698    -5.7354    -5.9439  C.ar    1  <O>11      -0.0316
  15 C12      -5.9461    -5.9575    -6.5841  C.ar    1  <O>11       0.1223
  16 N2       -5.6599    -5.2687    -7.8165  N.4     1  <O>11       0.0060
  17 O3       -5.8014    -3.8409    -7.6172  O.2     1  <O>11      -0.1300
  18 O4       -6.5867    -5.7103    -8.8407  O.2     1  <O>11      -0.3961
  19 C13      -5.0074    -6.8355    -6.0414  C.ar    1  <O>11      -0.0195
  20 C14      -0.5527   -10.1366    -5.9237  C.ar    1  <O>11      -0.0561
  21 C15       0.7874    -9.7806    -5.7650  C.ar    1  <O>11      -0.0585
  22 H1        3.2314    -9.2521    -5.2971  H       1  <O>11       0.0278
  23 H2        3.4736   -10.7152    -4.3128  H       1  <O>11       0.0278
  24 H3        2.9942    -9.1880    -3.5342  H       1  <O>11       0.0278
  25 H4       -2.7378   -12.3156    -5.0913  H       1  <O>11       0.0634
  26 H5       -2.9906   -10.8553    -6.0774  H       1  <O>11       0.0634
  27 H6       -5.0592   -10.1011    -5.2820  H       1  <O>11       0.1828
  28 H7        1.3082   -11.1481    -2.7415  H       1  <O>11       0.0620
  29 H8       -1.0275   -11.7615    -3.0324  H       1  <O>11       0.0621
  30 H9       -6.7298    -7.7715    -3.3112  H       1  <O>11       0.0625
  31 H10      -8.3504    -6.2384    -4.2672  H       1  <O>11       0.0618
  32 H11      -7.8598    -5.0857    -6.3523  H       1  <O>11       0.0640
  33 H12      -6.6177    -6.6141    -9.0864  H       1  <O>11       0.3292
  34 H13      -4.1056    -6.9876    -6.5197  H       1  <O>11       0.0648
  35 H14      -1.0552    -9.8628    -6.7825  H       1  <O>11       0.0621
  36 H15       1.2744    -9.2420    -6.4983  H       1  <O>11       0.0620
@<TRIPOS>BOND
     1     1     2    1
     2     2     3   ar
     3     3     4   ar
     4     4     5   ar
     5     5     6    1
     6     6     7    1
     7     7     8    1
     8     8     9   am
     9     9    10    2
    10     9    11    1
    11    11    12   ar
    12    12    13   ar
    13    13    14   ar
    14    14    15   ar
    15    15    16    1
    16    16    17    2
    17    16    18    1
    18    15    19   ar
    19    11    19   ar
    20     5    20   ar
    21    20    21   ar
    22     2    21   ar
    23     1    22    1
    24     1    23    1
    25     1    24    1
    26     6    25    1
    27     6    26    1
    28     8    27    1
    29     3    28    1
    30     4    29    1
    31    12    30    1
    32    13    31    1
    33    14    32    1
    34    18    33    1
    35    19    34    1
    36    20    35    1
    37    21    36    1
@<TRIPOS>MOLECULE
mol39_1_20
 36 37 0 0 0
SMALL
USER_CHARGES
****
VDW energy = 166.53
@<TRIPOS>ATOM
   1 C1        2.8832    -9.8059    -4.4252  C.3     1  <O>11      -0.0397
   2 C2        1.4617   -10.1611    -4.6036  C.ar    1  <O>11      -0.0504
   3 C3        0.8050   -10.8783    -3.6012  C.ar    1  <O>11      -0.0585
   4 C4       -0.5391   -11.2290    -3.7692  C.ar    1  <O>11      -0.0561
   5 C5       -1.2224   -10.8607    -4.9311  C.ar    1  <O>11      -0.0196
   6 C6       -2.6400   -11.2300    -5.1160  C.3     1  <O>11       0.0983
   7 O1       -3.0960   -10.7420    -6.3670  O.3     1  <O>11      -0.2749
   8 N1       -4.4499   -11.0944    -6.5442  N.am    1  <O>11      -0.1902
   9 C7       -4.8168   -11.8924    -7.5927  C.2     1  <O>11       0.2668
  10 O2       -5.9909   -12.1986    -7.7449  O.2     1  <O>11      -0.2681
  11 C8       -3.8098   -12.3787    -8.5269  C.ar    1  <O>11       0.0408
  12 C9       -3.1542   -13.5996    -8.2903  C.ar    1  <O>11      -0.0494
  13 C10      -2.1807   -14.0607    -9.1825  C.ar    1  <O>11      -0.0589
  14 C11      -1.8541   -13.3114   -10.3170  C.ar    1  <O>11      -0.0316
  15 C12      -2.5118   -12.1001   -10.5552  C.ar    1  <O>11       0.1223
  16 N2       -2.1736   -11.3325   -11.7263  N.4     1  <O>11       0.0060
  17 O3       -0.7699   -10.9774   -11.6834  O.2     1  <O>11      -0.1300
  18 O4       -2.9787   -10.1268   -11.7600  O.2     1  <O>11      -0.3961
  19 C13      -3.4861   -11.6331    -9.6724  C.ar    1  <O>11      -0.0195
  20 C14      -0.5527   -10.1366    -5.9237  C.ar    1  <O>11      -0.0561
  21 C15       0.7874    -9.7806    -5.7650  C.ar    1  <O>11      -0.0585
  22 H1        3.2314    -9.2521    -5.2971  H       1  <O>11       0.0278
  23 H2        3.4736   -10.7152    -4.3128  H       1  <O>11       0.0278
  24 H3        2.9942    -9.1880    -3.5342  H       1  <O>11       0.0278
  25 H4       -3.2360   -10.7920    -4.3150  H       1  <O>11       0.0634
  26 H5       -2.7390   -12.3150    -5.0910  H       1  <O>11       0.0634
  27 H6       -5.1556   -10.7533    -5.8898  H       1  <O>11       0.1828
  28 H7        1.3082   -11.1481    -2.7415  H       1  <O>11       0.0620
  29 H8       -1.0275   -11.7615    -3.0324  H       1  <O>11       0.0621
  30 H9       -3.3919   -14.1575    -7.4553  H       1  <O>11       0.0625
  31 H10      -1.7018   -14.9570    -9.0028  H       1  <O>11       0.0618
  32 H11      -1.1334   -13.6496   -10.9737  H       1  <O>11       0.0640
  33 H12      -3.9133   -10.1882   -11.7896  H       1  <O>11       0.3292
  34 H13      -3.9686   -10.7406    -9.8609  H       1  <O>11       0.0648
  35 H14      -1.0552    -9.8628    -6.7825  H       1  <O>11       0.0621
  36 H15       1.2744    -9.2420    -6.4983  H       1  <O>11       0.0620
@<TRIPOS>BOND
     1     1     2    1
     2     2     3   ar
     3     3     4   ar
     4     4     5   ar
     5     5     6    1
     6     6     7    1
     7     7     8    1
     8     8     9   am
     9     9    10    2
    10     9    11    1
    11    11    12   ar
    12    12    13   ar
    13    13    14   ar
    14    14    15   ar
    15    15    16    1
    16    16    17    2
    17    16    18    1
    18    15    19   ar
    19    11    19   ar
    20     5    20   ar
    21    20    21   ar
    22     2    21   ar
    23     1    22    1
    24     1    23    1
    25     1    24    1
    26     6    25    1
    27     6    26    1
    28     8    27    1
    29     3    28    1
    30     4    29    1
    31    12    30    1
    32    13    31    1
    33    14    32    1
    34    18    33    1
    35    19    34    1
    36    20    35    1
    37    21    36    1
@<TRIPOS>MOLECULE
mol39_1_21
 36 37 0 0 0
SMALL
USER_CHARGES
****
VDW energy = 167.02
@<TRIPOS>ATOM
   1 C1        2.8832    -9.8059    -4.4252  C.3     1  <O>11      -0.0397
   2 C2        1.4617   -10.1611    -4.6036  C.ar    1  <O>11      -0.0504
   3 C3        0.8050   -10.8783    -3.6012  C.ar    1  <O>11      -0.0585
   4 C4       -0.5391   -11.2290    -3.7692  C.ar    1  <O>11      -0.0561
   5 C5       -1.2224   -10.8607    -4.9311  C.ar    1  <O>11      -0.0196
   6 C6       -2.6400   -11.2300    -5.1160  C.3     1  <O>11       0.0983
   7 O1       -3.4162   -10.6605    -4.0747  O.3     1  <O>11      -0.2749
   8 N1       -4.3548    -9.7631    -4.6245  N.am    1  <O>11      -0.1902
   9 C7       -4.3214    -8.4408    -4.2764  C.2     1  <O>11       0.2668
  10 O2       -3.4781    -8.0386    -3.4875  O.2     1  <O>11      -0.2681
  11 C8       -5.2905    -7.5122    -4.8436  C.ar    1  <O>11       0.0408
  12 C9       -6.5173    -7.2846    -4.1960  C.ar    1  <O>11      -0.0494
  13 C10      -7.4509    -6.4004    -4.7465  C.ar    1  <O>11      -0.0589
  14 C11      -7.1698    -5.7354    -5.9439  C.ar    1  <O>11      -0.0316
  15 C12      -5.9461    -5.9575    -6.5841  C.ar    1  <O>11       0.1223
  16 N2       -5.6599    -5.2687    -7.8165  N.4     1  <O>11       0.0060
  17 O3       -6.3389    -3.9892    -7.8249  O.2     1  <O>11      -0.1300
  18 O4       -6.1207    -6.0704    -8.9337  O.2     1  <O>11      -0.3961
  19 C13      -5.0074    -6.8355    -6.0414  C.ar    1  <O>11      -0.0195
  20 C14      -0.5527   -10.1366    -5.9237  C.ar    1  <O>11      -0.0561
  21 C15       0.7874    -9.7806    -5.7650  C.ar    1  <O>11      -0.0585
  22 H1        3.2314    -9.2521    -5.2971  H       1  <O>11       0.0278
  23 H2        3.4736   -10.7152    -4.3128  H       1  <O>11       0.0278
  24 H3        2.9942    -9.1880    -3.5342  H       1  <O>11       0.0278
  25 H4       -2.7378   -12.3156    -5.0913  H       1  <O>11       0.0634
  26 H5       -2.9906   -10.8553    -6.0774  H       1  <O>11       0.0634
  27 H6       -5.0592   -10.1011    -5.2820  H       1  <O>11       0.1828
  28 H7        1.3082   -11.1481    -2.7415  H       1  <O>11       0.0620
  29 H8       -1.0275   -11.7615    -3.0324  H       1  <O>11       0.0621
  30 H9       -6.7298    -7.7715    -3.3112  H       1  <O>11       0.0625
  31 H10      -8.3504    -6.2384    -4.2672  H       1  <O>11       0.0618
  32 H11      -7.8598    -5.0857    -6.3523  H       1  <O>11       0.0640
  33 H12      -5.7742    -6.9307    -9.0674  H       1  <O>11       0.3292
  34 H13      -4.1056    -6.9876    -6.5197  H       1  <O>11       0.0648
  35 H14      -1.0552    -9.8628    -6.7825  H       1  <O>11       0.0621
  36 H15       1.2744    -9.2420    -6.4983  H       1  <O>11       0.0620
@<TRIPOS>BOND
     1     1     2    1
     2     2     3   ar
     3     3     4   ar
     4     4     5   ar
     5     5     6    1
     6     6     7    1
     7     7     8    1
     8     8     9   am
     9     9    10    2
    10     9    11    1
    11    11    12   ar
    12    12    13   ar
    13    13    14   ar
    14    14    15   ar
    15    15    16    1
    16    16    17    2
    17    16    18    1
    18    15    19   ar
    19    11    19   ar
    20     5    20   ar
    21    20    21   ar
    22     2    21   ar
    23     1    22    1
    24     1    23    1
    25     1    24    1
    26     6    25    1
    27     6    26    1
    28     8    27    1
    29     3    28    1
    30     4    29    1
    31    12    30    1
    32    13    31    1
    33    14    32    1
    34    18    33    1
    35    19    34    1
    36    20    35    1
    37    21    36    1
@<TRIPOS>MOLECULE
mol39_1_22
 36 37 0 0 0
SMALL
USER_CHARGES
****
VDW energy = 168.83
@<TRIPOS>ATOM
   1 C1        2.8832    -9.8059    -4.4252  C.3     1  <O>11      -0.0397
   2 C2        1.4617   -10.1611    -4.6036  C.ar    1  <O>11      -0.0504
   3 C3        0.8050   -10.8783    -3.6012  C.ar    1  <O>11      -0.0585
   4 C4       -0.5391   -11.2290    -3.7692  C.ar    1  <O>11      -0.0561
   5 C5       -1.2224   -10.8607    -4.9311  C.ar    1  <O>11      -0.0196
   6 C6       -2.6400   -11.2300    -5.1160  C.3     1  <O>11       0.0983
   7 O1       -3.4675   -10.2042    -4.5926  O.3     1  <O>11      -0.2749
   8 N1       -4.2513    -9.6572    -5.6294  N.am    1  <O>11      -0.1902
   9 C7       -4.1309    -8.3333    -5.9517  C.2     1  <O>11       0.2668
  10 O2       -3.3442    -7.6253    -5.3391  O.2     1  <O>11      -0.2681
  11 C8       -4.9400    -7.7666    -7.0228  C.ar    1  <O>11       0.0408
  12 C9       -4.4761    -7.7892    -8.3496  C.ar    1  <O>11      -0.0494
  13 C10      -5.2493    -7.2361    -9.3756  C.ar    1  <O>11      -0.0589
  14 C11      -6.4900    -6.6584    -9.0889  C.ar    1  <O>11      -0.0316
  15 C12      -6.9538    -6.6424    -7.7694  C.ar    1  <O>11       0.1223
  16 N2       -8.2334    -6.0480    -7.4789  N.4     1  <O>11       0.0060
  17 O3       -9.2533    -6.6703    -8.2981  O.2     1  <O>11      -0.1300
  18 O4       -8.1801    -4.6275    -7.7657  O.2     1  <O>11      -0.3961
  19 C13      -6.1910    -7.1939    -6.7396  C.ar    1  <O>11      -0.0195
  20 C14      -0.5527   -10.1366    -5.9237  C.ar    1  <O>11      -0.0561
  21 C15       0.7874    -9.7806    -5.7650  C.ar    1  <O>11      -0.0585
  22 H1        3.2314    -9.2521    -5.2971  H       1  <O>11       0.0278
  23 H2        3.4736   -10.7152    -4.3128  H       1  <O>11       0.0278
  24 H3        2.9942    -9.1880    -3.5342  H       1  <O>11       0.0278
  25 H4       -2.8424   -12.1643    -4.5918  H       1  <O>11       0.0634
  26 H5       -2.8467   -11.3573    -6.1784  H       1  <O>11       0.0634
  27 H6       -4.9087   -10.2496    -6.1388  H       1  <O>11       0.1828
  28 H7        1.3082   -11.1481    -2.7415  H       1  <O>11       0.0620
  29 H8       -1.0275   -11.7615    -3.0324  H       1  <O>11       0.0621
  30 H9       -3.5618    -8.2153    -8.5675  H       1  <O>11       0.0625
  31 H10      -4.9029    -7.2544   -10.3475  H       1  <O>11       0.0618
  32 H11      -7.0592    -6.2470    -9.8451  H       1  <O>11       0.0640
  33 H12      -7.5671    -4.0811    -7.3143  H       1  <O>11       0.3292
  34 H13      -6.5455    -7.1812    -5.7705  H       1  <O>11       0.0648
  35 H14      -1.0552    -9.8628    -6.7825  H       1  <O>11       0.0621
  36 H15       1.2744    -9.2420    -6.4983  H       1  <O>11       0.0620
@<TRIPOS>BOND
     1     1     2    1
     2     2     3   ar
     3     3     4   ar
     4     4     5   ar
     5     5     6    1
     6     6     7    1
     7     7     8    1
     8     8     9   am
     9     9    10    2
    10     9    11    1
    11    11    12   ar
    12    12    13   ar
    13    13    14   ar
    14    14    15   ar
    15    15    16    1
    16    16    17    2
    17    16    18    1
    18    15    19   ar
    19    11    19   ar
    20     5    20   ar
    21    20    21   ar
    22     2    21   ar
    23     1    22    1
    24     1    23    1
    25     1    24    1
    26     6    25    1
    27     6    26    1
    28     8    27    1
    29     3    28    1
    30     4    29    1
    31    12    30    1
    32    13    31    1
    33    14    32    1
    34    18    33    1
    35    19    34    1
    36    20    35    1
    37    21    36    1
@<TRIPOS>MOLECULE
mol39_1_23
 36 37 0 0 0
SMALL
USER_CHARGES
****
VDW energy = 169.02
@<TRIPOS>ATOM
   1 C1        2.8832    -9.8059    -4.4252  C.3     1  <O>11      -0.0397
   2 C2        1.4617   -10.1611    -4.6036  C.ar    1  <O>11      -0.0504
   3 C3        0.8050   -10.8783    -3.6012  C.ar    1  <O>11      -0.0585
   4 C4       -0.5391   -11.2290    -3.7692  C.ar    1  <O>11      -0.0561
   5 C5       -1.2224   -10.8607    -4.9311  C.ar    1  <O>11      -0.0196
   6 C6       -2.6400   -11.2300    -5.1160  C.3     1  <O>11       0.0983
   7 O1       -2.7407   -12.2324    -6.1140  O.3     1  <O>11      -0.2749
   8 N1       -3.2855   -13.4046    -5.5501  N.am    1  <O>11      -0.1902
   9 C7       -2.5600   -14.5642    -5.5504  C.2     1  <O>11       0.2668
  10 O2       -1.4401   -14.5832    -6.0410  O.2     1  <O>11      -0.2681
  11 C8       -3.1214   -15.7762    -4.9681  C.ar    1  <O>11       0.0408
  12 C9       -2.9419   -16.0553    -3.6021  C.ar    1  <O>11      -0.0494
  13 C10      -3.4729   -17.2239    -3.0463  C.ar    1  <O>11      -0.0589
  14 C11      -4.1876   -18.1217    -3.8452  C.ar    1  <O>11      -0.0316
  15 C12      -4.3715   -17.8398    -5.2029  C.ar    1  <O>11       0.1223
  16 N2       -5.1102   -18.7666    -6.0218  N.4     1  <O>11       0.0060
  17 O3       -6.4158   -18.9948    -5.4372  O.2     1  <O>11      -0.1300
  18 O4       -4.3871   -20.0212    -6.1000  O.2     1  <O>11      -0.3961
  19 C13      -3.8479   -16.6755    -5.7658  C.ar    1  <O>11      -0.0195
  20 C14      -0.5527   -10.1366    -5.9237  C.ar    1  <O>11      -0.0561
  21 C15       0.7874    -9.7806    -5.7650  C.ar    1  <O>11      -0.0585
  22 H1        3.2314    -9.2521    -5.2971  H       1  <O>11       0.0278
  23 H2        3.4736   -10.7152    -4.3128  H       1  <O>11       0.0278
  24 H3        2.9942    -9.1880    -3.5342  H       1  <O>11       0.0278
  25 H4       -3.2062   -10.3508    -5.4244  H       1  <O>11       0.0634
  26 H5       -3.0418   -11.6101    -4.1770  H       1  <O>11       0.0634
  27 H6       -4.2214   -13.3871    -5.1422  H       1  <O>11       0.1828
  28 H7        1.3082   -11.1481    -2.7415  H       1  <O>11       0.0620
  29 H8       -1.0275   -11.7615    -3.0324  H       1  <O>11       0.0621
  30 H9       -2.4165   -15.3958    -3.0072  H       1  <O>11       0.0625
  31 H10      -3.3367   -17.4241    -2.0432  H       1  <O>11       0.0618
  32 H11      -4.5765   -18.9858    -3.4363  H       1  <O>11       0.0640
  33 H12      -3.5211   -20.0414    -6.4572  H       1  <O>11       0.3292
  34 H13      -3.9943   -16.4752    -6.7676  H       1  <O>11       0.0648
  35 H14      -1.0552    -9.8628    -6.7825  H       1  <O>11       0.0621
  36 H15       1.2744    -9.2420    -6.4983  H       1  <O>11       0.0620
@<TRIPOS>BOND
     1     1     2    1
     2     2     3   ar
     3     3     4   ar
     4     4     5   ar
     5     5     6    1
     6     6     7    1
     7     7     8    1
     8     8     9   am
     9     9    10    2
    10     9    11    1
    11    11    12   ar
    12    12    13   ar
    13    13    14   ar
    14    14    15   ar
    15    15    16    1
    16    16    17    2
    17    16    18    1
    18    15    19   ar
    19    11    19   ar
    20     5    20   ar
    21    20    21   ar
    22     2    21   ar
    23     1    22    1
    24     1    23    1
    25     1    24    1
    26     6    25    1
    27     6    26    1
    28     8    27    1
    29     3    28    1
    30     4    29    1
    31    12    30    1
    32    13    31    1
    33    14    32    1
    34    18    33    1
    35    19    34    1
    36    20    35    1
    37    21    36    1
@<TRIPOS>MOLECULE
mol39_1_24
 36 37 0 0 0
SMALL
USER_CHARGES
****
VDW energy = 174.55
@<TRIPOS>ATOM
   1 C1        2.8832    -9.8059    -4.4252  C.3     1  <O>11      -0.0397
   2 C2        1.4617   -10.1611    -4.6036  C.ar    1  <O>11      -0.0504
   3 C3        0.8050   -10.8783    -3.6012  C.ar    1  <O>11      -0.0585
   4 C4       -0.5391   -11.2290    -3.7692  C.ar    1  <O>11      -0.0561
   5 C5       -1.2224   -10.8607    -4.9311  C.ar    1  <O>11      -0.0196
   6 C6       -2.6400   -11.2300    -5.1160  C.3     1  <O>11       0.0983
   7 O1       -2.7407   -12.2324    -6.1140  O.3     1  <O>11      -0.2749
   8 N1       -4.0944   -12.5856    -6.2911  N.am    1  <O>11      -0.1902
   9 C7       -4.5028   -13.8690    -6.0525  C.2     1  <O>11       0.2668
  10 O2       -3.6929   -14.7092    -5.6871  O.2     1  <O>11      -0.2681
  11 C8       -5.9012   -14.2356    -6.2350  C.ar    1  <O>11       0.0408
  12 C9       -6.3552   -14.7011    -7.4814  C.ar    1  <O>11      -0.0494
  13 C10      -7.6998   -15.0434    -7.6581  C.ar    1  <O>11      -0.0589
  14 C11      -8.6015   -14.9267    -6.5958  C.ar    1  <O>11      -0.0316
  15 C12      -8.1475   -14.4698    -5.3542  C.ar    1  <O>11       0.1223
  16 N2       -9.0795   -14.3530    -4.2620  N.4     1  <O>11       0.0060
  17 O3      -10.1338   -13.4273    -4.6224  O.2     1  <O>11      -0.1300
  18 O4       -8.3845   -13.8638    -3.0870  O.2     1  <O>11      -0.3961
  19 C13      -6.8076   -14.1284    -5.1674  C.ar    1  <O>11      -0.0195
  20 C14      -0.5527   -10.1366    -5.9237  C.ar    1  <O>11      -0.0561
  21 C15       0.7874    -9.7806    -5.7650  C.ar    1  <O>11      -0.0585
  22 H1        3.2314    -9.2521    -5.2971  H       1  <O>11       0.0278
  23 H2        3.4736   -10.7152    -4.3128  H       1  <O>11       0.0278
  24 H3        2.9942    -9.1880    -3.5342  H       1  <O>11       0.0278
  25 H4       -3.2062   -10.3508    -5.4244  H       1  <O>11       0.0634
  26 H5       -3.0418   -11.6101    -4.1770  H       1  <O>11       0.0634
  27 H6       -4.7690   -11.8830    -6.5977  H       1  <O>11       0.1828
  28 H7        1.3082   -11.1481    -2.7415  H       1  <O>11       0.0620
  29 H8       -1.0275   -11.7615    -3.0324  H       1  <O>11       0.0621
  30 H9       -5.6941   -14.7906    -8.2687  H       1  <O>11       0.0625
  31 H10      -8.0276   -15.3832    -8.5758  H       1  <O>11       0.0618
  32 H11      -9.5944   -15.1757    -6.7268  H       1  <O>11       0.0640
  33 H12      -7.6713   -14.3533    -2.7268  H       1  <O>11       0.3292
  34 H13      -6.4828   -13.7975    -4.2455  H       1  <O>11       0.0648
  35 H14      -1.0552    -9.8628    -6.7825  H       1  <O>11       0.0621
  36 H15       1.2744    -9.2420    -6.4983  H       1  <O>11       0.0620
@<TRIPOS>BOND
     1     1     2    1
     2     2     3   ar
     3     3     4   ar
     4     4     5   ar
     5     5     6    1
     6     6     7    1
     7     7     8    1
     8     8     9   am
     9     9    10    2
    10     9    11    1
    11    11    12   ar
    12    12    13   ar
    13    13    14   ar
    14    14    15   ar
    15    15    16    1
    16    16    17    2
    17    16    18    1
    18    15    19   ar
    19    11    19   ar
    20     5    20   ar
    21    20    21   ar
    22     2    21   ar
    23     1    22    1
    24     1    23    1
    25     1    24    1
    26     6    25    1
    27     6    26    1
    28     8    27    1
    29     3    28    1
    30     4    29    1
    31    12    30    1
    32    13    31    1
    33    14    32    1
    34    18    33    1
    35    19    34    1
    36    20    35    1
    37    21    36    1
@<TRIPOS>MOLECULE
mol39_1_25
 36 37 0 0 0
SMALL
USER_CHARGES
****
VDW energy = 175.69
@<TRIPOS>ATOM
   1 C1        2.8832    -9.8059    -4.4252  C.3     1  <O>11      -0.0397
   2 C2        1.4617   -10.1611    -4.6036  C.ar    1  <O>11      -0.0504
   3 C3        0.8050   -10.8783    -3.6012  C.ar    1  <O>11      -0.0585
   4 C4       -0.5391   -11.2290    -3.7692  C.ar    1  <O>11      -0.0561
   5 C5       -1.2224   -10.8607    -4.9311  C.ar    1  <O>11      -0.0196
   6 C6       -2.6400   -11.2300    -5.1160  C.3     1  <O>11       0.0983
   7 O1       -2.7407   -12.2324    -6.1140  O.3     1  <O>11      -0.2749
   8 N1       -3.2855   -13.4046    -5.5501  N.am    1  <O>11      -0.1902
   9 C7       -2.5600   -14.5642    -5.5504  C.2     1  <O>11       0.2668
  10 O2       -1.4401   -14.5832    -6.0410  O.2     1  <O>11      -0.2681
  11 C8       -3.1214   -15.7762    -4.9681  C.ar    1  <O>11       0.0408
  12 C9       -3.8699   -16.6629    -5.7616  C.ar    1  <O>11      -0.0494
  13 C10      -4.4166   -17.8211    -5.1994  C.ar    1  <O>11      -0.0589
  14 C11      -4.2209   -18.1059    -3.8445  C.ar    1  <O>11      -0.0316
  15 C12      -3.4704   -17.2264    -3.0573  C.ar    1  <O>11       0.1223
  16 N2       -3.2697   -17.5248    -1.6624  N.4     1  <O>11       0.0060
  17 O3       -4.5527   -17.6003    -0.9941  O.2     1  <O>11      -0.1300
  18 O4       -2.4679   -16.4789    -1.0574  O.2     1  <O>11      -0.3961
  19 C13      -2.9188   -16.0700    -3.6096  C.ar    1  <O>11      -0.0195
  20 C14      -0.5527   -10.1366    -5.9237  C.ar    1  <O>11      -0.0561
  21 C15       0.7874    -9.7806    -5.7650  C.ar    1  <O>11      -0.0585
  22 H1        3.2314    -9.2521    -5.2971  H       1  <O>11       0.0278
  23 H2        3.4736   -10.7152    -4.3128  H       1  <O>11       0.0278
  24 H3        2.9942    -9.1880    -3.5342  H       1  <O>11       0.0278
  25 H4       -3.2062   -10.3508    -5.4244  H       1  <O>11       0.0634
  26 H5       -3.0418   -11.6101    -4.1770  H       1  <O>11       0.0634
  27 H6       -4.2214   -13.3871    -5.1422  H       1  <O>11       0.1828
  28 H7        1.3082   -11.1481    -2.7415  H       1  <O>11       0.0620
  29 H8       -1.0275   -11.7615    -3.0324  H       1  <O>11       0.0621
  30 H9       -4.0166   -16.4587    -6.7625  H       1  <O>11       0.0625
  31 H10      -4.9663   -18.4677    -5.7866  H       1  <O>11       0.0618
  32 H11      -4.6271   -18.9585    -3.4285  H       1  <O>11       0.0640
  33 H12      -1.6055   -16.3041    -1.3795  H       1  <O>11       0.3292
  34 H13      -2.3624   -15.4310    -3.0205  H       1  <O>11       0.0648
  35 H14      -1.0552    -9.8628    -6.7825  H       1  <O>11       0.0621
  36 H15       1.2744    -9.2420    -6.4983  H       1  <O>11       0.0620
@<TRIPOS>BOND
     1     1     2    1
     2     2     3   ar
     3     3     4   ar
     4     4     5   ar
     5     5     6    1
     6     6     7    1
     7     7     8    1
     8     8     9   am
     9     9    10    2
    10     9    11    1
    11    11    12   ar
    12    12    13   ar
    13    13    14   ar
    14    14    15   ar
    15    15    16    1
    16    16    17    2
    17    16    18    1
    18    15    19   ar
    19    11    19   ar
    20     5    20   ar
    21    20    21   ar
    22     2    21   ar
    23     1    22    1
    24     1    23    1
    25     1    24    1
    26     6    25    1
    27     6    26    1
    28     8    27    1
    29     3    28    1
    30     4    29    1
    31    12    30    1
    32    13    31    1
    33    14    32    1
    34    18    33    1
    35    19    34    1
    36    20    35    1
    37    21    36    1
@<TRIPOS>MOLECULE
mol39_1_26
 36 37 0 0 0
SMALL
USER_CHARGES
****
VDW energy = 177.03
@<TRIPOS>ATOM
   1 C1        2.8832    -9.8059    -4.4252  C.3     1  <O>11      -0.0397
   2 C2        1.4617   -10.1611    -4.6036  C.ar    1  <O>11      -0.0504
   3 C3        0.8050   -10.8783    -3.6012  C.ar    1  <O>11      -0.0585
   4 C4       -0.5391   -11.2290    -3.7692  C.ar    1  <O>11      -0.0561
   5 C5       -1.2224   -10.8607    -4.9311  C.ar    1  <O>11      -0.0196
   6 C6       -2.6400   -11.2300    -5.1160  C.3     1  <O>11       0.0983
   7 O1       -2.7407   -12.2324    -6.1140  O.3     1  <O>11      -0.2749
   8 N1       -4.0944   -12.5856    -6.2911  N.am    1  <O>11      -0.1902
   9 C7       -4.5028   -13.8690    -6.0525  C.2     1  <O>11       0.2668
  10 O2       -3.6929   -14.7092    -5.6871  O.2     1  <O>11      -0.2681
  11 C8       -5.9012   -14.2356    -6.2350  C.ar    1  <O>11       0.0408
  12 C9       -6.8079   -14.1267    -5.1662  C.ar    1  <O>11      -0.0494
  13 C10      -8.1479   -14.4881    -5.3398  C.ar    1  <O>11      -0.0589
  14 C11      -8.5955   -14.9585    -6.5782  C.ar    1  <O>11      -0.0316
  15 C12      -7.6941   -15.0601    -7.6430  C.ar    1  <O>11       0.1223
  16 N2       -8.1599   -15.5433    -8.9175  N.4     1  <O>11       0.0060
  17 O3       -8.6875   -16.8836    -8.7635  O.2     1  <O>11      -0.1300
  18 O4       -7.0560   -15.5610    -9.8578  O.2     1  <O>11      -0.3961
  19 C13      -6.3561   -14.6996    -7.4803  C.ar    1  <O>11      -0.0195
  20 C14      -0.5527   -10.1366    -5.9237  C.ar    1  <O>11      -0.0561
  21 C15       0.7874    -9.7806    -5.7650  C.ar    1  <O>11      -0.0585
  22 H1        3.2314    -9.2521    -5.2971  H       1  <O>11       0.0278
  23 H2        3.4736   -10.7152    -4.3128  H       1  <O>11       0.0278
  24 H3        2.9942    -9.1880    -3.5342  H       1  <O>11       0.0278
  25 H4       -3.2062   -10.3508    -5.4244  H       1  <O>11       0.0634
  26 H5       -3.0418   -11.6101    -4.1770  H       1  <O>11       0.0634
  27 H6       -4.7690   -11.8830    -6.5977  H       1  <O>11       0.1828
  28 H7        1.3082   -11.1481    -2.7415  H       1  <O>11       0.0620
  29 H8       -1.0275   -11.7615    -3.0324  H       1  <O>11       0.0621
  30 H9       -6.4837   -13.7790    -4.2503  H       1  <O>11       0.0625
  31 H10      -8.8086   -14.4073    -4.5511  H       1  <O>11       0.0618
  32 H11      -9.5833   -15.2286    -6.7057  H       1  <O>11       0.0640
  33 H12      -6.6053   -14.7664   -10.0661  H       1  <O>11       0.3292
  34 H13      -5.7011   -14.7737    -8.2744  H       1  <O>11       0.0648
  35 H14      -1.0552    -9.8628    -6.7825  H       1  <O>11       0.0621
  36 H15       1.2744    -9.2420    -6.4983  H       1  <O>11       0.0620
@<TRIPOS>BOND
     1     1     2    1
     2     2     3   ar
     3     3     4   ar
     4     4     5   ar
     5     5     6    1
     6     6     7    1
     7     7     8    1
     8     8     9   am
     9     9    10    2
    10     9    11    1
    11    11    12   ar
    12    12    13   ar
    13    13    14   ar
    14    14    15   ar
    15    15    16    1
    16    16    17    2
    17    16    18    1
    18    15    19   ar
    19    11    19   ar
    20     5    20   ar
    21    20    21   ar
    22     2    21   ar
    23     1    22    1
    24     1    23    1
    25     1    24    1
    26     6    25    1
    27     6    26    1
    28     8    27    1
    29     3    28    1
    30     4    29    1
    31    12    30    1
    32    13    31    1
    33    14    32    1
    34    18    33    1
    35    19    34    1
    36    20    35    1
    37    21    36    1
@<TRIPOS>MOLECULE
mol39_1_27
 36 37 0 0 0
SMALL
USER_CHARGES
****
VDW energy = 178.06
@<TRIPOS>ATOM
   1 C1        2.8832    -9.8059    -4.4252  C.3     1  <O>11      -0.0397
   2 C2        1.4617   -10.1611    -4.6036  C.ar    1  <O>11      -0.0504
   3 C3        0.8050   -10.8783    -3.6012  C.ar    1  <O>11      -0.0585
   4 C4       -0.5391   -11.2290    -3.7692  C.ar    1  <O>11      -0.0561
   5 C5       -1.2224   -10.8607    -4.9311  C.ar    1  <O>11      -0.0196
   6 C6       -2.6400   -11.2300    -5.1160  C.3     1  <O>11       0.0983
   7 O1       -3.0960   -10.7420    -6.3670  O.3     1  <O>11      -0.2749
   8 N1       -4.4499   -11.0944    -6.5442  N.am    1  <O>11      -0.1902
   9 C7       -4.8168   -11.8924    -7.5927  C.2     1  <O>11       0.2668
  10 O2       -3.9702   -12.2983    -8.3762  O.2     1  <O>11      -0.2681
  11 C8       -6.2154   -12.2575    -7.7772  C.ar    1  <O>11       0.0408
  12 C9       -7.0615   -11.4508    -8.5581  C.ar    1  <O>11      -0.0494
  13 C10      -8.4062   -11.7970    -8.7265  C.ar    1  <O>11      -0.0589
  14 C11      -8.9179   -12.9487    -8.1208  C.ar    1  <O>11      -0.0316
  15 C12      -8.0736   -13.7543    -7.3496  C.ar    1  <O>11       0.1223
  16 N2       -8.6045   -14.9410    -6.7291  N.4     1  <O>11       0.0060
  17 O3       -9.6774   -14.5766    -5.8266  O.2     1  <O>11      -0.1300
  18 O4       -7.5517   -15.6081    -5.9877  O.2     1  <O>11      -0.3961
  19 C13      -6.7302   -13.4188    -7.1780  C.ar    1  <O>11      -0.0195
  20 C14      -0.5527   -10.1366    -5.9237  C.ar    1  <O>11      -0.0561
  21 C15       0.7874    -9.7806    -5.7650  C.ar    1  <O>11      -0.0585
  22 H1        3.2314    -9.2521    -5.2971  H       1  <O>11       0.0278
  23 H2        3.4736   -10.7152    -4.3128  H       1  <O>11       0.0278
  24 H3        2.9942    -9.1880    -3.5342  H       1  <O>11       0.0278
  25 H4       -3.2360   -10.7920    -4.3150  H       1  <O>11       0.0634
  26 H5       -2.7390   -12.3150    -5.0910  H       1  <O>11       0.0634
  27 H6       -5.1556   -10.7533    -5.8898  H       1  <O>11       0.1828
  28 H7        1.3082   -11.1481    -2.7415  H       1  <O>11       0.0620
  29 H8       -1.0275   -11.7615    -3.0324  H       1  <O>11       0.0621
  30 H9       -6.6892   -10.6003    -9.0086  H       1  <O>11       0.0625
  31 H10      -9.0229   -11.2002    -9.2997  H       1  <O>11       0.0618
  32 H11      -9.9108   -13.2025    -8.2419  H       1  <O>11       0.0640
  33 H12      -6.7831   -15.9076    -6.4322  H       1  <O>11       0.3292
  34 H13      -6.1153   -14.0234    -6.6111  H       1  <O>11       0.0648
  35 H14      -1.0552    -9.8628    -6.7825  H       1  <O>11       0.0621
  36 H15       1.2744    -9.2420    -6.4983  H       1  <O>11       0.0620
@<TRIPOS>BOND
     1     1     2    1
     2     2     3   ar
     3     3     4   ar
     4     4     5   ar
     5     5     6    1
     6     6     7    1
     7     7     8    1
     8     8     9   am
     9     9    10    2
    10     9    11    1
    11    11    12   ar
    12    12    13   ar
    13    13    14   ar
    14    14    15   ar
    15    15    16    1
    16    16    17    2
    17    16    18    1
    18    15    19   ar
    19    11    19   ar
    20     5    20   ar
    21    20    21   ar
    22     2    21   ar
    23     1    22    1
    24     1    23    1
    25     1    24    1
    26     6    25    1
    27     6    26    1
    28     8    27    1
    29     3    28    1
    30     4    29    1
    31    12    30    1
    32    13    31    1
    33    14    32    1
    34    18    33    1
    35    19    34    1
    36    20    35    1
    37    21    36    1
@<TRIPOS>MOLECULE
mol39_1_28
 36 37 0 0 0
SMALL
USER_CHARGES
****
VDW energy = 178.52
@<TRIPOS>ATOM
   1 C1        2.8832    -9.8059    -4.4252  C.3     1  <O>11      -0.0397
   2 C2        1.4617   -10.1611    -4.6036  C.ar    1  <O>11      -0.0504
   3 C3        0.8050   -10.8783    -3.6012  C.ar    1  <O>11      -0.0585
   4 C4       -0.5391   -11.2290    -3.7692  C.ar    1  <O>11      -0.0561
   5 C5       -1.2224   -10.8607    -4.9311  C.ar    1  <O>11      -0.0196
   6 C6       -2.6400   -11.2300    -5.1160  C.3     1  <O>11       0.0983
   7 O1       -2.7407   -12.2324    -6.1140  O.3     1  <O>11      -0.2749
   8 N1       -3.2855   -13.4046    -5.5501  N.am    1  <O>11      -0.1902
   9 C7       -2.5600   -14.5642    -5.5504  C.2     1  <O>11       0.2668
  10 O2       -3.0331   -15.5800    -5.0611  O.2     1  <O>11      -0.2681
  11 C8       -1.2241   -14.5889    -6.1317  C.ar    1  <O>11       0.0408
  12 C9       -0.3481   -13.5060    -5.9417  C.ar    1  <O>11      -0.0494
  13 C10       0.9305   -13.5266    -6.5083  C.ar    1  <O>11      -0.0589
  14 C11       1.3470   -14.6253    -7.2663  C.ar    1  <O>11      -0.0316
  15 C12       0.4772   -15.7053    -7.4492  C.ar    1  <O>11       0.1223
  16 N2        0.9112   -16.8359    -8.2292  N.4     1  <O>11       0.0060
  17 O3        2.1493   -17.3535    -7.6839  O.2     1  <O>11      -0.1300
  18 O4        1.1215   -16.4204    -9.6026  O.2     1  <O>11      -0.3961
  19 C13      -0.7992   -15.6951    -6.8858  C.ar    1  <O>11      -0.0195
  20 C14      -0.5527   -10.1366    -5.9237  C.ar    1  <O>11      -0.0561
  21 C15       0.7874    -9.7806    -5.7650  C.ar    1  <O>11      -0.0585
  22 H1        3.2314    -9.2521    -5.2971  H       1  <O>11       0.0278
  23 H2        3.4736   -10.7152    -4.3128  H       1  <O>11       0.0278
  24 H3        2.9942    -9.1880    -3.5342  H       1  <O>11       0.0278
  25 H4       -3.2062   -10.3508    -5.4244  H       1  <O>11       0.0634
  26 H5       -3.0418   -11.6101    -4.1770  H       1  <O>11       0.0634
  27 H6       -4.2214   -13.3871    -5.1422  H       1  <O>11       0.1828
  28 H7        1.3082   -11.1481    -2.7415  H       1  <O>11       0.0620
  29 H8       -1.0275   -11.7615    -3.0324  H       1  <O>11       0.0621
  30 H9       -0.6494   -12.6929    -5.3821  H       1  <O>11       0.0625
  31 H10       1.5687   -12.7281    -6.3665  H       1  <O>11       0.0618
  32 H11       2.2890   -14.6393    -7.6875  H       1  <O>11       0.0640
  33 H12       0.4115   -16.0611   -10.0974  H       1  <O>11       0.3292
  34 H13      -1.4306   -16.4998    -7.0230  H       1  <O>11       0.0648
  35 H14      -1.0552    -9.8628    -6.7825  H       1  <O>11       0.0621
  36 H15       1.2744    -9.2420    -6.4983  H       1  <O>11       0.0620
@<TRIPOS>BOND
     1     1     2    1
     2     2     3   ar
     3     3     4   ar
     4     4     5   ar
     5     5     6    1
     6     6     7    1
     7     7     8    1
     8     8     9   am
     9     9    10    2
    10     9    11    1
    11    11    12   ar
    12    12    13   ar
    13    13    14   ar
    14    14    15   ar
    15    15    16    1
    16    16    17    2
    17    16    18    1
    18    15    19   ar
    19    11    19   ar
    20     5    20   ar
    21    20    21   ar
    22     2    21   ar
    23     1    22    1
    24     1    23    1
    25     1    24    1
    26     6    25    1
    27     6    26    1
    28     8    27    1
    29     3    28    1
    30     4    29    1
    31    12    30    1
    32    13    31    1
    33    14    32    1
    34    18    33    1
    35    19    34    1
    36    20    35    1
    37    21    36    1
@<TRIPOS>MOLECULE
mol39_1_29
 36 37 0 0 0
SMALL
USER_CHARGES
****
VDW energy = 180.38
@<TRIPOS>ATOM
   1 C1        2.8832    -9.8059    -4.4252  C.3     1  <O>11      -0.0397
   2 C2        1.4617   -10.1611    -4.6036  C.ar    1  <O>11      -0.0504
   3 C3        0.8050   -10.8783    -3.6012  C.ar    1  <O>11      -0.0585
   4 C4       -0.5391   -11.2290    -3.7692  C.ar    1  <O>11      -0.0561
   5 C5       -1.2224   -10.8607    -4.9311  C.ar    1  <O>11      -0.0196
   6 C6       -2.6400   -11.2300    -5.1160  C.3     1  <O>11       0.0983
   7 O1       -2.7407   -12.2324    -6.1140  O.3     1  <O>11      -0.2749
   8 N1       -4.0944   -12.5856    -6.2911  N.am    1  <O>11      -0.1902
   9 C7       -4.5028   -13.8690    -6.0525  C.2     1  <O>11       0.2668
  10 O2       -3.6929   -14.7092    -5.6871  O.2     1  <O>11      -0.2681
  11 C8       -5.9012   -14.2356    -6.2350  C.ar    1  <O>11       0.0408
  12 C9       -6.6333   -13.7208    -7.3191  C.ar    1  <O>11      -0.0494
  13 C10      -7.9783   -14.0656    -7.4878  C.ar    1  <O>11      -0.0589
  14 C11      -8.6036   -14.9262    -6.5803  C.ar    1  <O>11      -0.0316
  15 C12      -7.8725   -15.4433    -5.5057  C.ar    1  <O>11       0.1223
  16 N2       -8.5202   -16.3311    -4.5744  N.4     1  <O>11       0.0060
  17 O3       -9.6384   -15.6502    -3.9544  O.2     1  <O>11      -0.1300
  18 O4       -7.5711   -16.7341    -3.5547  O.2     1  <O>11      -0.3961
  19 C13      -6.5298   -15.1073    -5.3306  C.ar    1  <O>11      -0.0195
  20 C14      -0.5527   -10.1366    -5.9237  C.ar    1  <O>11      -0.0561
  21 C15       0.7874    -9.7806    -5.7650  C.ar    1  <O>11      -0.0585
  22 H1        3.2314    -9.2521    -5.2971  H       1  <O>11       0.0278
  23 H2        3.4736   -10.7152    -4.3128  H       1  <O>11       0.0278
  24 H3        2.9942    -9.1880    -3.5342  H       1  <O>11       0.0278
  25 H4       -3.2062   -10.3508    -5.4244  H       1  <O>11       0.0634
  26 H5       -3.0418   -11.6101    -4.1770  H       1  <O>11       0.0634
  27 H6       -4.7690   -11.8830    -6.5977  H       1  <O>11       0.1828
  28 H7        1.3082   -11.1481    -2.7415  H       1  <O>11       0.0620
  29 H8       -1.0275   -11.7615    -3.0324  H       1  <O>11       0.0621
  30 H9       -6.1769   -13.0862    -7.9928  H       1  <O>11       0.0625
  31 H10      -8.5111   -13.6834    -8.2847  H       1  <O>11       0.0618
  32 H11      -9.5970   -15.1780    -6.7024  H       1  <O>11       0.0640
  33 H12      -6.7884   -17.1890    -3.7967  H       1  <O>11       0.3292
  34 H13      -5.9987   -15.4989    -4.5371  H       1  <O>11       0.0648
  35 H14      -1.0552    -9.8628    -6.7825  H       1  <O>11       0.0621
  36 H15       1.2744    -9.2420    -6.4983  H       1  <O>11       0.0620
@<TRIPOS>BOND
     1     1     2    1
     2     2     3   ar
     3     3     4   ar
     4     4     5   ar
     5     5     6    1
     6     6     7    1
     7     7     8    1
     8     8     9   am
     9     9    10    2
    10     9    11    1
    11    11    12   ar
    12    12    13   ar
    13    13    14   ar
    14    14    15   ar
    15    15    16    1
    16    16    17    2
    17    16    18    1
    18    15    19   ar
    19    11    19   ar
    20     5    20   ar
    21    20    21   ar
    22     2    21   ar
    23     1    22    1
    24     1    23    1
    25     1    24    1
    26     6    25    1
    27     6    26    1
    28     8    27    1
    29     3    28    1
    30     4    29    1
    31    12    30    1
    32    13    31    1
    33    14    32    1
    34    18    33    1
    35    19    34    1
    36    20    35    1
    37    21    36    1
@<TRIPOS>MOLECULE
mol39_1_30
 36 37 0 0 0
SMALL
USER_CHARGES
****
VDW energy = 187.48
@<TRIPOS>ATOM
   1 C1        2.8832    -9.8059    -4.4252  C.3     1  <O>11      -0.0397
   2 C2        1.4617   -10.1611    -4.6036  C.ar    1  <O>11      -0.0504
   3 C3        0.8050   -10.8783    -3.6012  C.ar    1  <O>11      -0.0585
   4 C4       -0.5391   -11.2290    -3.7692  C.ar    1  <O>11      -0.0561
   5 C5       -1.2224   -10.8607    -4.9311  C.ar    1  <O>11      -0.0196
   6 C6       -2.6400   -11.2300    -5.1160  C.3     1  <O>11       0.0983
   7 O1       -3.4675   -10.2042    -4.5926  O.3     1  <O>11      -0.2749
   8 N1       -4.2513    -9.6572    -5.6294  N.am    1  <O>11      -0.1902
   9 C7       -5.5933    -9.4678    -5.4446  C.2     1  <O>11       0.2668
  10 O2       -6.2722    -8.9932    -6.3442  O.2     1  <O>11      -0.2681
  11 C8       -6.2135    -9.8295    -4.1766  C.ar    1  <O>11       0.0408
  12 C9       -7.5922    -9.6370    -3.9814  C.ar    1  <O>11      -0.0494
  13 C10      -8.1847    -9.9755    -2.7604  C.ar    1  <O>11      -0.0589
  14 C11      -7.4100   -10.5095    -1.7261  C.ar    1  <O>11      -0.0316
  15 C12      -6.0394   -10.7070    -1.9236  C.ar    1  <O>11       0.1223
  16 N2       -5.2455   -11.2593    -0.8560  N.4     1  <O>11       0.0060
  17 O3       -5.8168   -12.5207    -0.4306  O.2     1  <O>11      -0.1300
  18 O4       -5.2288   -10.3329     0.2596  O.2     1  <O>11      -0.3961
  19 C13      -5.4398   -10.3749    -3.1389  C.ar    1  <O>11      -0.0195
  20 C14      -0.5527   -10.1366    -5.9237  C.ar    1  <O>11      -0.0561
  21 C15       0.7874    -9.7806    -5.7650  C.ar    1  <O>11      -0.0585
  22 H1        3.2314    -9.2521    -5.2971  H       1  <O>11       0.0278
  23 H2        3.4736   -10.7152    -4.3128  H       1  <O>11       0.0278
  24 H3        2.9942    -9.1880    -3.5342  H       1  <O>11       0.0278
  25 H4       -2.8424   -12.1643    -4.5918  H       1  <O>11       0.0634
  26 H5       -2.8467   -11.3573    -6.1784  H       1  <O>11       0.0634
  27 H6       -3.8167    -9.4031    -6.5178  H       1  <O>11       0.1828
  28 H7        1.3082   -11.1481    -2.7415  H       1  <O>11       0.0620
  29 H8       -1.0275   -11.7615    -3.0324  H       1  <O>11       0.0621
  30 H9       -8.1694    -9.2445    -4.7416  H       1  <O>11       0.0625
  31 H10      -9.1971    -9.8306    -2.6224  H       1  <O>11       0.0618
  32 H11      -7.8461   -10.7561    -0.8239  H       1  <O>11       0.0640
  33 H12      -4.8871    -9.4679     0.1453  H       1  <O>11       0.3292
  34 H13      -4.4287   -10.5299    -3.2752  H       1  <O>11       0.0648
  35 H14      -1.0552    -9.8628    -6.7825  H       1  <O>11       0.0621
  36 H15       1.2744    -9.2420    -6.4983  H       1  <O>11       0.0620
@<TRIPOS>BOND
     1     1     2    1
     2     2     3   ar
     3     3     4   ar
     4     4     5   ar
     5     5     6    1
     6     6     7    1
     7     7     8    1
     8     8     9   am
     9     9    10    2
    10     9    11    1
    11    11    12   ar
    12    12    13   ar
    13    13    14   ar
    14    14    15   ar
    15    15    16    1
    16    16    17    2
    17    16    18    1
    18    15    19   ar
    19    11    19   ar
    20     5    20   ar
    21    20    21   ar
    22     2    21   ar
    23     1    22    1
    24     1    23    1
    25     1    24    1
    26     6    25    1
    27     6    26    1
    28     8    27    1
    29     3    28    1
    30     4    29    1
    31    12    30    1
    32    13    31    1
    33    14    32    1
    34    18    33    1
    35    19    34    1
    36    20    35    1
    37    21    36    1
