@<TRIPOS>MOLECULE
mol4_1_1
 44 47 0 0 0
SMALL
USER_CHARGES
****
VDW energy = -15.05
@<TRIPOS>ATOM
   1 O1        1.8299    -7.4453    -5.2612  O.2     1  <O>11      -0.2684
   2 C1        2.7526    -7.8812    -5.9334  C.2     1  <O>11       0.2654
   3 N1        3.3490    -9.0650    -5.5910  N.am    1  <O>11      -0.2992
   4 C2        2.8830    -9.8060    -4.4250  C.3     1  <O>11       0.0740
   5 C3        3.9614   -10.6900    -3.9412  C.ar    1  <O>11      -0.0228
   6 C4        4.7979   -10.2469    -2.9139  C.ar    1  <O>11      -0.0565
   7 C5        5.8306   -11.0742    -2.4587  C.ar    1  <O>11      -0.0614
   8 C6        6.0209   -12.3385    -3.0239  C.ar    1  <O>11      -0.0617
   9 C7        5.1703   -12.7717    -4.0465  C.ar    1  <O>11      -0.0614
  10 C8        4.1352   -11.9542    -4.5070  C.ar    1  <O>11      -0.0565
  11 C9        1.7005   -10.6242    -4.7988  C.ar    1  <O>11      -0.0228
  12 C10       1.5625   -11.1137    -6.1081  C.ar    1  <O>11      -0.0565
  13 C11       0.4423   -11.8727    -6.4632  C.ar    1  <O>11      -0.0614
  14 C12      -0.5457   -12.1542    -5.5160  C.ar    1  <O>11      -0.0617
  15 C13      -0.4047   -11.6716    -4.2092  C.ar    1  <O>11      -0.0614
  16 C14       0.7092   -10.9152    -3.8463  C.ar    1  <O>11      -0.0565
  17 C15       3.2180    -7.1410    -7.0990  C.ar    1  <O>11       0.1533
  18 N2        2.6504    -7.3875    -8.3541  N.ar    1  <O>11      -0.1656
  19 N3        3.1423    -6.7851    -9.4620  N.ar    1  <O>11      -0.2420
  20 C16       4.1844    -5.9305    -9.3390  C.ar    1  <O>11       0.2725
  21 O2        4.7099    -5.4145   -10.5393  O.2     1  <O>11      -0.2658
  22 C17       4.7422    -5.5515    -8.1095  C.ar    1  <O>11       0.0501
  23 C18       5.7929    -4.6159    -7.9732  C.ar    1  <O>11      -0.0487
  24 C19       6.3238    -4.3069    -6.7203  C.ar    1  <O>11      -0.0610
  25 C20       5.8230    -4.9318    -5.5829  C.ar    1  <O>11      -0.0611
  26 C21       4.7918    -5.8641    -5.6997  C.ar    1  <O>11      -0.0516
  27 C22       4.2359    -6.1827    -6.9598  C.ar    1  <O>11       0.0195
  28 H1        4.1190    -9.4290    -6.1530  H       1  <O>11       0.1500
  29 H2        2.6059    -9.1058    -3.6369  H       1  <O>11       0.0599
  30 H3        2.7366    -6.9718   -10.3679  H       1  <O>11       0.1921
  31 H4        4.6551    -9.3153    -2.4935  H       1  <O>11       0.0621
  32 H5        6.4540   -10.7497    -1.7029  H       1  <O>11       0.0618
  33 H6        6.7835   -12.9480    -2.6891  H       1  <O>11       0.0618
  34 H7        5.3090   -13.7047    -4.4652  H       1  <O>11       0.0618
  35 H8        3.5062   -12.2812    -5.2570  H       1  <O>11       0.0621
  36 H9        2.2906   -10.9124    -6.8112  H       1  <O>11       0.0621
  37 H10       0.3453   -12.2261    -7.4279  H       1  <O>11       0.0618
  38 H11      -1.3727   -12.7133    -5.7776  H       1  <O>11       0.0618
  39 H12      -1.1326   -11.8779    -3.5073  H       1  <O>11       0.0618
  40 H13       0.8055   -10.5692    -2.8789  H       1  <O>11       0.0621
  41 H14       6.1736    -4.1539    -8.8138  H       1  <O>11       0.0625
  42 H15       7.0862    -3.6163    -6.6376  H       1  <O>11       0.0618
  43 H16       6.2134    -4.7063    -4.6545  H       1  <O>11       0.0618
  44 H17       4.4290    -6.3287    -4.8527  H       1  <O>11       0.0624
@<TRIPOS>BOND
     1     1     2    2
     2     2     3   am
     3     3     4    1
     4     4     5    1
     5     5     6   ar
     6     6     7   ar
     7     7     8   ar
     8     8     9   ar
     9     9    10   ar
    10     5    10   ar
    11     4    11    1
    12    11    12   ar
    13    12    13   ar
    14    13    14   ar
    15    14    15   ar
    16    15    16   ar
    17    11    16   ar
    18     2    17    1
    19    17    18   ar
    20    18    19   ar
    21    19    20   ar
    22    20    21    2
    23    20    22   ar
    24    22    23   ar
    25    23    24   ar
    26    24    25   ar
    27    25    26   ar
    28    26    27   ar
    29    17    27   ar
    30    22    27   ar
    31     3    28    1
    32     4    29    1
    33    19    30    1
    34     6    31    1
    35     7    32    1
    36     8    33    1
    37     9    34    1
    38    10    35    1
    39    12    36    1
    40    13    37    1
    41    14    38    1
    42    15    39    1
    43    16    40    1
    44    23    41    1
    45    24    42    1
    46    25    43    1
    47    26    44    1
@<TRIPOS>MOLECULE
mol4_1_2
 44 47 0 0 0
SMALL
USER_CHARGES
****
VDW energy = -14.66
@<TRIPOS>ATOM
   1 O1        1.8299    -7.4453    -5.2612  O.2     1  <O>11      -0.2684
   2 C1        2.7526    -7.8812    -5.9334  C.2     1  <O>11       0.2654
   3 N1        3.3490    -9.0650    -5.5910  N.am    1  <O>11      -0.2992
   4 C2        2.8830    -9.8060    -4.4250  C.3     1  <O>11       0.0740
   5 C3        3.0329    -8.9690    -3.2186  C.ar    1  <O>11      -0.0228
   6 C4        4.0595    -8.0230    -3.1676  C.ar    1  <O>11      -0.0565
   7 C5        4.2161    -7.2346    -2.0221  C.ar    1  <O>11      -0.0614
   8 C6        3.3474    -7.3882    -0.9376  C.ar    1  <O>11      -0.0617
   9 C7        2.3193    -8.3343    -1.0064  C.ar    1  <O>11      -0.0614
  10 C8        2.1533    -9.1251    -2.1461  C.ar    1  <O>11      -0.0565
  11 C9        3.6878   -11.0456    -4.2724  C.ar    1  <O>11      -0.0228
  12 C10       5.0782   -10.9698    -4.0883  C.ar    1  <O>11      -0.0565
  13 C11       5.8374   -12.1376    -3.9581  C.ar    1  <O>11      -0.0614
  14 C12       5.2170   -13.3887    -4.0050  C.ar    1  <O>11      -0.0617
  15 C13       3.8301   -13.4639    -4.1819  C.ar    1  <O>11      -0.0614
  16 C14       3.0655   -12.3048    -4.3115  C.ar    1  <O>11      -0.0565
  17 C15       3.2180    -7.1410    -7.0990  C.ar    1  <O>11       0.1533
  18 N2        4.2311    -6.1859    -6.9598  N.ar    1  <O>11      -0.1656
  19 N3        4.6013    -5.4173    -8.0108  N.ar    1  <O>11      -0.2420
  20 C16       3.9862    -5.5925    -9.2035  C.ar    1  <O>11       0.2725
  21 O2        4.3488    -4.6962   -10.2273  O.2     1  <O>11      -0.2658
  22 C17       3.0370    -6.5942    -9.4525  C.ar    1  <O>11       0.0501
  23 C18       2.4346    -6.8168   -10.7117  C.ar    1  <O>11      -0.0487
  24 C19       1.4721    -7.8123   -10.8835  C.ar    1  <O>11      -0.0610
  25 C20       1.0867    -8.5968    -9.8014  C.ar    1  <O>11      -0.0611
  26 C21       1.6646    -8.3854    -8.5495  C.ar    1  <O>11      -0.0516
  27 C22       2.6477    -7.3875    -8.3591  C.ar    1  <O>11       0.0195
  28 H1        4.1190    -9.4290    -6.1530  H       1  <O>11       0.1500
  29 H2        1.8333   -10.0683    -4.5573  H       1  <O>11       0.0599
  30 H3        5.3265    -4.7223    -7.9053  H       1  <O>11       0.1921
  31 H4        4.6984    -7.9063    -3.9696  H       1  <O>11       0.0621
  32 H5        4.9755    -6.5373    -1.9777  H       1  <O>11       0.0618
  33 H6        3.4638    -6.8077    -0.0923  H       1  <O>11       0.0618
  34 H7        1.6768    -8.4493    -0.2070  H       1  <O>11       0.0618
  35 H8        1.3890    -9.8168    -2.1946  H       1  <O>11       0.0621
  36 H9        5.5418   -10.0486    -4.0490  H       1  <O>11       0.0621
  37 H10       6.8591   -12.0748    -3.8269  H       1  <O>11       0.0618
  38 H11       5.7766   -14.2506    -3.9099  H       1  <O>11       0.0618
  39 H12       3.3689   -14.3865    -4.2168  H       1  <O>11       0.0618
  40 H13       2.0433   -12.3719    -4.4361  H       1  <O>11       0.0621
  41 H14       2.7111    -6.2336   -11.5170  H       1  <O>11       0.0625
  42 H15       1.0471    -7.9662   -11.8113  H       1  <O>11       0.0618
  43 H16       0.3747    -9.3338    -9.9245  H       1  <O>11       0.0618
  44 H17       1.3697    -8.9668    -7.7494  H       1  <O>11       0.0624
@<TRIPOS>BOND
     1     1     2    2
     2     2     3   am
     3     3     4    1
     4     4     5    1
     5     5     6   ar
     6     6     7   ar
     7     7     8   ar
     8     8     9   ar
     9     9    10   ar
    10     5    10   ar
    11     4    11    1
    12    11    12   ar
    13    12    13   ar
    14    13    14   ar
    15    14    15   ar
    16    15    16   ar
    17    11    16   ar
    18     2    17    1
    19    17    18   ar
    20    18    19   ar
    21    19    20   ar
    22    20    21    2
    23    20    22   ar
    24    22    23   ar
    25    23    24   ar
    26    24    25   ar
    27    25    26   ar
    28    26    27   ar
    29    17    27   ar
    30    22    27   ar
    31     3    28    1
    32     4    29    1
    33    19    30    1
    34     6    31    1
    35     7    32    1
    36     8    33    1
    37     9    34    1
    38    10    35    1
    39    12    36    1
    40    13    37    1
    41    14    38    1
    42    15    39    1
    43    16    40    1
    44    23    41    1
    45    24    42    1
    46    25    43    1
    47    26    44    1
@<TRIPOS>MOLECULE
mol4_1_3
 44 47 0 0 0
SMALL
USER_CHARGES
****
VDW energy = -14.05
@<TRIPOS>ATOM
   1 O1        1.8299    -7.4453    -5.2612  O.2     1  <O>11      -0.2684
   2 C1        2.7526    -7.8812    -5.9334  C.2     1  <O>11       0.2654
   3 N1        3.3490    -9.0650    -5.5910  N.am    1  <O>11      -0.2992
   4 C2        2.8830    -9.8060    -4.4250  C.3     1  <O>11       0.0740
   5 C3        3.9614   -10.6900    -3.9412  C.ar    1  <O>11      -0.0228
   6 C4        4.7979   -10.2469    -2.9139  C.ar    1  <O>11      -0.0565
   7 C5        5.8306   -11.0742    -2.4587  C.ar    1  <O>11      -0.0614
   8 C6        6.0209   -12.3385    -3.0239  C.ar    1  <O>11      -0.0617
   9 C7        5.1703   -12.7717    -4.0465  C.ar    1  <O>11      -0.0614
  10 C8        4.1352   -11.9542    -4.5070  C.ar    1  <O>11      -0.0565
  11 C9        1.7005   -10.6242    -4.7988  C.ar    1  <O>11      -0.0228
  12 C10       1.5625   -11.1137    -6.1081  C.ar    1  <O>11      -0.0565
  13 C11       0.4423   -11.8727    -6.4632  C.ar    1  <O>11      -0.0614
  14 C12      -0.5457   -12.1542    -5.5160  C.ar    1  <O>11      -0.0617
  15 C13      -0.4047   -11.6716    -4.2092  C.ar    1  <O>11      -0.0614
  16 C14       0.7092   -10.9152    -3.8463  C.ar    1  <O>11      -0.0565
  17 C15       3.2180    -7.1410    -7.0990  C.ar    1  <O>11       0.1533
  18 N2        4.2311    -6.1859    -6.9598  N.ar    1  <O>11      -0.1656
  19 N3        4.6013    -5.4173    -8.0108  N.ar    1  <O>11      -0.2420
  20 C16       3.9862    -5.5925    -9.2035  C.ar    1  <O>11       0.2725
  21 O2        4.3488    -4.6962   -10.2273  O.2     1  <O>11      -0.2658
  22 C17       3.0370    -6.5942    -9.4525  C.ar    1  <O>11       0.0501
  23 C18       2.4346    -6.8168   -10.7117  C.ar    1  <O>11      -0.0487
  24 C19       1.4721    -7.8123   -10.8835  C.ar    1  <O>11      -0.0610
  25 C20       1.0867    -8.5968    -9.8014  C.ar    1  <O>11      -0.0611
  26 C21       1.6646    -8.3854    -8.5495  C.ar    1  <O>11      -0.0516
  27 C22       2.6477    -7.3875    -8.3591  C.ar    1  <O>11       0.0195
  28 H1        4.1190    -9.4290    -6.1530  H       1  <O>11       0.1500
  29 H2        2.6059    -9.1058    -3.6369  H       1  <O>11       0.0599
  30 H3        5.3265    -4.7223    -7.9053  H       1  <O>11       0.1921
  31 H4        4.6551    -9.3153    -2.4935  H       1  <O>11       0.0621
  32 H5        6.4540   -10.7497    -1.7029  H       1  <O>11       0.0618
  33 H6        6.7835   -12.9480    -2.6891  H       1  <O>11       0.0618
  34 H7        5.3090   -13.7047    -4.4652  H       1  <O>11       0.0618
  35 H8        3.5062   -12.2812    -5.2570  H       1  <O>11       0.0621
  36 H9        2.2906   -10.9124    -6.8112  H       1  <O>11       0.0621
  37 H10       0.3453   -12.2261    -7.4279  H       1  <O>11       0.0618
  38 H11      -1.3727   -12.7133    -5.7776  H       1  <O>11       0.0618
  39 H12      -1.1326   -11.8779    -3.5073  H       1  <O>11       0.0618
  40 H13       0.8055   -10.5692    -2.8789  H       1  <O>11       0.0621
  41 H14       2.7111    -6.2336   -11.5170  H       1  <O>11       0.0625
  42 H15       1.0471    -7.9662   -11.8113  H       1  <O>11       0.0618
  43 H16       0.3747    -9.3338    -9.9245  H       1  <O>11       0.0618
  44 H17       1.3697    -8.9668    -7.7494  H       1  <O>11       0.0624
@<TRIPOS>BOND
     1     1     2    2
     2     2     3   am
     3     3     4    1
     4     4     5    1
     5     5     6   ar
     6     6     7   ar
     7     7     8   ar
     8     8     9   ar
     9     9    10   ar
    10     5    10   ar
    11     4    11    1
    12    11    12   ar
    13    12    13   ar
    14    13    14   ar
    15    14    15   ar
    16    15    16   ar
    17    11    16   ar
    18     2    17    1
    19    17    18   ar
    20    18    19   ar
    21    19    20   ar
    22    20    21    2
    23    20    22   ar
    24    22    23   ar
    25    23    24   ar
    26    24    25   ar
    27    25    26   ar
    28    26    27   ar
    29    17    27   ar
    30    22    27   ar
    31     3    28    1
    32     4    29    1
    33    19    30    1
    34     6    31    1
    35     7    32    1
    36     8    33    1
    37     9    34    1
    38    10    35    1
    39    12    36    1
    40    13    37    1
    41    14    38    1
    42    15    39    1
    43    16    40    1
    44    23    41    1
    45    24    42    1
    46    25    43    1
    47    26    44    1
@<TRIPOS>MOLECULE
mol4_1_4
 44 47 0 0 0
SMALL
USER_CHARGES
****
VDW energy = -13.08
@<TRIPOS>ATOM
   1 O1        1.8299    -7.4453    -5.2612  O.2     1  <O>11      -0.2684
   2 C1        2.7526    -7.8812    -5.9334  C.2     1  <O>11       0.2654
   3 N1        3.3490    -9.0650    -5.5910  N.am    1  <O>11      -0.2992
   4 C2        2.8830    -9.8060    -4.4250  C.3     1  <O>11       0.0740
   5 C3        3.6831   -11.0370    -4.2729  C.ar    1  <O>11      -0.0228
   6 C4        4.2157   -11.6495    -5.4099  C.ar    1  <O>11      -0.0565
   7 C5        4.9645   -12.8239    -5.2750  C.ar    1  <O>11      -0.0614
   8 C6        5.1835   -13.3780    -4.0104  C.ar    1  <O>11      -0.0617
   9 C7        4.6503   -12.7490    -2.8804  C.ar    1  <O>11      -0.0614
  10 C8        3.9028   -11.5752    -3.0040  C.ar    1  <O>11      -0.0565
  11 C9        1.4520   -10.1631    -4.6050  C.ar    1  <O>11      -0.0228
  12 C10       1.0513   -10.9589    -5.6908  C.ar    1  <O>11      -0.0565
  13 C11      -0.2979   -11.2837    -5.8675  C.ar    1  <O>11      -0.0614
  14 C12      -1.2568   -10.8229    -4.9616  C.ar    1  <O>11      -0.0617
  15 C13      -0.8563   -10.0349    -3.8757  C.ar    1  <O>11      -0.0614
  16 C14       0.4867    -9.7073    -3.6914  C.ar    1  <O>11      -0.0565
  17 C15       3.2180    -7.1410    -7.0990  C.ar    1  <O>11       0.1533
  18 N2        4.2311    -6.1859    -6.9598  N.ar    1  <O>11      -0.1656
  19 N3        4.6013    -5.4173    -8.0108  N.ar    1  <O>11      -0.2420
  20 C16       3.9862    -5.5925    -9.2035  C.ar    1  <O>11       0.2725
  21 O2        4.3488    -4.6962   -10.2273  O.2     1  <O>11      -0.2658
  22 C17       3.0370    -6.5942    -9.4525  C.ar    1  <O>11       0.0501
  23 C18       2.4346    -6.8168   -10.7117  C.ar    1  <O>11      -0.0487
  24 C19       1.4721    -7.8123   -10.8835  C.ar    1  <O>11      -0.0610
  25 C20       1.0867    -8.5968    -9.8014  C.ar    1  <O>11      -0.0611
  26 C21       1.6646    -8.3854    -8.5495  C.ar    1  <O>11      -0.0516
  27 C22       2.6477    -7.3875    -8.3591  C.ar    1  <O>11       0.0195
  28 H1        4.1190    -9.4290    -6.1530  H       1  <O>11       0.1500
  29 H2        2.9939    -9.1880    -3.5340  H       1  <O>11       0.0599
  30 H3        5.3265    -4.7223    -7.9053  H       1  <O>11       0.1921
  31 H4        4.0579   -11.2385    -6.3432  H       1  <O>11       0.0621
  32 H5        5.3565   -13.2827    -6.1123  H       1  <O>11       0.0618
  33 H6        5.7345   -14.2450    -3.9112  H       1  <O>11       0.0618
  34 H7        4.8108   -13.1563    -1.9458  H       1  <O>11       0.0618
  35 H8        3.5175   -11.1112    -2.1665  H       1  <O>11       0.0621
  36 H9        1.7552   -11.3056    -6.3612  H       1  <O>11       0.0621
  37 H10      -0.5860   -11.8657    -6.6695  H       1  <O>11       0.0618
  38 H11      -2.2524   -11.0614    -5.0919  H       1  <O>11       0.0618
  39 H12      -1.5621    -9.6931    -3.2049  H       1  <O>11       0.0618
  40 H13       0.7713    -9.1304    -2.8844  H       1  <O>11       0.0621
  41 H14       2.7111    -6.2336   -11.5170  H       1  <O>11       0.0625
  42 H15       1.0471    -7.9662   -11.8113  H       1  <O>11       0.0618
  43 H16       0.3747    -9.3338    -9.9245  H       1  <O>11       0.0618
  44 H17       1.3697    -8.9668    -7.7494  H       1  <O>11       0.0624
@<TRIPOS>BOND
     1     1     2    2
     2     2     3   am
     3     3     4    1
     4     4     5    1
     5     5     6   ar
     6     6     7   ar
     7     7     8   ar
     8     8     9   ar
     9     9    10   ar
    10     5    10   ar
    11     4    11    1
    12    11    12   ar
    13    12    13   ar
    14    13    14   ar
    15    14    15   ar
    16    15    16   ar
    17    11    16   ar
    18     2    17    1
    19    17    18   ar
    20    18    19   ar
    21    19    20   ar
    22    20    21    2
    23    20    22   ar
    24    22    23   ar
    25    23    24   ar
    26    24    25   ar
    27    25    26   ar
    28    26    27   ar
    29    17    27   ar
    30    22    27   ar
    31     3    28    1
    32     4    29    1
    33    19    30    1
    34     6    31    1
    35     7    32    1
    36     8    33    1
    37     9    34    1
    38    10    35    1
    39    12    36    1
    40    13    37    1
    41    14    38    1
    42    15    39    1
    43    16    40    1
    44    23    41    1
    45    24    42    1
    46    25    43    1
    47    26    44    1
@<TRIPOS>MOLECULE
mol4_1_5
 44 47 0 0 0
SMALL
USER_CHARGES
****
VDW energy = -12.65
@<TRIPOS>ATOM
   1 O1        1.8299    -7.4453    -5.2612  O.2     1  <O>11      -0.2684
   2 C1        2.7526    -7.8812    -5.9334  C.2     1  <O>11       0.2654
   3 N1        3.3490    -9.0650    -5.5910  N.am    1  <O>11      -0.2992
   4 C2        4.4501    -9.5856    -6.3925  C.3     1  <O>11       0.0740
   5 C3        4.5523   -11.0451    -6.1982  C.ar    1  <O>11      -0.0228
   6 C4        3.9229   -11.9002    -7.1060  C.ar    1  <O>11      -0.0565
   7 C5        4.0045   -13.2849    -6.9212  C.ar    1  <O>11      -0.0614
   8 C6        4.7161   -13.8100    -5.8385  C.ar    1  <O>11      -0.0617
   9 C7        5.3478   -12.9414    -4.9422  C.ar    1  <O>11      -0.0614
  10 C8        5.2739   -11.5574    -5.1187  C.ar    1  <O>11      -0.0565
  11 C9        5.7190    -8.9384    -5.9698  C.ar    1  <O>11      -0.0228
  12 C10       5.8886    -8.5104    -4.6429  C.ar    1  <O>11      -0.0565
  13 C11       7.0783    -7.8890    -4.2486  C.ar    1  <O>11      -0.0614
  14 C12       8.1094    -7.6940    -5.1712  C.ar    1  <O>11      -0.0617
  15 C13       7.9426    -8.1267    -6.4924  C.ar    1  <O>11      -0.0614
  16 C14       6.7604    -8.7480    -6.8937  C.ar    1  <O>11      -0.0565
  17 C15       3.2180    -7.1410    -7.0990  C.ar    1  <O>11       0.1533
  18 N2        4.2311    -6.1859    -6.9598  N.ar    1  <O>11      -0.1656
  19 N3        4.6013    -5.4173    -8.0108  N.ar    1  <O>11      -0.2420
  20 C16       3.9862    -5.5925    -9.2035  C.ar    1  <O>11       0.2725
  21 O2        4.3488    -4.6962   -10.2273  O.2     1  <O>11      -0.2658
  22 C17       3.0370    -6.5942    -9.4525  C.ar    1  <O>11       0.0501
  23 C18       2.4346    -6.8168   -10.7117  C.ar    1  <O>11      -0.0487
  24 C19       1.4721    -7.8123   -10.8835  C.ar    1  <O>11      -0.0610
  25 C20       1.0867    -8.5968    -9.8014  C.ar    1  <O>11      -0.0611
  26 C21       1.6646    -8.3854    -8.5495  C.ar    1  <O>11      -0.0516
  27 C22       2.6477    -7.3875    -8.3591  C.ar    1  <O>11       0.0195
  28 H1        3.0233    -9.5821    -4.7739  H       1  <O>11       0.1500
  29 H2        4.2659    -9.3710    -7.4452  H       1  <O>11       0.0599
  30 H3        5.3265    -4.7223    -7.9053  H       1  <O>11       0.1921
  31 H4        3.4010   -11.5131    -7.9077  H       1  <O>11       0.0621
  32 H5        3.5376   -13.9208    -7.5865  H       1  <O>11       0.0618
  33 H6        4.7750   -14.8312    -5.7015  H       1  <O>11       0.0618
  34 H7        5.8737   -13.3268    -4.1423  H       1  <O>11       0.0618
  35 H8        5.7474   -10.9211    -4.4585  H       1  <O>11       0.0621
  36 H9        5.1323    -8.6549    -3.9558  H       1  <O>11       0.0621
  37 H10       7.1949    -7.5735    -3.2729  H       1  <O>11       0.0618
  38 H11       8.9869    -7.2349    -4.8812  H       1  <O>11       0.0618
  39 H12       8.7023    -7.9843    -7.1762  H       1  <O>11       0.0618
  40 H13       6.6504    -9.0678    -7.8688  H       1  <O>11       0.0621
  41 H14       2.7111    -6.2336   -11.5170  H       1  <O>11       0.0625
  42 H15       1.0471    -7.9662   -11.8113  H       1  <O>11       0.0618
  43 H16       0.3747    -9.3338    -9.9245  H       1  <O>11       0.0618
  44 H17       1.3697    -8.9668    -7.7494  H       1  <O>11       0.0624
@<TRIPOS>BOND
     1     1     2    2
     2     2     3   am
     3     3     4    1
     4     4     5    1
     5     5     6   ar
     6     6     7   ar
     7     7     8   ar
     8     8     9   ar
     9     9    10   ar
    10     5    10   ar
    11     4    11    1
    12    11    12   ar
    13    12    13   ar
    14    13    14   ar
    15    14    15   ar
    16    15    16   ar
    17    11    16   ar
    18     2    17    1
    19    17    18   ar
    20    18    19   ar
    21    19    20   ar
    22    20    21    2
    23    20    22   ar
    24    22    23   ar
    25    23    24   ar
    26    24    25   ar
    27    25    26   ar
    28    26    27   ar
    29    17    27   ar
    30    22    27   ar
    31     3    28    1
    32     4    29    1
    33    19    30    1
    34     6    31    1
    35     7    32    1
    36     8    33    1
    37     9    34    1
    38    10    35    1
    39    12    36    1
    40    13    37    1
    41    14    38    1
    42    15    39    1
    43    16    40    1
    44    23    41    1
    45    24    42    1
    46    25    43    1
    47    26    44    1
@<TRIPOS>MOLECULE
mol4_1_6
 44 47 0 0 0
SMALL
USER_CHARGES
****
VDW energy = -10.44
@<TRIPOS>ATOM
   1 O1        1.8299    -7.4453    -5.2612  O.2     1  <O>11      -0.2684
   2 C1        2.7526    -7.8812    -5.9334  C.2     1  <O>11       0.2654
   3 N1        3.3490    -9.0650    -5.5910  N.am    1  <O>11      -0.2992
   4 C2        4.4501    -9.5856    -6.3925  C.3     1  <O>11       0.0740
   5 C3        4.5523   -11.0451    -6.1982  C.ar    1  <O>11      -0.0228
   6 C4        4.1616   -11.6000    -4.9771  C.ar    1  <O>11      -0.0565
   7 C5        4.2677   -12.9815    -4.7808  C.ar    1  <O>11      -0.0614
   8 C6        4.7559   -13.8023    -5.8016  C.ar    1  <O>11      -0.0617
   9 C7        5.1359   -13.2331    -7.0216  C.ar    1  <O>11      -0.0614
  10 C8        5.0323   -11.8553    -7.2285  C.ar    1  <O>11      -0.0565
  11 C9        5.7190    -8.9384    -5.9698  C.ar    1  <O>11      -0.0228
  12 C10       5.8886    -8.5104    -4.6429  C.ar    1  <O>11      -0.0565
  13 C11       7.0783    -7.8890    -4.2486  C.ar    1  <O>11      -0.0614
  14 C12       8.1094    -7.6940    -5.1712  C.ar    1  <O>11      -0.0617
  15 C13       7.9426    -8.1267    -6.4924  C.ar    1  <O>11      -0.0614
  16 C14       6.7604    -8.7480    -6.8937  C.ar    1  <O>11      -0.0565
  17 C15       3.2180    -7.1410    -7.0990  C.ar    1  <O>11       0.1533
  18 N2        4.2311    -6.1859    -6.9598  N.ar    1  <O>11      -0.1656
  19 N3        4.6013    -5.4173    -8.0108  N.ar    1  <O>11      -0.2420
  20 C16       3.9862    -5.5925    -9.2035  C.ar    1  <O>11       0.2725
  21 O2        4.3488    -4.6962   -10.2273  O.2     1  <O>11      -0.2658
  22 C17       3.0370    -6.5942    -9.4525  C.ar    1  <O>11       0.0501
  23 C18       2.4346    -6.8168   -10.7117  C.ar    1  <O>11      -0.0487
  24 C19       1.4721    -7.8123   -10.8835  C.ar    1  <O>11      -0.0610
  25 C20       1.0867    -8.5968    -9.8014  C.ar    1  <O>11      -0.0611
  26 C21       1.6646    -8.3854    -8.5495  C.ar    1  <O>11      -0.0516
  27 C22       2.6477    -7.3875    -8.3591  C.ar    1  <O>11       0.0195
  28 H1        3.0233    -9.5821    -4.7739  H       1  <O>11       0.1500
  29 H2        4.2659    -9.3710    -7.4452  H       1  <O>11       0.0599
  30 H3        5.3265    -4.7223    -7.9053  H       1  <O>11       0.1921
  31 H4        3.7971   -10.9950    -4.2247  H       1  <O>11       0.0621
  32 H5        3.9844   -13.3958    -3.8790  H       1  <O>11       0.0618
  33 H6        4.8355   -14.8209    -5.6562  H       1  <O>11       0.0618
  34 H7        5.4965   -13.8372    -7.7767  H       1  <O>11       0.0618
  35 H8        5.3075   -11.4412    -8.1328  H       1  <O>11       0.0621
  36 H9        5.1323    -8.6549    -3.9558  H       1  <O>11       0.0621
  37 H10       7.1949    -7.5735    -3.2729  H       1  <O>11       0.0618
  38 H11       8.9869    -7.2349    -4.8812  H       1  <O>11       0.0618
  39 H12       8.7023    -7.9843    -7.1762  H       1  <O>11       0.0618
  40 H13       6.6504    -9.0678    -7.8688  H       1  <O>11       0.0621
  41 H14       2.7111    -6.2336   -11.5170  H       1  <O>11       0.0625
  42 H15       1.0471    -7.9662   -11.8113  H       1  <O>11       0.0618
  43 H16       0.3747    -9.3338    -9.9245  H       1  <O>11       0.0618
  44 H17       1.3697    -8.9668    -7.7494  H       1  <O>11       0.0624
@<TRIPOS>BOND
     1     1     2    2
     2     2     3   am
     3     3     4    1
     4     4     5    1
     5     5     6   ar
     6     6     7   ar
     7     7     8   ar
     8     8     9   ar
     9     9    10   ar
    10     5    10   ar
    11     4    11    1
    12    11    12   ar
    13    12    13   ar
    14    13    14   ar
    15    14    15   ar
    16    15    16   ar
    17    11    16   ar
    18     2    17    1
    19    17    18   ar
    20    18    19   ar
    21    19    20   ar
    22    20    21    2
    23    20    22   ar
    24    22    23   ar
    25    23    24   ar
    26    24    25   ar
    27    25    26   ar
    28    26    27   ar
    29    17    27   ar
    30    22    27   ar
    31     3    28    1
    32     4    29    1
    33    19    30    1
    34     6    31    1
    35     7    32    1
    36     8    33    1
    37     9    34    1
    38    10    35    1
    39    12    36    1
    40    13    37    1
    41    14    38    1
    42    15    39    1
    43    16    40    1
    44    23    41    1
    45    24    42    1
    46    25    43    1
    47    26    44    1
@<TRIPOS>MOLECULE
mol4_1_7
 44 47 0 0 0
SMALL
USER_CHARGES
****
VDW energy = -9.65
@<TRIPOS>ATOM
   1 O1        1.8299    -7.4453    -5.2612  O.2     1  <O>11      -0.2684
   2 C1        2.7526    -7.8812    -5.9334  C.2     1  <O>11       0.2654
   3 N1        3.3490    -9.0650    -5.5910  N.am    1  <O>11      -0.2992
   4 C2        4.4501    -9.5856    -6.3925  C.3     1  <O>11       0.0740
   5 C3        4.5523   -11.0451    -6.1982  C.ar    1  <O>11      -0.0228
   6 C4        3.9229   -11.9002    -7.1060  C.ar    1  <O>11      -0.0565
   7 C5        4.0045   -13.2849    -6.9212  C.ar    1  <O>11      -0.0614
   8 C6        4.7161   -13.8100    -5.8385  C.ar    1  <O>11      -0.0617
   9 C7        5.3478   -12.9414    -4.9422  C.ar    1  <O>11      -0.0614
  10 C8        5.2739   -11.5574    -5.1187  C.ar    1  <O>11      -0.0565
  11 C9        5.7190    -8.9384    -5.9698  C.ar    1  <O>11      -0.0228
  12 C10       6.9297    -9.2755    -6.5969  C.ar    1  <O>11      -0.0565
  13 C11       8.1262    -8.6759    -6.1896  C.ar    1  <O>11      -0.0614
  14 C12       8.1249    -7.7327    -5.1587  C.ar    1  <O>11      -0.0617
  15 C13       6.9169    -7.3919    -4.5380  C.ar    1  <O>11      -0.0614
  16 C14       5.7195    -7.9840    -4.9386  C.ar    1  <O>11      -0.0565
  17 C15       3.2180    -7.1410    -7.0990  C.ar    1  <O>11       0.1533
  18 N2        4.2311    -6.1859    -6.9598  N.ar    1  <O>11      -0.1656
  19 N3        4.6013    -5.4173    -8.0108  N.ar    1  <O>11      -0.2420
  20 C16       3.9862    -5.5925    -9.2035  C.ar    1  <O>11       0.2725
  21 O2        4.3488    -4.6962   -10.2273  O.2     1  <O>11      -0.2658
  22 C17       3.0370    -6.5942    -9.4525  C.ar    1  <O>11       0.0501
  23 C18       2.4346    -6.8168   -10.7117  C.ar    1  <O>11      -0.0487
  24 C19       1.4721    -7.8123   -10.8835  C.ar    1  <O>11      -0.0610
  25 C20       1.0867    -8.5968    -9.8014  C.ar    1  <O>11      -0.0611
  26 C21       1.6646    -8.3854    -8.5495  C.ar    1  <O>11      -0.0516
  27 C22       2.6477    -7.3875    -8.3591  C.ar    1  <O>11       0.0195
  28 H1        3.0233    -9.5821    -4.7739  H       1  <O>11       0.1500
  29 H2        4.2659    -9.3710    -7.4452  H       1  <O>11       0.0599
  30 H3        5.3265    -4.7223    -7.9053  H       1  <O>11       0.1921
  31 H4        3.4010   -11.5131    -7.9077  H       1  <O>11       0.0621
  32 H5        3.5376   -13.9208    -7.5865  H       1  <O>11       0.0618
  33 H6        4.7750   -14.8312    -5.7015  H       1  <O>11       0.0618
  34 H7        5.8737   -13.3268    -4.1423  H       1  <O>11       0.0618
  35 H8        5.7474   -10.9211    -4.4585  H       1  <O>11       0.0621
  36 H9        6.9368    -9.9687    -7.3615  H       1  <O>11       0.0621
  37 H10       9.0128    -8.9310    -6.6520  H       1  <O>11       0.0618
  38 H11       9.0073    -7.2906    -4.8571  H       1  <O>11       0.0618
  39 H12       6.9126    -6.6956    -3.7764  H       1  <O>11       0.0618
  40 H13       4.8342    -7.7214    -4.4778  H       1  <O>11       0.0621
  41 H14       2.7111    -6.2336   -11.5170  H       1  <O>11       0.0625
  42 H15       1.0471    -7.9662   -11.8113  H       1  <O>11       0.0618
  43 H16       0.3747    -9.3338    -9.9245  H       1  <O>11       0.0618
  44 H17       1.3697    -8.9668    -7.7494  H       1  <O>11       0.0624
@<TRIPOS>BOND
     1     1     2    2
     2     2     3   am
     3     3     4    1
     4     4     5    1
     5     5     6   ar
     6     6     7   ar
     7     7     8   ar
     8     8     9   ar
     9     9    10   ar
    10     5    10   ar
    11     4    11    1
    12    11    12   ar
    13    12    13   ar
    14    13    14   ar
    15    14    15   ar
    16    15    16   ar
    17    11    16   ar
    18     2    17    1
    19    17    18   ar
    20    18    19   ar
    21    19    20   ar
    22    20    21    2
    23    20    22   ar
    24    22    23   ar
    25    23    24   ar
    26    24    25   ar
    27    25    26   ar
    28    26    27   ar
    29    17    27   ar
    30    22    27   ar
    31     3    28    1
    32     4    29    1
    33    19    30    1
    34     6    31    1
    35     7    32    1
    36     8    33    1
    37     9    34    1
    38    10    35    1
    39    12    36    1
    40    13    37    1
    41    14    38    1
    42    15    39    1
    43    16    40    1
    44    23    41    1
    45    24    42    1
    46    25    43    1
    47    26    44    1
@<TRIPOS>MOLECULE
mol4_1_8
 44 47 0 0 0
SMALL
USER_CHARGES
****
VDW energy = -6.81
@<TRIPOS>ATOM
   1 O1        1.8299    -7.4453    -5.2612  O.2     1  <O>11      -0.2684
   2 C1        2.7526    -7.8812    -5.9334  C.2     1  <O>11       0.2654
   3 N1        3.3490    -9.0650    -5.5910  N.am    1  <O>11      -0.2992
   4 C2        2.8830    -9.8060    -4.4250  C.3     1  <O>11       0.0740
   5 C3        3.9614   -10.6900    -3.9412  C.ar    1  <O>11      -0.0228
   6 C4        4.4741   -11.6705    -4.7940  C.ar    1  <O>11      -0.0565
   7 C5        5.4877   -12.5209    -4.3382  C.ar    1  <O>11      -0.0614
   8 C6        5.9885   -12.3868    -3.0400  C.ar    1  <O>11      -0.0617
   9 C7        5.4705   -11.3952    -2.2002  C.ar    1  <O>11      -0.0614
  10 C8        4.4598   -10.5399    -2.6461  C.ar    1  <O>11      -0.0565
  11 C9        1.7005   -10.6242    -4.7988  C.ar    1  <O>11      -0.0228
  12 C10       1.5625   -11.1137    -6.1081  C.ar    1  <O>11      -0.0565
  13 C11       0.4423   -11.8727    -6.4632  C.ar    1  <O>11      -0.0614
  14 C12      -0.5457   -12.1542    -5.5160  C.ar    1  <O>11      -0.0617
  15 C13      -0.4047   -11.6716    -4.2092  C.ar    1  <O>11      -0.0614
  16 C14       0.7092   -10.9152    -3.8463  C.ar    1  <O>11      -0.0565
  17 C15       3.2180    -7.1410    -7.0990  C.ar    1  <O>11       0.1533
  18 N2        2.2937    -6.5127    -7.9410  N.ar    1  <O>11      -0.1656
  19 N3        2.7012    -5.9108    -9.0828  N.ar    1  <O>11      -0.2420
  20 C16       4.0182    -5.9138    -9.3948  C.ar    1  <O>11       0.2725
  21 O2        4.3627    -5.3575   -10.6418  O.2     1  <O>11      -0.2658
  22 C17       5.0175    -6.4296    -8.5572  C.ar    1  <O>11       0.0501
  23 C18       6.3988    -6.3834    -8.8537  C.ar    1  <O>11      -0.0487
  24 C19       7.3399    -6.9446    -7.9896  C.ar    1  <O>11      -0.0610
  25 C20       6.9198    -7.5697    -6.8201  C.ar    1  <O>11      -0.0611
  26 C21       5.5598    -7.6320    -6.5158  C.ar    1  <O>11      -0.0516
  27 C22       4.5932    -7.0610    -7.3749  C.ar    1  <O>11       0.0195
  28 H1        4.1190    -9.4290    -6.1530  H       1  <O>11       0.1500
  29 H2        2.6059    -9.1058    -3.6369  H       1  <O>11       0.0599
  30 H3        2.0308    -5.4659    -9.6934  H       1  <O>11       0.1921
  31 H4        4.1077   -11.7671    -5.7539  H       1  <O>11       0.0621
  32 H5        5.8669   -13.2498    -4.9628  H       1  <O>11       0.0618
  33 H6        6.7350   -13.0150    -2.7034  H       1  <O>11       0.0618
  34 H7        5.8388   -11.2943    -1.2414  H       1  <O>11       0.0618
  35 H8        4.0859    -9.8055    -2.0250  H       1  <O>11       0.0621
  36 H9        2.2906   -10.9124    -6.8112  H       1  <O>11       0.0621
  37 H10       0.3453   -12.2261    -7.4279  H       1  <O>11       0.0618
  38 H11      -1.3727   -12.7133    -5.7776  H       1  <O>11       0.0618
  39 H12      -1.1326   -11.8779    -3.5073  H       1  <O>11       0.0618
  40 H13       0.8055   -10.5692    -2.8789  H       1  <O>11       0.0621
  41 H14       6.7165    -5.9273    -9.7232  H       1  <O>11       0.0625
  42 H15       8.3451    -6.8961    -8.2178  H       1  <O>11       0.0618
  43 H16       7.6128    -7.9865    -6.1788  H       1  <O>11       0.0618
  44 H17       5.2544    -8.1026    -5.6496  H       1  <O>11       0.0624
@<TRIPOS>BOND
     1     1     2    2
     2     2     3   am
     3     3     4    1
     4     4     5    1
     5     5     6   ar
     6     6     7   ar
     7     7     8   ar
     8     8     9   ar
     9     9    10   ar
    10     5    10   ar
    11     4    11    1
    12    11    12   ar
    13    12    13   ar
    14    13    14   ar
    15    14    15   ar
    16    15    16   ar
    17    11    16   ar
    18     2    17    1
    19    17    18   ar
    20    18    19   ar
    21    19    20   ar
    22    20    21    2
    23    20    22   ar
    24    22    23   ar
    25    23    24   ar
    26    24    25   ar
    27    25    26   ar
    28    26    27   ar
    29    17    27   ar
    30    22    27   ar
    31     3    28    1
    32     4    29    1
    33    19    30    1
    34     6    31    1
    35     7    32    1
    36     8    33    1
    37     9    34    1
    38    10    35    1
    39    12    36    1
    40    13    37    1
    41    14    38    1
    42    15    39    1
    43    16    40    1
    44    23    41    1
    45    24    42    1
    46    25    43    1
    47    26    44    1
@<TRIPOS>MOLECULE
mol4_1_9
 44 47 0 0 0
SMALL
USER_CHARGES
****
VDW energy = -5.72
@<TRIPOS>ATOM
   1 O1        1.8299    -7.4453    -5.2612  O.2     1  <O>11      -0.2684
   2 C1        2.7526    -7.8812    -5.9334  C.2     1  <O>11       0.2654
   3 N1        3.3490    -9.0650    -5.5910  N.am    1  <O>11      -0.2992
   4 C2        2.8830    -9.8060    -4.4250  C.3     1  <O>11       0.0740
   5 C3        3.0329    -8.9690    -3.2186  C.ar    1  <O>11      -0.0228
   6 C4        1.9430    -8.2208    -2.7673  C.ar    1  <O>11      -0.0565
   7 C5        2.0812    -7.4149    -1.6317  C.ar    1  <O>11      -0.0614
   8 C6        3.3001    -7.3629    -0.9493  C.ar    1  <O>11      -0.0617
   9 C7        4.3803    -8.1239    -1.4086  C.ar    1  <O>11      -0.0614
  10 C8        4.2523    -8.9330    -2.5402  C.ar    1  <O>11      -0.0565
  11 C9        3.6878   -11.0456    -4.2724  C.ar    1  <O>11      -0.0228
  12 C10       5.0240   -11.0808    -4.7037  C.ar    1  <O>11      -0.0565
  13 C11       5.7773   -12.2522    -4.5721  C.ar    1  <O>11      -0.0614
  14 C12       5.2073   -13.3951    -4.0054  C.ar    1  <O>11      -0.0617
  15 C13       3.8772   -13.3579    -3.5695  C.ar    1  <O>11      -0.0614
  16 C14       3.1194   -12.1941    -3.6959  C.ar    1  <O>11      -0.0565
  17 C15       3.2180    -7.1410    -7.0990  C.ar    1  <O>11       0.1533
  18 N2        4.2311    -6.1859    -6.9598  N.ar    1  <O>11      -0.1656
  19 N3        4.6013    -5.4173    -8.0108  N.ar    1  <O>11      -0.2420
  20 C16       3.9862    -5.5925    -9.2035  C.ar    1  <O>11       0.2725
  21 O2        4.3488    -4.6962   -10.2273  O.2     1  <O>11      -0.2658
  22 C17       3.0370    -6.5942    -9.4525  C.ar    1  <O>11       0.0501
  23 C18       2.4346    -6.8168   -10.7117  C.ar    1  <O>11      -0.0487
  24 C19       1.4721    -7.8123   -10.8835  C.ar    1  <O>11      -0.0610
  25 C20       1.0867    -8.5968    -9.8014  C.ar    1  <O>11      -0.0611
  26 C21       1.6646    -8.3854    -8.5495  C.ar    1  <O>11      -0.0516
  27 C22       2.6477    -7.3875    -8.3591  C.ar    1  <O>11       0.0195
  28 H1        4.1190    -9.4290    -6.1530  H       1  <O>11       0.1500
  29 H2        1.8333   -10.0683    -4.5573  H       1  <O>11       0.0599
  30 H3        5.3265    -4.7223    -7.9053  H       1  <O>11       0.1921
  31 H4        1.0417    -8.2621    -3.2683  H       1  <O>11       0.0621
  32 H5        1.2802    -6.8568    -1.2967  H       1  <O>11       0.0618
  33 H6        3.4023    -6.7674    -0.1126  H       1  <O>11       0.0618
  34 H7        5.2811    -8.0871    -0.9063  H       1  <O>11       0.0618
  35 H8        5.0503    -9.4978    -2.8710  H       1  <O>11       0.0621
  36 H9        5.4519   -10.2388    -5.1197  H       1  <O>11       0.0621
  37 H10       6.7574   -12.2723    -4.8947  H       1  <O>11       0.0618
  38 H11       5.7622   -14.2598    -3.9089  H       1  <O>11       0.0618
  39 H12       3.4533   -14.2003    -3.1504  H       1  <O>11       0.0618
  40 H13       2.1416   -12.1763    -3.3662  H       1  <O>11       0.0621
  41 H14       2.7111    -6.2336   -11.5170  H       1  <O>11       0.0625
  42 H15       1.0471    -7.9662   -11.8113  H       1  <O>11       0.0618
  43 H16       0.3747    -9.3338    -9.9245  H       1  <O>11       0.0618
  44 H17       1.3697    -8.9668    -7.7494  H       1  <O>11       0.0624
@<TRIPOS>BOND
     1     1     2    2
     2     2     3   am
     3     3     4    1
     4     4     5    1
     5     5     6   ar
     6     6     7   ar
     7     7     8   ar
     8     8     9   ar
     9     9    10   ar
    10     5    10   ar
    11     4    11    1
    12    11    12   ar
    13    12    13   ar
    14    13    14   ar
    15    14    15   ar
    16    15    16   ar
    17    11    16   ar
    18     2    17    1
    19    17    18   ar
    20    18    19   ar
    21    19    20   ar
    22    20    21    2
    23    20    22   ar
    24    22    23   ar
    25    23    24   ar
    26    24    25   ar
    27    25    26   ar
    28    26    27   ar
    29    17    27   ar
    30    22    27   ar
    31     3    28    1
    32     4    29    1
    33    19    30    1
    34     6    31    1
    35     7    32    1
    36     8    33    1
    37     9    34    1
    38    10    35    1
    39    12    36    1
    40    13    37    1
    41    14    38    1
    42    15    39    1
    43    16    40    1
    44    23    41    1
    45    24    42    1
    46    25    43    1
    47    26    44    1
@<TRIPOS>MOLECULE
mol4_1_10
 44 47 0 0 0
SMALL
USER_CHARGES
****
VDW energy = -4.53
@<TRIPOS>ATOM
   1 O1        1.8299    -7.4453    -5.2612  O.2     1  <O>11      -0.2684
   2 C1        2.7526    -7.8812    -5.9334  C.2     1  <O>11       0.2654
   3 N1        3.3490    -9.0650    -5.5910  N.am    1  <O>11      -0.2992
   4 C2        2.8830    -9.8060    -4.4250  C.3     1  <O>11       0.0740
   5 C3        3.9614   -10.6900    -3.9412  C.ar    1  <O>11      -0.0228
   6 C4        4.7979   -10.2469    -2.9139  C.ar    1  <O>11      -0.0565
   7 C5        5.8306   -11.0742    -2.4587  C.ar    1  <O>11      -0.0614
   8 C6        6.0209   -12.3385    -3.0239  C.ar    1  <O>11      -0.0617
   9 C7        5.1703   -12.7717    -4.0465  C.ar    1  <O>11      -0.0614
  10 C8        4.1352   -11.9542    -4.5070  C.ar    1  <O>11      -0.0565
  11 C9        1.7005   -10.6242    -4.7988  C.ar    1  <O>11      -0.0228
  12 C10       1.5625   -11.1137    -6.1081  C.ar    1  <O>11      -0.0565
  13 C11       0.4423   -11.8727    -6.4632  C.ar    1  <O>11      -0.0614
  14 C12      -0.5457   -12.1542    -5.5160  C.ar    1  <O>11      -0.0617
  15 C13      -0.4047   -11.6716    -4.2092  C.ar    1  <O>11      -0.0614
  16 C14       0.7092   -10.9152    -3.8463  C.ar    1  <O>11      -0.0565
  17 C15       3.2180    -7.1410    -7.0990  C.ar    1  <O>11       0.1533
  18 N2        2.2937    -6.5127    -7.9410  N.ar    1  <O>11      -0.1656
  19 N3        2.7012    -5.9108    -9.0828  N.ar    1  <O>11      -0.2420
  20 C16       4.0182    -5.9138    -9.3948  C.ar    1  <O>11       0.2725
  21 O2        4.3627    -5.3575   -10.6418  O.2     1  <O>11      -0.2658
  22 C17       5.0175    -6.4296    -8.5572  C.ar    1  <O>11       0.0501
  23 C18       6.3988    -6.3834    -8.8537  C.ar    1  <O>11      -0.0487
  24 C19       7.3399    -6.9446    -7.9896  C.ar    1  <O>11      -0.0610
  25 C20       6.9198    -7.5697    -6.8201  C.ar    1  <O>11      -0.0611
  26 C21       5.5598    -7.6320    -6.5158  C.ar    1  <O>11      -0.0516
  27 C22       4.5932    -7.0610    -7.3749  C.ar    1  <O>11       0.0195
  28 H1        4.1190    -9.4290    -6.1530  H       1  <O>11       0.1500
  29 H2        2.6059    -9.1058    -3.6369  H       1  <O>11       0.0599
  30 H3        2.0308    -5.4659    -9.6934  H       1  <O>11       0.1921
  31 H4        4.6551    -9.3153    -2.4935  H       1  <O>11       0.0621
  32 H5        6.4540   -10.7497    -1.7029  H       1  <O>11       0.0618
  33 H6        6.7835   -12.9480    -2.6891  H       1  <O>11       0.0618
  34 H7        5.3090   -13.7047    -4.4652  H       1  <O>11       0.0618
  35 H8        3.5062   -12.2812    -5.2570  H       1  <O>11       0.0621
  36 H9        2.2906   -10.9124    -6.8112  H       1  <O>11       0.0621
  37 H10       0.3453   -12.2261    -7.4279  H       1  <O>11       0.0618
  38 H11      -1.3727   -12.7133    -5.7776  H       1  <O>11       0.0618
  39 H12      -1.1326   -11.8779    -3.5073  H       1  <O>11       0.0618
  40 H13       0.8055   -10.5692    -2.8789  H       1  <O>11       0.0621
  41 H14       6.7165    -5.9273    -9.7232  H       1  <O>11       0.0625
  42 H15       8.3451    -6.8961    -8.2178  H       1  <O>11       0.0618
  43 H16       7.6128    -7.9865    -6.1788  H       1  <O>11       0.0618
  44 H17       5.2544    -8.1026    -5.6496  H       1  <O>11       0.0624
@<TRIPOS>BOND
     1     1     2    2
     2     2     3   am
     3     3     4    1
     4     4     5    1
     5     5     6   ar
     6     6     7   ar
     7     7     8   ar
     8     8     9   ar
     9     9    10   ar
    10     5    10   ar
    11     4    11    1
    12    11    12   ar
    13    12    13   ar
    14    13    14   ar
    15    14    15   ar
    16    15    16   ar
    17    11    16   ar
    18     2    17    1
    19    17    18   ar
    20    18    19   ar
    21    19    20   ar
    22    20    21    2
    23    20    22   ar
    24    22    23   ar
    25    23    24   ar
    26    24    25   ar
    27    25    26   ar
    28    26    27   ar
    29    17    27   ar
    30    22    27   ar
    31     3    28    1
    32     4    29    1
    33    19    30    1
    34     6    31    1
    35     7    32    1
    36     8    33    1
    37     9    34    1
    38    10    35    1
    39    12    36    1
    40    13    37    1
    41    14    38    1
    42    15    39    1
    43    16    40    1
    44    23    41    1
    45    24    42    1
    46    25    43    1
    47    26    44    1
@<TRIPOS>MOLECULE
mol4_1_11
 44 47 0 0 0
SMALL
USER_CHARGES
****
VDW energy = -2.73
@<TRIPOS>ATOM
   1 O1        1.8299    -7.4453    -5.2612  O.2     1  <O>11      -0.2684
   2 C1        2.7526    -7.8812    -5.9334  C.2     1  <O>11       0.2654
   3 N1        3.3490    -9.0650    -5.5910  N.am    1  <O>11      -0.2992
   4 C2        2.8830    -9.8060    -4.4250  C.3     1  <O>11       0.0740
   5 C3        3.6831   -11.0370    -4.2729  C.ar    1  <O>11      -0.0228
   6 C4        4.2157   -11.6495    -5.4099  C.ar    1  <O>11      -0.0565
   7 C5        4.9645   -12.8239    -5.2750  C.ar    1  <O>11      -0.0614
   8 C6        5.1835   -13.3780    -4.0104  C.ar    1  <O>11      -0.0617
   9 C7        4.6503   -12.7490    -2.8804  C.ar    1  <O>11      -0.0614
  10 C8        3.9028   -11.5752    -3.0040  C.ar    1  <O>11      -0.0565
  11 C9        1.4520   -10.1631    -4.6050  C.ar    1  <O>11      -0.0228
  12 C10       1.0513   -10.9589    -5.6908  C.ar    1  <O>11      -0.0565
  13 C11      -0.2979   -11.2837    -5.8675  C.ar    1  <O>11      -0.0614
  14 C12      -1.2568   -10.8229    -4.9616  C.ar    1  <O>11      -0.0617
  15 C13      -0.8563   -10.0349    -3.8757  C.ar    1  <O>11      -0.0614
  16 C14       0.4867    -9.7073    -3.6914  C.ar    1  <O>11      -0.0565
  17 C15       3.2180    -7.1410    -7.0990  C.ar    1  <O>11       0.1533
  18 N2        2.2937    -6.5127    -7.9410  N.ar    1  <O>11      -0.1656
  19 N3        2.7012    -5.9108    -9.0828  N.ar    1  <O>11      -0.2420
  20 C16       4.0182    -5.9138    -9.3948  C.ar    1  <O>11       0.2725
  21 O2        4.3627    -5.3575   -10.6418  O.2     1  <O>11      -0.2658
  22 C17       5.0175    -6.4296    -8.5572  C.ar    1  <O>11       0.0501
  23 C18       6.3988    -6.3834    -8.8537  C.ar    1  <O>11      -0.0487
  24 C19       7.3399    -6.9446    -7.9896  C.ar    1  <O>11      -0.0610
  25 C20       6.9198    -7.5697    -6.8201  C.ar    1  <O>11      -0.0611
  26 C21       5.5598    -7.6320    -6.5158  C.ar    1  <O>11      -0.0516
  27 C22       4.5932    -7.0610    -7.3749  C.ar    1  <O>11       0.0195
  28 H1        4.1190    -9.4290    -6.1530  H       1  <O>11       0.1500
  29 H2        2.9939    -9.1880    -3.5340  H       1  <O>11       0.0599
  30 H3        2.0308    -5.4659    -9.6934  H       1  <O>11       0.1921
  31 H4        4.0579   -11.2385    -6.3432  H       1  <O>11       0.0621
  32 H5        5.3565   -13.2827    -6.1123  H       1  <O>11       0.0618
  33 H6        5.7345   -14.2450    -3.9112  H       1  <O>11       0.0618
  34 H7        4.8108   -13.1563    -1.9458  H       1  <O>11       0.0618
  35 H8        3.5175   -11.1112    -2.1665  H       1  <O>11       0.0621
  36 H9        1.7552   -11.3056    -6.3612  H       1  <O>11       0.0621
  37 H10      -0.5860   -11.8657    -6.6695  H       1  <O>11       0.0618
  38 H11      -2.2524   -11.0614    -5.0919  H       1  <O>11       0.0618
  39 H12      -1.5621    -9.6931    -3.2049  H       1  <O>11       0.0618
  40 H13       0.7713    -9.1304    -2.8844  H       1  <O>11       0.0621
  41 H14       6.7165    -5.9273    -9.7232  H       1  <O>11       0.0625
  42 H15       8.3451    -6.8961    -8.2178  H       1  <O>11       0.0618
  43 H16       7.6128    -7.9865    -6.1788  H       1  <O>11       0.0618
  44 H17       5.2544    -8.1026    -5.6496  H       1  <O>11       0.0624
@<TRIPOS>BOND
     1     1     2    2
     2     2     3   am
     3     3     4    1
     4     4     5    1
     5     5     6   ar
     6     6     7   ar
     7     7     8   ar
     8     8     9   ar
     9     9    10   ar
    10     5    10   ar
    11     4    11    1
    12    11    12   ar
    13    12    13   ar
    14    13    14   ar
    15    14    15   ar
    16    15    16   ar
    17    11    16   ar
    18     2    17    1
    19    17    18   ar
    20    18    19   ar
    21    19    20   ar
    22    20    21    2
    23    20    22   ar
    24    22    23   ar
    25    23    24   ar
    26    24    25   ar
    27    25    26   ar
    28    26    27   ar
    29    17    27   ar
    30    22    27   ar
    31     3    28    1
    32     4    29    1
    33    19    30    1
    34     6    31    1
    35     7    32    1
    36     8    33    1
    37     9    34    1
    38    10    35    1
    39    12    36    1
    40    13    37    1
    41    14    38    1
    42    15    39    1
    43    16    40    1
    44    23    41    1
    45    24    42    1
    46    25    43    1
    47    26    44    1
@<TRIPOS>MOLECULE
mol4_1_12
 44 47 0 0 0
SMALL
USER_CHARGES
****
VDW energy = -0.09
@<TRIPOS>ATOM
   1 O1        1.8299    -7.4453    -5.2612  O.2     1  <O>11      -0.2684
   2 C1        2.7526    -7.8812    -5.9334  C.2     1  <O>11       0.2654
   3 N1        3.3490    -9.0650    -5.5910  N.am    1  <O>11      -0.2992
   4 C2        2.8830    -9.8060    -4.4250  C.3     1  <O>11       0.0740
   5 C3        3.0329    -8.9690    -3.2186  C.ar    1  <O>11      -0.0228
   6 C4        4.0595    -8.0230    -3.1676  C.ar    1  <O>11      -0.0565
   7 C5        4.2161    -7.2346    -2.0221  C.ar    1  <O>11      -0.0614
   8 C6        3.3474    -7.3882    -0.9376  C.ar    1  <O>11      -0.0617
   9 C7        2.3193    -8.3343    -1.0064  C.ar    1  <O>11      -0.0614
  10 C8        2.1533    -9.1251    -2.1461  C.ar    1  <O>11      -0.0565
  11 C9        3.6878   -11.0456    -4.2724  C.ar    1  <O>11      -0.0228
  12 C10       5.0782   -10.9698    -4.0883  C.ar    1  <O>11      -0.0565
  13 C11       5.8374   -12.1376    -3.9581  C.ar    1  <O>11      -0.0614
  14 C12       5.2170   -13.3887    -4.0050  C.ar    1  <O>11      -0.0617
  15 C13       3.8301   -13.4639    -4.1819  C.ar    1  <O>11      -0.0614
  16 C14       3.0655   -12.3048    -4.3115  C.ar    1  <O>11      -0.0565
  17 C15       3.2180    -7.1410    -7.0990  C.ar    1  <O>11       0.1533
  18 N2        2.2937    -6.5127    -7.9410  N.ar    1  <O>11      -0.1656
  19 N3        2.7012    -5.9108    -9.0828  N.ar    1  <O>11      -0.2420
  20 C16       4.0182    -5.9138    -9.3948  C.ar    1  <O>11       0.2725
  21 O2        4.3627    -5.3575   -10.6418  O.2     1  <O>11      -0.2658
  22 C17       5.0175    -6.4296    -8.5572  C.ar    1  <O>11       0.0501
  23 C18       6.3988    -6.3834    -8.8537  C.ar    1  <O>11      -0.0487
  24 C19       7.3399    -6.9446    -7.9896  C.ar    1  <O>11      -0.0610
  25 C20       6.9198    -7.5697    -6.8201  C.ar    1  <O>11      -0.0611
  26 C21       5.5598    -7.6320    -6.5158  C.ar    1  <O>11      -0.0516
  27 C22       4.5932    -7.0610    -7.3749  C.ar    1  <O>11       0.0195
  28 H1        4.1190    -9.4290    -6.1530  H       1  <O>11       0.1500
  29 H2        1.8333   -10.0683    -4.5573  H       1  <O>11       0.0599
  30 H3        2.0308    -5.4659    -9.6934  H       1  <O>11       0.1921
  31 H4        4.6984    -7.9063    -3.9696  H       1  <O>11       0.0621
  32 H5        4.9755    -6.5373    -1.9777  H       1  <O>11       0.0618
  33 H6        3.4638    -6.8077    -0.0923  H       1  <O>11       0.0618
  34 H7        1.6768    -8.4493    -0.2070  H       1  <O>11       0.0618
  35 H8        1.3890    -9.8168    -2.1946  H       1  <O>11       0.0621
  36 H9        5.5418   -10.0486    -4.0490  H       1  <O>11       0.0621
  37 H10       6.8591   -12.0748    -3.8269  H       1  <O>11       0.0618
  38 H11       5.7766   -14.2506    -3.9099  H       1  <O>11       0.0618
  39 H12       3.3689   -14.3865    -4.2168  H       1  <O>11       0.0618
  40 H13       2.0433   -12.3719    -4.4361  H       1  <O>11       0.0621
  41 H14       6.7165    -5.9273    -9.7232  H       1  <O>11       0.0625
  42 H15       8.3451    -6.8961    -8.2178  H       1  <O>11       0.0618
  43 H16       7.6128    -7.9865    -6.1788  H       1  <O>11       0.0618
  44 H17       5.2544    -8.1026    -5.6496  H       1  <O>11       0.0624
@<TRIPOS>BOND
     1     1     2    2
     2     2     3   am
     3     3     4    1
     4     4     5    1
     5     5     6   ar
     6     6     7   ar
     7     7     8   ar
     8     8     9   ar
     9     9    10   ar
    10     5    10   ar
    11     4    11    1
    12    11    12   ar
    13    12    13   ar
    14    13    14   ar
    15    14    15   ar
    16    15    16   ar
    17    11    16   ar
    18     2    17    1
    19    17    18   ar
    20    18    19   ar
    21    19    20   ar
    22    20    21    2
    23    20    22   ar
    24    22    23   ar
    25    23    24   ar
    26    24    25   ar
    27    25    26   ar
    28    26    27   ar
    29    17    27   ar
    30    22    27   ar
    31     3    28    1
    32     4    29    1
    33    19    30    1
    34     6    31    1
    35     7    32    1
    36     8    33    1
    37     9    34    1
    38    10    35    1
    39    12    36    1
    40    13    37    1
    41    14    38    1
    42    15    39    1
    43    16    40    1
    44    23    41    1
    45    24    42    1
    46    25    43    1
    47    26    44    1
@<TRIPOS>MOLECULE
mol4_1_13
 44 47 0 0 0
SMALL
USER_CHARGES
****
VDW energy = 0.65
@<TRIPOS>ATOM
   1 O1        1.8299    -7.4453    -5.2612  O.2     1  <O>11      -0.2684
   2 C1        2.7526    -7.8812    -5.9334  C.2     1  <O>11       0.2654
   3 N1        3.3490    -9.0650    -5.5910  N.am    1  <O>11      -0.2992
   4 C2        2.8830    -9.8060    -4.4250  C.3     1  <O>11       0.0740
   5 C3        3.0329    -8.9690    -3.2186  C.ar    1  <O>11      -0.0228
   6 C4        2.1450    -9.1411    -2.1540  C.ar    1  <O>11      -0.0565
   7 C5        2.2728    -8.3425    -1.0120  C.ar    1  <O>11      -0.0614
   8 C6        3.2859    -7.3824    -0.9340  C.ar    1  <O>11      -0.0617
   9 C7        4.1724    -7.2270    -2.0049  C.ar    1  <O>11      -0.0614
  10 C8        4.0546    -8.0205    -3.1488  C.ar    1  <O>11      -0.0565
  11 C9        3.6878   -11.0456    -4.2724  C.ar    1  <O>11      -0.0228
  12 C10       5.0782   -10.9698    -4.0883  C.ar    1  <O>11      -0.0565
  13 C11       5.8374   -12.1376    -3.9581  C.ar    1  <O>11      -0.0614
  14 C12       5.2170   -13.3887    -4.0050  C.ar    1  <O>11      -0.0617
  15 C13       3.8301   -13.4639    -4.1819  C.ar    1  <O>11      -0.0614
  16 C14       3.0655   -12.3048    -4.3115  C.ar    1  <O>11      -0.0565
  17 C15       3.2180    -7.1410    -7.0990  C.ar    1  <O>11       0.1533
  18 N2        3.3034    -5.7451    -7.0504  N.ar    1  <O>11      -0.1656
  19 N3        3.6332    -5.0370    -8.1558  N.ar    1  <O>11      -0.2420
  20 C16       3.8916    -5.6979    -9.3083  C.ar    1  <O>11       0.2725
  21 O2        4.1320    -4.8987   -10.4425  O.2     1  <O>11      -0.2658
  22 C17       3.9283    -7.0956    -9.4151  C.ar    1  <O>11       0.0501
  23 C18       4.2537    -7.7892   -10.6030  C.ar    1  <O>11      -0.0487
  24 C19       4.2408    -9.1838   -10.6490  C.ar    1  <O>11      -0.0610
  25 C20       3.8944    -9.9108    -9.5147  C.ar    1  <O>11      -0.0611
  26 C21       3.5623    -9.2425    -8.3361  C.ar    1  <O>11      -0.0516
  27 C22       3.5788    -7.8306    -8.2687  C.ar    1  <O>11       0.0195
  28 H1        4.1190    -9.4290    -6.1530  H       1  <O>11       0.1500
  29 H2        1.8333   -10.0683    -4.5573  H       1  <O>11       0.0599
  30 H3        3.6852    -4.0289    -8.1203  H       1  <O>11       0.1921
  31 H4        1.3996    -9.8526    -2.2093  H       1  <O>11       0.0621
  32 H5        1.6167    -8.4627    -0.2245  H       1  <O>11       0.0618
  33 H6        3.3792    -6.7925    -0.0924  H       1  <O>11       0.0618
  34 H7        4.9211    -6.5189    -1.9495  H       1  <O>11       0.0618
  35 H8        4.7154    -7.9066    -3.9333  H       1  <O>11       0.0621
  36 H9        5.5418   -10.0486    -4.0490  H       1  <O>11       0.0621
  37 H10       6.8591   -12.0748    -3.8269  H       1  <O>11       0.0618
  38 H11       5.7766   -14.2506    -3.9099  H       1  <O>11       0.0618
  39 H12       3.3689   -14.3865    -4.2168  H       1  <O>11       0.0618
  40 H13       2.0433   -12.3719    -4.4361  H       1  <O>11       0.0621
  41 H14       4.5047    -7.2557   -11.4499  H       1  <O>11       0.0625
  42 H15       4.4876    -9.6747   -11.5225  H       1  <O>11       0.0618
  43 H16       3.8832   -10.9423    -9.5451  H       1  <O>11       0.0618
  44 H17       3.3002    -9.7877    -7.4999  H       1  <O>11       0.0624
@<TRIPOS>BOND
     1     1     2    2
     2     2     3   am
     3     3     4    1
     4     4     5    1
     5     5     6   ar
     6     6     7   ar
     7     7     8   ar
     8     8     9   ar
     9     9    10   ar
    10     5    10   ar
    11     4    11    1
    12    11    12   ar
    13    12    13   ar
    14    13    14   ar
    15    14    15   ar
    16    15    16   ar
    17    11    16   ar
    18     2    17    1
    19    17    18   ar
    20    18    19   ar
    21    19    20   ar
    22    20    21    2
    23    20    22   ar
    24    22    23   ar
    25    23    24   ar
    26    24    25   ar
    27    25    26   ar
    28    26    27   ar
    29    17    27   ar
    30    22    27   ar
    31     3    28    1
    32     4    29    1
    33    19    30    1
    34     6    31    1
    35     7    32    1
    36     8    33    1
    37     9    34    1
    38    10    35    1
    39    12    36    1
    40    13    37    1
    41    14    38    1
    42    15    39    1
    43    16    40    1
    44    23    41    1
    45    24    42    1
    46    25    43    1
    47    26    44    1
@<TRIPOS>MOLECULE
mol4_1_14
 44 47 0 0 0
SMALL
USER_CHARGES
****
VDW energy = 2.05
@<TRIPOS>ATOM
   1 O1        1.8299    -7.4453    -5.2612  O.2     1  <O>11      -0.2684
   2 C1        2.7526    -7.8812    -5.9334  C.2     1  <O>11       0.2654
   3 N1        3.3490    -9.0650    -5.5910  N.am    1  <O>11      -0.2992
   4 C2        2.8830    -9.8060    -4.4250  C.3     1  <O>11       0.0740
   5 C3        3.9614   -10.6900    -3.9412  C.ar    1  <O>11      -0.0228
   6 C4        4.0317   -10.9991    -2.5808  C.ar    1  <O>11      -0.0565
   7 C5        5.0588   -11.8262    -2.1125  C.ar    1  <O>11      -0.0614
   8 C6        6.0053   -12.3449    -3.0009  C.ar    1  <O>11      -0.0617
   9 C7        5.9174   -12.0329    -4.3617  C.ar    1  <O>11      -0.0614
  10 C8        4.8949   -11.2095    -4.8396  C.ar    1  <O>11      -0.0565
  11 C9        1.7005   -10.6242    -4.7988  C.ar    1  <O>11      -0.0228
  12 C10       1.8043   -11.6040    -5.7998  C.ar    1  <O>11      -0.0565
  13 C11       0.6874   -12.3650    -6.1609  C.ar    1  <O>11      -0.0614
  14 C12      -0.5394   -12.1594    -5.5243  C.ar    1  <O>11      -0.0617
  15 C13      -0.6411   -11.1871    -4.5219  C.ar    1  <O>11      -0.0614
  16 C14       0.4675   -10.4248    -4.1550  C.ar    1  <O>11      -0.0565
  17 C15       3.2180    -7.1410    -7.0990  C.ar    1  <O>11       0.1533
  18 N2        3.3034    -5.7451    -7.0504  N.ar    1  <O>11      -0.1656
  19 N3        3.6332    -5.0370    -8.1558  N.ar    1  <O>11      -0.2420
  20 C16       3.8916    -5.6979    -9.3083  C.ar    1  <O>11       0.2725
  21 O2        4.1320    -4.8987   -10.4425  O.2     1  <O>11      -0.2658
  22 C17       3.9283    -7.0956    -9.4151  C.ar    1  <O>11       0.0501
  23 C18       4.2537    -7.7892   -10.6030  C.ar    1  <O>11      -0.0487
  24 C19       4.2408    -9.1838   -10.6490  C.ar    1  <O>11      -0.0610
  25 C20       3.8944    -9.9108    -9.5147  C.ar    1  <O>11      -0.0611
  26 C21       3.5623    -9.2425    -8.3361  C.ar    1  <O>11      -0.0516
  27 C22       3.5788    -7.8306    -8.2687  C.ar    1  <O>11       0.0195
  28 H1        4.1190    -9.4290    -6.1530  H       1  <O>11       0.1500
  29 H2        2.6059    -9.1058    -3.6369  H       1  <O>11       0.0599
  30 H3        3.6852    -4.0289    -8.1203  H       1  <O>11       0.1921
  31 H4        3.3306   -10.6199    -1.9252  H       1  <O>11       0.0621
  32 H5        5.1177   -12.0541    -1.1077  H       1  <O>11       0.0618
  33 H6        6.7636   -12.9537    -2.6553  H       1  <O>11       0.0618
  34 H7        6.6151   -12.4147    -5.0193  H       1  <O>11       0.0618
  35 H8        4.8304   -10.9879    -5.8455  H       1  <O>11       0.0621
  36 H9        2.7086   -11.7633    -6.2710  H       1  <O>11       0.0621
  37 H10       0.7697   -13.0807    -6.8998  H       1  <O>11       0.0618
  38 H11      -1.3640   -12.7198    -5.7909  H       1  <O>11       0.0618
  39 H12      -1.5458   -11.0330    -4.0499  H       1  <O>11       0.0618
  40 H13       0.3825    -9.7146    -3.4111  H       1  <O>11       0.0621
  41 H14       4.5047    -7.2557   -11.4499  H       1  <O>11       0.0625
  42 H15       4.4876    -9.6747   -11.5225  H       1  <O>11       0.0618
  43 H16       3.8832   -10.9423    -9.5451  H       1  <O>11       0.0618
  44 H17       3.3002    -9.7877    -7.4999  H       1  <O>11       0.0624
@<TRIPOS>BOND
     1     1     2    2
     2     2     3   am
     3     3     4    1
     4     4     5    1
     5     5     6   ar
     6     6     7   ar
     7     7     8   ar
     8     8     9   ar
     9     9    10   ar
    10     5    10   ar
    11     4    11    1
    12    11    12   ar
    13    12    13   ar
    14    13    14   ar
    15    14    15   ar
    16    15    16   ar
    17    11    16   ar
    18     2    17    1
    19    17    18   ar
    20    18    19   ar
    21    19    20   ar
    22    20    21    2
    23    20    22   ar
    24    22    23   ar
    25    23    24   ar
    26    24    25   ar
    27    25    26   ar
    28    26    27   ar
    29    17    27   ar
    30    22    27   ar
    31     3    28    1
    32     4    29    1
    33    19    30    1
    34     6    31    1
    35     7    32    1
    36     8    33    1
    37     9    34    1
    38    10    35    1
    39    12    36    1
    40    13    37    1
    41    14    38    1
    42    15    39    1
    43    16    40    1
    44    23    41    1
    45    24    42    1
    46    25    43    1
    47    26    44    1
@<TRIPOS>MOLECULE
mol4_1_15
 44 47 0 0 0
SMALL
USER_CHARGES
****
VDW energy = 4.26
@<TRIPOS>ATOM
   1 O1        1.8299    -7.4453    -5.2612  O.2     1  <O>11      -0.2684
   2 C1        2.7526    -7.8812    -5.9334  C.2     1  <O>11       0.2654
   3 N1        3.3490    -9.0650    -5.5910  N.am    1  <O>11      -0.2992
   4 C2        2.8830    -9.8060    -4.4250  C.3     1  <O>11       0.0740
   5 C3        3.9614   -10.6900    -3.9412  C.ar    1  <O>11      -0.0228
   6 C4        4.7979   -10.2469    -2.9139  C.ar    1  <O>11      -0.0565
   7 C5        5.8306   -11.0742    -2.4587  C.ar    1  <O>11      -0.0614
   8 C6        6.0209   -12.3385    -3.0239  C.ar    1  <O>11      -0.0617
   9 C7        5.1703   -12.7717    -4.0465  C.ar    1  <O>11      -0.0614
  10 C8        4.1352   -11.9542    -4.5070  C.ar    1  <O>11      -0.0565
  11 C9        1.7005   -10.6242    -4.7988  C.ar    1  <O>11      -0.0228
  12 C10       1.5625   -11.1137    -6.1081  C.ar    1  <O>11      -0.0565
  13 C11       0.4423   -11.8727    -6.4632  C.ar    1  <O>11      -0.0614
  14 C12      -0.5457   -12.1542    -5.5160  C.ar    1  <O>11      -0.0617
  15 C13      -0.4047   -11.6716    -4.2092  C.ar    1  <O>11      -0.0614
  16 C14       0.7092   -10.9152    -3.8463  C.ar    1  <O>11      -0.0565
  17 C15       3.2180    -7.1410    -7.0990  C.ar    1  <O>11       0.1533
  18 N2        4.4106    -7.5118    -7.7302  N.ar    1  <O>11      -0.1656
  19 N3        4.9095    -6.7716    -8.7478  N.ar    1  <O>11      -0.2420
  20 C16       4.2330    -5.6728    -9.1560  C.ar    1  <O>11       0.2725
  21 O2        4.8549    -4.8942   -10.1510  O.2     1  <O>11      -0.2658
  22 C17       2.9831    -5.2918    -8.6470  C.ar    1  <O>11       0.0501
  23 C18       2.2473    -4.1775    -9.1104  C.ar    1  <O>11      -0.0487
  24 C19       1.0220    -3.8350    -8.5375  C.ar    1  <O>11      -0.0610
  25 C20       0.5134    -4.5915    -7.4868  C.ar    1  <O>11      -0.0611
  26 C21       1.2302    -5.6897    -7.0110  C.ar    1  <O>11      -0.0516
  27 C22       2.4687    -6.0566    -7.5854  C.ar    1  <O>11       0.0195
  28 H1        4.1190    -9.4290    -6.1530  H       1  <O>11       0.1500
  29 H2        2.6059    -9.1058    -3.6369  H       1  <O>11       0.0599
  30 H3        5.7753    -7.0363    -9.1956  H       1  <O>11       0.1921
  31 H4        4.6551    -9.3153    -2.4935  H       1  <O>11       0.0621
  32 H5        6.4540   -10.7497    -1.7029  H       1  <O>11       0.0618
  33 H6        6.7835   -12.9480    -2.6891  H       1  <O>11       0.0618
  34 H7        5.3090   -13.7047    -4.4652  H       1  <O>11       0.0618
  35 H8        3.5062   -12.2812    -5.2570  H       1  <O>11       0.0621
  36 H9        2.2906   -10.9124    -6.8112  H       1  <O>11       0.0621
  37 H10       0.3453   -12.2261    -7.4279  H       1  <O>11       0.0618
  38 H11      -1.3727   -12.7133    -5.7776  H       1  <O>11       0.0618
  39 H12      -1.1326   -11.8779    -3.5073  H       1  <O>11       0.0618
  40 H13       0.8055   -10.5692    -2.8789  H       1  <O>11       0.0621
  41 H14       2.6224    -3.6080    -9.8850  H       1  <O>11       0.0625
  42 H15       0.4942    -3.0223    -8.8924  H       1  <O>11       0.0618
  43 H16      -0.3923    -4.3410    -7.0601  H       1  <O>11       0.0618
  44 H17       0.8503    -6.2431    -6.2272  H       1  <O>11       0.0624
@<TRIPOS>BOND
     1     1     2    2
     2     2     3   am
     3     3     4    1
     4     4     5    1
     5     5     6   ar
     6     6     7   ar
     7     7     8   ar
     8     8     9   ar
     9     9    10   ar
    10     5    10   ar
    11     4    11    1
    12    11    12   ar
    13    12    13   ar
    14    13    14   ar
    15    14    15   ar
    16    15    16   ar
    17    11    16   ar
    18     2    17    1
    19    17    18   ar
    20    18    19   ar
    21    19    20   ar
    22    20    21    2
    23    20    22   ar
    24    22    23   ar
    25    23    24   ar
    26    24    25   ar
    27    25    26   ar
    28    26    27   ar
    29    17    27   ar
    30    22    27   ar
    31     3    28    1
    32     4    29    1
    33    19    30    1
    34     6    31    1
    35     7    32    1
    36     8    33    1
    37     9    34    1
    38    10    35    1
    39    12    36    1
    40    13    37    1
    41    14    38    1
    42    15    39    1
    43    16    40    1
    44    23    41    1
    45    24    42    1
    46    25    43    1
    47    26    44    1
@<TRIPOS>MOLECULE
mol4_1_16
 44 47 0 0 0
SMALL
USER_CHARGES
****
VDW energy = 4.75
@<TRIPOS>ATOM
   1 O1        1.8299    -7.4453    -5.2612  O.2     1  <O>11      -0.2684
   2 C1        2.7526    -7.8812    -5.9334  C.2     1  <O>11       0.2654
   3 N1        3.3490    -9.0650    -5.5910  N.am    1  <O>11      -0.2992
   4 C2        2.8830    -9.8060    -4.4250  C.3     1  <O>11       0.0740
   5 C3        3.0329    -8.9690    -3.2186  C.ar    1  <O>11      -0.0228
   6 C4        1.9430    -8.2208    -2.7673  C.ar    1  <O>11      -0.0565
   7 C5        2.0812    -7.4149    -1.6317  C.ar    1  <O>11      -0.0614
   8 C6        3.3001    -7.3629    -0.9493  C.ar    1  <O>11      -0.0617
   9 C7        4.3803    -8.1239    -1.4086  C.ar    1  <O>11      -0.0614
  10 C8        4.2523    -8.9330    -2.5402  C.ar    1  <O>11      -0.0565
  11 C9        3.6878   -11.0456    -4.2724  C.ar    1  <O>11      -0.0228
  12 C10       5.0240   -11.0808    -4.7037  C.ar    1  <O>11      -0.0565
  13 C11       5.7773   -12.2522    -4.5721  C.ar    1  <O>11      -0.0614
  14 C12       5.2073   -13.3951    -4.0054  C.ar    1  <O>11      -0.0617
  15 C13       3.8772   -13.3579    -3.5695  C.ar    1  <O>11      -0.0614
  16 C14       3.1194   -12.1941    -3.6959  C.ar    1  <O>11      -0.0565
  17 C15       3.2180    -7.1410    -7.0990  C.ar    1  <O>11       0.1533
  18 N2        2.2937    -6.5127    -7.9410  N.ar    1  <O>11      -0.1656
  19 N3        2.7012    -5.9108    -9.0828  N.ar    1  <O>11      -0.2420
  20 C16       4.0182    -5.9138    -9.3948  C.ar    1  <O>11       0.2725
  21 O2        4.3627    -5.3575   -10.6418  O.2     1  <O>11      -0.2658
  22 C17       5.0175    -6.4296    -8.5572  C.ar    1  <O>11       0.0501
  23 C18       6.3988    -6.3834    -8.8537  C.ar    1  <O>11      -0.0487
  24 C19       7.3399    -6.9446    -7.9896  C.ar    1  <O>11      -0.0610
  25 C20       6.9198    -7.5697    -6.8201  C.ar    1  <O>11      -0.0611
  26 C21       5.5598    -7.6320    -6.5158  C.ar    1  <O>11      -0.0516
  27 C22       4.5932    -7.0610    -7.3749  C.ar    1  <O>11       0.0195
  28 H1        4.1190    -9.4290    -6.1530  H       1  <O>11       0.1500
  29 H2        1.8333   -10.0683    -4.5573  H       1  <O>11       0.0599
  30 H3        2.0308    -5.4659    -9.6934  H       1  <O>11       0.1921
  31 H4        1.0417    -8.2621    -3.2683  H       1  <O>11       0.0621
  32 H5        1.2802    -6.8568    -1.2967  H       1  <O>11       0.0618
  33 H6        3.4023    -6.7674    -0.1126  H       1  <O>11       0.0618
  34 H7        5.2811    -8.0871    -0.9063  H       1  <O>11       0.0618
  35 H8        5.0503    -9.4978    -2.8710  H       1  <O>11       0.0621
  36 H9        5.4519   -10.2388    -5.1197  H       1  <O>11       0.0621
  37 H10       6.7574   -12.2723    -4.8947  H       1  <O>11       0.0618
  38 H11       5.7622   -14.2598    -3.9089  H       1  <O>11       0.0618
  39 H12       3.4533   -14.2003    -3.1504  H       1  <O>11       0.0618
  40 H13       2.1416   -12.1763    -3.3662  H       1  <O>11       0.0621
  41 H14       6.7165    -5.9273    -9.7232  H       1  <O>11       0.0625
  42 H15       8.3451    -6.8961    -8.2178  H       1  <O>11       0.0618
  43 H16       7.6128    -7.9865    -6.1788  H       1  <O>11       0.0618
  44 H17       5.2544    -8.1026    -5.6496  H       1  <O>11       0.0624
@<TRIPOS>BOND
     1     1     2    2
     2     2     3   am
     3     3     4    1
     4     4     5    1
     5     5     6   ar
     6     6     7   ar
     7     7     8   ar
     8     8     9   ar
     9     9    10   ar
    10     5    10   ar
    11     4    11    1
    12    11    12   ar
    13    12    13   ar
    14    13    14   ar
    15    14    15   ar
    16    15    16   ar
    17    11    16   ar
    18     2    17    1
    19    17    18   ar
    20    18    19   ar
    21    19    20   ar
    22    20    21    2
    23    20    22   ar
    24    22    23   ar
    25    23    24   ar
    26    24    25   ar
    27    25    26   ar
    28    26    27   ar
    29    17    27   ar
    30    22    27   ar
    31     3    28    1
    32     4    29    1
    33    19    30    1
    34     6    31    1
    35     7    32    1
    36     8    33    1
    37     9    34    1
    38    10    35    1
    39    12    36    1
    40    13    37    1
    41    14    38    1
    42    15    39    1
    43    16    40    1
    44    23    41    1
    45    24    42    1
    46    25    43    1
    47    26    44    1
@<TRIPOS>MOLECULE
mol4_1_17
 44 47 0 0 0
SMALL
USER_CHARGES
****
VDW energy = 5.48
@<TRIPOS>ATOM
   1 O1        1.8299    -7.4453    -5.2612  O.2     1  <O>11      -0.2684
   2 C1        2.7526    -7.8812    -5.9334  C.2     1  <O>11       0.2654
   3 N1        3.3490    -9.0650    -5.5910  N.am    1  <O>11      -0.2992
   4 C2        2.8830    -9.8060    -4.4250  C.3     1  <O>11       0.0740
   5 C3        3.0329    -8.9690    -3.2186  C.ar    1  <O>11      -0.0228
   6 C4        4.0595    -8.0230    -3.1676  C.ar    1  <O>11      -0.0565
   7 C5        4.2161    -7.2346    -2.0221  C.ar    1  <O>11      -0.0614
   8 C6        3.3474    -7.3882    -0.9376  C.ar    1  <O>11      -0.0617
   9 C7        2.3193    -8.3343    -1.0064  C.ar    1  <O>11      -0.0614
  10 C8        2.1533    -9.1251    -2.1461  C.ar    1  <O>11      -0.0565
  11 C9        3.6878   -11.0456    -4.2724  C.ar    1  <O>11      -0.0228
  12 C10       3.8788   -11.9058    -5.3661  C.ar    1  <O>11      -0.0565
  13 C11       4.6254   -13.0797    -5.2186  C.ar    1  <O>11      -0.0614
  14 C12       5.1913   -13.4027    -3.9825  C.ar    1  <O>11      -0.0617
  15 C13       5.0062   -12.5417    -2.8939  C.ar    1  <O>11      -0.0614
  16 C14       4.2643   -11.3690    -3.0324  C.ar    1  <O>11      -0.0565
  17 C15       3.2180    -7.1410    -7.0990  C.ar    1  <O>11       0.1533
  18 N2        2.2937    -6.5127    -7.9410  N.ar    1  <O>11      -0.1656
  19 N3        2.7012    -5.9108    -9.0828  N.ar    1  <O>11      -0.2420
  20 C16       4.0182    -5.9138    -9.3948  C.ar    1  <O>11       0.2725
  21 O2        4.3627    -5.3575   -10.6418  O.2     1  <O>11      -0.2658
  22 C17       5.0175    -6.4296    -8.5572  C.ar    1  <O>11       0.0501
  23 C18       6.3988    -6.3834    -8.8537  C.ar    1  <O>11      -0.0487
  24 C19       7.3399    -6.9446    -7.9896  C.ar    1  <O>11      -0.0610
  25 C20       6.9198    -7.5697    -6.8201  C.ar    1  <O>11      -0.0611
  26 C21       5.5598    -7.6320    -6.5158  C.ar    1  <O>11      -0.0516
  27 C22       4.5932    -7.0610    -7.3749  C.ar    1  <O>11       0.0195
  28 H1        4.1190    -9.4290    -6.1530  H       1  <O>11       0.1500
  29 H2        1.8333   -10.0683    -4.5573  H       1  <O>11       0.0599
  30 H3        2.0308    -5.4659    -9.6934  H       1  <O>11       0.1921
  31 H4        4.6984    -7.9063    -3.9696  H       1  <O>11       0.0621
  32 H5        4.9755    -6.5373    -1.9777  H       1  <O>11       0.0618
  33 H6        3.4638    -6.8077    -0.0923  H       1  <O>11       0.0618
  34 H7        1.6768    -8.4493    -0.2070  H       1  <O>11       0.0618
  35 H8        1.3890    -9.8168    -2.1946  H       1  <O>11       0.0621
  36 H9        3.4666   -11.6709    -6.2826  H       1  <O>11       0.0621
  37 H10       4.7587   -13.7092    -6.0254  H       1  <O>11       0.0618
  38 H11       5.7413   -14.2689    -3.8728  H       1  <O>11       0.0618
  39 H12       5.4229   -12.7774    -1.9797  H       1  <O>11       0.0618
  40 H13       4.1389   -10.7390    -2.2247  H       1  <O>11       0.0621
  41 H14       6.7165    -5.9273    -9.7232  H       1  <O>11       0.0625
  42 H15       8.3451    -6.8961    -8.2178  H       1  <O>11       0.0618
  43 H16       7.6128    -7.9865    -6.1788  H       1  <O>11       0.0618
  44 H17       5.2544    -8.1026    -5.6496  H       1  <O>11       0.0624
@<TRIPOS>BOND
     1     1     2    2
     2     2     3   am
     3     3     4    1
     4     4     5    1
     5     5     6   ar
     6     6     7   ar
     7     7     8   ar
     8     8     9   ar
     9     9    10   ar
    10     5    10   ar
    11     4    11    1
    12    11    12   ar
    13    12    13   ar
    14    13    14   ar
    15    14    15   ar
    16    15    16   ar
    17    11    16   ar
    18     2    17    1
    19    17    18   ar
    20    18    19   ar
    21    19    20   ar
    22    20    21    2
    23    20    22   ar
    24    22    23   ar
    25    23    24   ar
    26    24    25   ar
    27    25    26   ar
    28    26    27   ar
    29    17    27   ar
    30    22    27   ar
    31     3    28    1
    32     4    29    1
    33    19    30    1
    34     6    31    1
    35     7    32    1
    36     8    33    1
    37     9    34    1
    38    10    35    1
    39    12    36    1
    40    13    37    1
    41    14    38    1
    42    15    39    1
    43    16    40    1
    44    23    41    1
    45    24    42    1
    46    25    43    1
    47    26    44    1
@<TRIPOS>MOLECULE
mol4_1_18
 44 47 0 0 0
SMALL
USER_CHARGES
****
VDW energy = 6.10
@<TRIPOS>ATOM
   1 O1        1.8299    -7.4453    -5.2612  O.2     1  <O>11      -0.2684
   2 C1        2.7526    -7.8812    -5.9334  C.2     1  <O>11       0.2654
   3 N1        3.3490    -9.0650    -5.5910  N.am    1  <O>11      -0.2992
   4 C2        2.8830    -9.8060    -4.4250  C.3     1  <O>11       0.0740
   5 C3        3.9614   -10.6900    -3.9412  C.ar    1  <O>11      -0.0228
   6 C4        3.7323   -11.4980    -2.8249  C.ar    1  <O>11      -0.0565
   7 C5        4.7541   -12.3293    -2.3525  C.ar    1  <O>11      -0.0614
   8 C6        5.9945   -12.3559    -2.9967  C.ar    1  <O>11      -0.0617
   9 C7        6.2064   -11.5470    -4.1181  C.ar    1  <O>11      -0.0614
  10 C8        5.1924   -10.7148    -4.5988  C.ar    1  <O>11      -0.0565
  11 C9        1.7005   -10.6242    -4.7988  C.ar    1  <O>11      -0.0228
  12 C10       1.8043   -11.6040    -5.7998  C.ar    1  <O>11      -0.0565
  13 C11       0.6874   -12.3650    -6.1609  C.ar    1  <O>11      -0.0614
  14 C12      -0.5394   -12.1594    -5.5243  C.ar    1  <O>11      -0.0617
  15 C13      -0.6411   -11.1871    -4.5219  C.ar    1  <O>11      -0.0614
  16 C14       0.4675   -10.4248    -4.1550  C.ar    1  <O>11      -0.0565
  17 C15       3.2180    -7.1410    -7.0990  C.ar    1  <O>11       0.1533
  18 N2        3.3034    -5.7451    -7.0504  N.ar    1  <O>11      -0.1656
  19 N3        3.6332    -5.0370    -8.1558  N.ar    1  <O>11      -0.2420
  20 C16       3.8916    -5.6979    -9.3083  C.ar    1  <O>11       0.2725
  21 O2        4.1320    -4.8987   -10.4425  O.2     1  <O>11      -0.2658
  22 C17       3.9283    -7.0956    -9.4151  C.ar    1  <O>11       0.0501
  23 C18       4.2537    -7.7892   -10.6030  C.ar    1  <O>11      -0.0487
  24 C19       4.2408    -9.1838   -10.6490  C.ar    1  <O>11      -0.0610
  25 C20       3.8944    -9.9108    -9.5147  C.ar    1  <O>11      -0.0611
  26 C21       3.5623    -9.2425    -8.3361  C.ar    1  <O>11      -0.0516
  27 C22       3.5788    -7.8306    -8.2687  C.ar    1  <O>11       0.0195
  28 H1        4.1190    -9.4290    -6.1530  H       1  <O>11       0.1500
  29 H2        2.6059    -9.1058    -3.6369  H       1  <O>11       0.0599
  30 H3        3.6852    -4.0289    -8.1203  H       1  <O>11       0.1921
  31 H4        2.8154   -11.4819    -2.3516  H       1  <O>11       0.0621
  32 H5        4.5913   -12.9249    -1.5256  H       1  <O>11       0.0618
  33 H6        6.7484   -12.9679    -2.6474  H       1  <O>11       0.0618
  34 H7        7.1214   -11.5651    -4.5952  H       1  <O>11       0.0618
  35 H8        5.3516   -10.1251    -5.4306  H       1  <O>11       0.0621
  36 H9        2.7086   -11.7633    -6.2710  H       1  <O>11       0.0621
  37 H10       0.7697   -13.0807    -6.8998  H       1  <O>11       0.0618
  38 H11      -1.3640   -12.7198    -5.7909  H       1  <O>11       0.0618
  39 H12      -1.5458   -11.0330    -4.0499  H       1  <O>11       0.0618
  40 H13       0.3825    -9.7146    -3.4111  H       1  <O>11       0.0621
  41 H14       4.5047    -7.2557   -11.4499  H       1  <O>11       0.0625
  42 H15       4.4876    -9.6747   -11.5225  H       1  <O>11       0.0618
  43 H16       3.8832   -10.9423    -9.5451  H       1  <O>11       0.0618
  44 H17       3.3002    -9.7877    -7.4999  H       1  <O>11       0.0624
@<TRIPOS>BOND
     1     1     2    2
     2     2     3   am
     3     3     4    1
     4     4     5    1
     5     5     6   ar
     6     6     7   ar
     7     7     8   ar
     8     8     9   ar
     9     9    10   ar
    10     5    10   ar
    11     4    11    1
    12    11    12   ar
    13    12    13   ar
    14    13    14   ar
    15    14    15   ar
    16    15    16   ar
    17    11    16   ar
    18     2    17    1
    19    17    18   ar
    20    18    19   ar
    21    19    20   ar
    22    20    21    2
    23    20    22   ar
    24    22    23   ar
    25    23    24   ar
    26    24    25   ar
    27    25    26   ar
    28    26    27   ar
    29    17    27   ar
    30    22    27   ar
    31     3    28    1
    32     4    29    1
    33    19    30    1
    34     6    31    1
    35     7    32    1
    36     8    33    1
    37     9    34    1
    38    10    35    1
    39    12    36    1
    40    13    37    1
    41    14    38    1
    42    15    39    1
    43    16    40    1
    44    23    41    1
    45    24    42    1
    46    25    43    1
    47    26    44    1
@<TRIPOS>MOLECULE
mol4_1_19
 44 47 0 0 0
SMALL
USER_CHARGES
****
VDW energy = 8.73
@<TRIPOS>ATOM
   1 O1        1.8299    -7.4453    -5.2612  O.2     1  <O>11      -0.2684
   2 C1        2.7526    -7.8812    -5.9334  C.2     1  <O>11       0.2654
   3 N1        3.3490    -9.0650    -5.5910  N.am    1  <O>11      -0.2992
   4 C2        2.8830    -9.8060    -4.4250  C.3     1  <O>11       0.0740
   5 C3        3.9614   -10.6900    -3.9412  C.ar    1  <O>11      -0.0228
   6 C4        4.7979   -10.2469    -2.9139  C.ar    1  <O>11      -0.0565
   7 C5        5.8306   -11.0742    -2.4587  C.ar    1  <O>11      -0.0614
   8 C6        6.0209   -12.3385    -3.0239  C.ar    1  <O>11      -0.0617
   9 C7        5.1703   -12.7717    -4.0465  C.ar    1  <O>11      -0.0614
  10 C8        4.1352   -11.9542    -4.5070  C.ar    1  <O>11      -0.0565
  11 C9        1.7005   -10.6242    -4.7988  C.ar    1  <O>11      -0.0228
  12 C10       1.0663   -11.4324    -3.8409  C.ar    1  <O>11      -0.0565
  13 C11      -0.0388   -12.2129    -4.1965  C.ar    1  <O>11      -0.0614
  14 C12      -0.5234   -12.1904    -5.5069  C.ar    1  <O>11      -0.0617
  15 C13       0.1049   -11.3798    -6.4601  C.ar    1  <O>11      -0.0614
  16 C14       1.2064   -10.5977    -6.1140  C.ar    1  <O>11      -0.0565
  17 C15       3.2180    -7.1410    -7.0990  C.ar    1  <O>11       0.1533
  18 N2        3.3034    -5.7451    -7.0504  N.ar    1  <O>11      -0.1656
  19 N3        3.6332    -5.0370    -8.1558  N.ar    1  <O>11      -0.2420
  20 C16       3.8916    -5.6979    -9.3083  C.ar    1  <O>11       0.2725
  21 O2        4.1320    -4.8987   -10.4425  O.2     1  <O>11      -0.2658
  22 C17       3.9283    -7.0956    -9.4151  C.ar    1  <O>11       0.0501
  23 C18       4.2537    -7.7892   -10.6030  C.ar    1  <O>11      -0.0487
  24 C19       4.2408    -9.1838   -10.6490  C.ar    1  <O>11      -0.0610
  25 C20       3.8944    -9.9108    -9.5147  C.ar    1  <O>11      -0.0611
  26 C21       3.5623    -9.2425    -8.3361  C.ar    1  <O>11      -0.0516
  27 C22       3.5788    -7.8306    -8.2687  C.ar    1  <O>11       0.0195
  28 H1        4.1190    -9.4290    -6.1530  H       1  <O>11       0.1500
  29 H2        2.6059    -9.1058    -3.6369  H       1  <O>11       0.0599
  30 H3        3.6852    -4.0289    -8.1203  H       1  <O>11       0.1921
  31 H4        4.6551    -9.3153    -2.4935  H       1  <O>11       0.0621
  32 H5        6.4540   -10.7497    -1.7029  H       1  <O>11       0.0618
  33 H6        6.7835   -12.9480    -2.6891  H       1  <O>11       0.0618
  34 H7        5.3090   -13.7047    -4.4652  H       1  <O>11       0.0618
  35 H8        3.5062   -12.2812    -5.2570  H       1  <O>11       0.0621
  36 H9        1.4172   -11.4505    -2.8706  H       1  <O>11       0.0621
  37 H10      -0.4977   -12.8074    -3.4887  H       1  <O>11       0.0618
  38 H11      -1.3381   -12.7667    -5.7701  H       1  <O>11       0.0618
  39 H12      -0.2508   -11.3609    -7.4287  H       1  <O>11       0.0618
  40 H13       1.6584    -9.9997    -6.8233  H       1  <O>11       0.0621
  41 H14       4.5047    -7.2557   -11.4499  H       1  <O>11       0.0625
  42 H15       4.4876    -9.6747   -11.5225  H       1  <O>11       0.0618
  43 H16       3.8832   -10.9423    -9.5451  H       1  <O>11       0.0618
  44 H17       3.3002    -9.7877    -7.4999  H       1  <O>11       0.0624
@<TRIPOS>BOND
     1     1     2    2
     2     2     3   am
     3     3     4    1
     4     4     5    1
     5     5     6   ar
     6     6     7   ar
     7     7     8   ar
     8     8     9   ar
     9     9    10   ar
    10     5    10   ar
    11     4    11    1
    12    11    12   ar
    13    12    13   ar
    14    13    14   ar
    15    14    15   ar
    16    15    16   ar
    17    11    16   ar
    18     2    17    1
    19    17    18   ar
    20    18    19   ar
    21    19    20   ar
    22    20    21    2
    23    20    22   ar
    24    22    23   ar
    25    23    24   ar
    26    24    25   ar
    27    25    26   ar
    28    26    27   ar
    29    17    27   ar
    30    22    27   ar
    31     3    28    1
    32     4    29    1
    33    19    30    1
    34     6    31    1
    35     7    32    1
    36     8    33    1
    37     9    34    1
    38    10    35    1
    39    12    36    1
    40    13    37    1
    41    14    38    1
    42    15    39    1
    43    16    40    1
    44    23    41    1
    45    24    42    1
    46    25    43    1
    47    26    44    1
@<TRIPOS>MOLECULE
mol4_1_20
 44 47 0 0 0
SMALL
USER_CHARGES
****
VDW energy = 8.76
@<TRIPOS>ATOM
   1 O1        1.8299    -7.4453    -5.2612  O.2     1  <O>11      -0.2684
   2 C1        2.7526    -7.8812    -5.9334  C.2     1  <O>11       0.2654
   3 N1        3.3490    -9.0650    -5.5910  N.am    1  <O>11      -0.2992
   4 C2        2.8830    -9.8060    -4.4250  C.3     1  <O>11       0.0740
   5 C3        3.9614   -10.6900    -3.9412  C.ar    1  <O>11      -0.0228
   6 C4        4.7979   -10.2469    -2.9139  C.ar    1  <O>11      -0.0565
   7 C5        5.8306   -11.0742    -2.4587  C.ar    1  <O>11      -0.0614
   8 C6        6.0209   -12.3385    -3.0239  C.ar    1  <O>11      -0.0617
   9 C7        5.1703   -12.7717    -4.0465  C.ar    1  <O>11      -0.0614
  10 C8        4.1352   -11.9542    -4.5070  C.ar    1  <O>11      -0.0565
  11 C9        1.7005   -10.6242    -4.7988  C.ar    1  <O>11      -0.0228
  12 C10       1.5625   -11.1137    -6.1081  C.ar    1  <O>11      -0.0565
  13 C11       0.4423   -11.8727    -6.4632  C.ar    1  <O>11      -0.0614
  14 C12      -0.5457   -12.1542    -5.5160  C.ar    1  <O>11      -0.0617
  15 C13      -0.4047   -11.6716    -4.2092  C.ar    1  <O>11      -0.0614
  16 C14       0.7092   -10.9152    -3.8463  C.ar    1  <O>11      -0.0565
  17 C15       3.2180    -7.1410    -7.0990  C.ar    1  <O>11       0.1533
  18 N2        3.3034    -5.7451    -7.0504  N.ar    1  <O>11      -0.1656
  19 N3        3.6332    -5.0370    -8.1558  N.ar    1  <O>11      -0.2420
  20 C16       3.8916    -5.6979    -9.3083  C.ar    1  <O>11       0.2725
  21 O2        4.1320    -4.8987   -10.4425  O.2     1  <O>11      -0.2658
  22 C17       3.9283    -7.0956    -9.4151  C.ar    1  <O>11       0.0501
  23 C18       4.2537    -7.7892   -10.6030  C.ar    1  <O>11      -0.0487
  24 C19       4.2408    -9.1838   -10.6490  C.ar    1  <O>11      -0.0610
  25 C20       3.8944    -9.9108    -9.5147  C.ar    1  <O>11      -0.0611
  26 C21       3.5623    -9.2425    -8.3361  C.ar    1  <O>11      -0.0516
  27 C22       3.5788    -7.8306    -8.2687  C.ar    1  <O>11       0.0195
  28 H1        4.1190    -9.4290    -6.1530  H       1  <O>11       0.1500
  29 H2        2.6059    -9.1058    -3.6369  H       1  <O>11       0.0599
  30 H3        3.6852    -4.0289    -8.1203  H       1  <O>11       0.1921
  31 H4        4.6551    -9.3153    -2.4935  H       1  <O>11       0.0621
  32 H5        6.4540   -10.7497    -1.7029  H       1  <O>11       0.0618
  33 H6        6.7835   -12.9480    -2.6891  H       1  <O>11       0.0618
  34 H7        5.3090   -13.7047    -4.4652  H       1  <O>11       0.0618
  35 H8        3.5062   -12.2812    -5.2570  H       1  <O>11       0.0621
  36 H9        2.2906   -10.9124    -6.8112  H       1  <O>11       0.0621
  37 H10       0.3453   -12.2261    -7.4279  H       1  <O>11       0.0618
  38 H11      -1.3727   -12.7133    -5.7776  H       1  <O>11       0.0618
  39 H12      -1.1326   -11.8779    -3.5073  H       1  <O>11       0.0618
  40 H13       0.8055   -10.5692    -2.8789  H       1  <O>11       0.0621
  41 H14       4.5047    -7.2557   -11.4499  H       1  <O>11       0.0625
  42 H15       4.4876    -9.6747   -11.5225  H       1  <O>11       0.0618
  43 H16       3.8832   -10.9423    -9.5451  H       1  <O>11       0.0618
  44 H17       3.3002    -9.7877    -7.4999  H       1  <O>11       0.0624
@<TRIPOS>BOND
     1     1     2    2
     2     2     3   am
     3     3     4    1
     4     4     5    1
     5     5     6   ar
     6     6     7   ar
     7     7     8   ar
     8     8     9   ar
     9     9    10   ar
    10     5    10   ar
    11     4    11    1
    12    11    12   ar
    13    12    13   ar
    14    13    14   ar
    15    14    15   ar
    16    15    16   ar
    17    11    16   ar
    18     2    17    1
    19    17    18   ar
    20    18    19   ar
    21    19    20   ar
    22    20    21    2
    23    20    22   ar
    24    22    23   ar
    25    23    24   ar
    26    24    25   ar
    27    25    26   ar
    28    26    27   ar
    29    17    27   ar
    30    22    27   ar
    31     3    28    1
    32     4    29    1
    33    19    30    1
    34     6    31    1
    35     7    32    1
    36     8    33    1
    37     9    34    1
    38    10    35    1
    39    12    36    1
    40    13    37    1
    41    14    38    1
    42    15    39    1
    43    16    40    1
    44    23    41    1
    45    24    42    1
    46    25    43    1
    47    26    44    1
@<TRIPOS>MOLECULE
mol4_1_21
 44 47 0 0 0
SMALL
USER_CHARGES
****
VDW energy = 9.72
@<TRIPOS>ATOM
   1 O1        1.8299    -7.4453    -5.2612  O.2     1  <O>11      -0.2684
   2 C1        2.7526    -7.8812    -5.9334  C.2     1  <O>11       0.2654
   3 N1        3.3490    -9.0650    -5.5910  N.am    1  <O>11      -0.2992
   4 C2        2.8830    -9.8060    -4.4250  C.3     1  <O>11       0.0740
   5 C3        3.9614   -10.6900    -3.9412  C.ar    1  <O>11      -0.0228
   6 C4        4.0317   -10.9991    -2.5808  C.ar    1  <O>11      -0.0565
   7 C5        5.0588   -11.8262    -2.1125  C.ar    1  <O>11      -0.0614
   8 C6        6.0053   -12.3449    -3.0009  C.ar    1  <O>11      -0.0617
   9 C7        5.9174   -12.0329    -4.3617  C.ar    1  <O>11      -0.0614
  10 C8        4.8949   -11.2095    -4.8396  C.ar    1  <O>11      -0.0565
  11 C9        1.7005   -10.6242    -4.7988  C.ar    1  <O>11      -0.0228
  12 C10       1.5625   -11.1137    -6.1081  C.ar    1  <O>11      -0.0565
  13 C11       0.4423   -11.8727    -6.4632  C.ar    1  <O>11      -0.0614
  14 C12      -0.5457   -12.1542    -5.5160  C.ar    1  <O>11      -0.0617
  15 C13      -0.4047   -11.6716    -4.2092  C.ar    1  <O>11      -0.0614
  16 C14       0.7092   -10.9152    -3.8463  C.ar    1  <O>11      -0.0565
  17 C15       3.2180    -7.1410    -7.0990  C.ar    1  <O>11       0.1533
  18 N2        3.3034    -5.7451    -7.0504  N.ar    1  <O>11      -0.1656
  19 N3        3.6332    -5.0370    -8.1558  N.ar    1  <O>11      -0.2420
  20 C16       3.8916    -5.6979    -9.3083  C.ar    1  <O>11       0.2725
  21 O2        4.1320    -4.8987   -10.4425  O.2     1  <O>11      -0.2658
  22 C17       3.9283    -7.0956    -9.4151  C.ar    1  <O>11       0.0501
  23 C18       4.2537    -7.7892   -10.6030  C.ar    1  <O>11      -0.0487
  24 C19       4.2408    -9.1838   -10.6490  C.ar    1  <O>11      -0.0610
  25 C20       3.8944    -9.9108    -9.5147  C.ar    1  <O>11      -0.0611
  26 C21       3.5623    -9.2425    -8.3361  C.ar    1  <O>11      -0.0516
  27 C22       3.5788    -7.8306    -8.2687  C.ar    1  <O>11       0.0195
  28 H1        4.1190    -9.4290    -6.1530  H       1  <O>11       0.1500
  29 H2        2.6059    -9.1058    -3.6369  H       1  <O>11       0.0599
  30 H3        3.6852    -4.0289    -8.1203  H       1  <O>11       0.1921
  31 H4        3.3306   -10.6199    -1.9252  H       1  <O>11       0.0621
  32 H5        5.1177   -12.0541    -1.1077  H       1  <O>11       0.0618
  33 H6        6.7636   -12.9537    -2.6553  H       1  <O>11       0.0618
  34 H7        6.6151   -12.4147    -5.0193  H       1  <O>11       0.0618
  35 H8        4.8304   -10.9879    -5.8455  H       1  <O>11       0.0621
  36 H9        2.2906   -10.9124    -6.8112  H       1  <O>11       0.0621
  37 H10       0.3453   -12.2261    -7.4279  H       1  <O>11       0.0618
  38 H11      -1.3727   -12.7133    -5.7776  H       1  <O>11       0.0618
  39 H12      -1.1326   -11.8779    -3.5073  H       1  <O>11       0.0618
  40 H13       0.8055   -10.5692    -2.8789  H       1  <O>11       0.0621
  41 H14       4.5047    -7.2557   -11.4499  H       1  <O>11       0.0625
  42 H15       4.4876    -9.6747   -11.5225  H       1  <O>11       0.0618
  43 H16       3.8832   -10.9423    -9.5451  H       1  <O>11       0.0618
  44 H17       3.3002    -9.7877    -7.4999  H       1  <O>11       0.0624
@<TRIPOS>BOND
     1     1     2    2
     2     2     3   am
     3     3     4    1
     4     4     5    1
     5     5     6   ar
     6     6     7   ar
     7     7     8   ar
     8     8     9   ar
     9     9    10   ar
    10     5    10   ar
    11     4    11    1
    12    11    12   ar
    13    12    13   ar
    14    13    14   ar
    15    14    15   ar
    16    15    16   ar
    17    11    16   ar
    18     2    17    1
    19    17    18   ar
    20    18    19   ar
    21    19    20   ar
    22    20    21    2
    23    20    22   ar
    24    22    23   ar
    25    23    24   ar
    26    24    25   ar
    27    25    26   ar
    28    26    27   ar
    29    17    27   ar
    30    22    27   ar
    31     3    28    1
    32     4    29    1
    33    19    30    1
    34     6    31    1
    35     7    32    1
    36     8    33    1
    37     9    34    1
    38    10    35    1
    39    12    36    1
    40    13    37    1
    41    14    38    1
    42    15    39    1
    43    16    40    1
    44    23    41    1
    45    24    42    1
    46    25    43    1
    47    26    44    1
@<TRIPOS>MOLECULE
mol4_1_22
 44 47 0 0 0
SMALL
USER_CHARGES
****
VDW energy = 10.93
@<TRIPOS>ATOM
   1 O1        1.8299    -7.4453    -5.2612  O.2     1  <O>11      -0.2684
   2 C1        2.7526    -7.8812    -5.9334  C.2     1  <O>11       0.2654
   3 N1        3.3490    -9.0650    -5.5910  N.am    1  <O>11      -0.2992
   4 C2        2.8830    -9.8060    -4.4250  C.3     1  <O>11       0.0740
   5 C3        3.9614   -10.6900    -3.9412  C.ar    1  <O>11      -0.0228
   6 C4        4.8883   -11.1984    -4.8544  C.ar    1  <O>11      -0.0565
   7 C5        5.9059   -12.0475    -4.4054  C.ar    1  <O>11      -0.0614
   8 C6        5.9985   -12.3807    -3.0509  C.ar    1  <O>11      -0.0617
   9 C7        5.0676   -11.8576    -2.1471  C.ar    1  <O>11      -0.0614
  10 C8        4.0490   -11.0076    -2.5848  C.ar    1  <O>11      -0.0565
  11 C9        1.7005   -10.6242    -4.7988  C.ar    1  <O>11      -0.0228
  12 C10       0.6215   -10.0397    -5.4820  C.ar    1  <O>11      -0.0565
  13 C11      -0.4976   -10.8074    -5.8220  C.ar    1  <O>11      -0.0614
  14 C12      -0.5479   -12.1634    -5.4887  C.ar    1  <O>11      -0.0617
  15 C13       0.5307   -12.7474    -4.8133  C.ar    1  <O>11      -0.0614
  16 C14       1.6505   -11.9898    -4.4716  C.ar    1  <O>11      -0.0565
  17 C15       3.2180    -7.1410    -7.0990  C.ar    1  <O>11       0.1533
  18 N2        2.2937    -6.5127    -7.9410  N.ar    1  <O>11      -0.1656
  19 N3        2.7012    -5.9108    -9.0828  N.ar    1  <O>11      -0.2420
  20 C16       4.0182    -5.9138    -9.3948  C.ar    1  <O>11       0.2725
  21 O2        4.3627    -5.3575   -10.6418  O.2     1  <O>11      -0.2658
  22 C17       5.0175    -6.4296    -8.5572  C.ar    1  <O>11       0.0501
  23 C18       6.3988    -6.3834    -8.8537  C.ar    1  <O>11      -0.0487
  24 C19       7.3399    -6.9446    -7.9896  C.ar    1  <O>11      -0.0610
  25 C20       6.9198    -7.5697    -6.8201  C.ar    1  <O>11      -0.0611
  26 C21       5.5598    -7.6320    -6.5158  C.ar    1  <O>11      -0.0516
  27 C22       4.5932    -7.0610    -7.3749  C.ar    1  <O>11       0.0195
  28 H1        4.1190    -9.4290    -6.1530  H       1  <O>11       0.1500
  29 H2        2.6059    -9.1058    -3.6369  H       1  <O>11       0.0599
  30 H3        2.0308    -5.4659    -9.6934  H       1  <O>11       0.1921
  31 H4        4.8229   -10.9493    -5.8538  H       1  <O>11       0.0621
  32 H5        6.5906   -12.4292    -5.0766  H       1  <O>11       0.0618
  33 H6        6.7481   -13.0081    -2.7200  H       1  <O>11       0.0618
  34 H7        5.1341   -12.1021    -1.1467  H       1  <O>11       0.0618
  35 H8        3.3689   -10.6188    -1.9130  H       1  <O>11       0.0621
  36 H9        0.6542    -9.0396    -5.7344  H       1  <O>11       0.0621
  37 H10      -1.2886   -10.3707    -6.3206  H       1  <O>11       0.0618
  38 H11      -1.3735   -12.7300    -5.7383  H       1  <O>11       0.0618
  39 H12       0.4965   -13.7487    -4.5659  H       1  <O>11       0.0618
  40 H13       2.4421   -12.4319    -3.9787  H       1  <O>11       0.0621
  41 H14       6.7165    -5.9273    -9.7232  H       1  <O>11       0.0625
  42 H15       8.3451    -6.8961    -8.2178  H       1  <O>11       0.0618
  43 H16       7.6128    -7.9865    -6.1788  H       1  <O>11       0.0618
  44 H17       5.2544    -8.1026    -5.6496  H       1  <O>11       0.0624
@<TRIPOS>BOND
     1     1     2    2
     2     2     3   am
     3     3     4    1
     4     4     5    1
     5     5     6   ar
     6     6     7   ar
     7     7     8   ar
     8     8     9   ar
     9     9    10   ar
    10     5    10   ar
    11     4    11    1
    12    11    12   ar
    13    12    13   ar
    14    13    14   ar
    15    14    15   ar
    16    15    16   ar
    17    11    16   ar
    18     2    17    1
    19    17    18   ar
    20    18    19   ar
    21    19    20   ar
    22    20    21    2
    23    20    22   ar
    24    22    23   ar
    25    23    24   ar
    26    24    25   ar
    27    25    26   ar
    28    26    27   ar
    29    17    27   ar
    30    22    27   ar
    31     3    28    1
    32     4    29    1
    33    19    30    1
    34     6    31    1
    35     7    32    1
    36     8    33    1
    37     9    34    1
    38    10    35    1
    39    12    36    1
    40    13    37    1
    41    14    38    1
    42    15    39    1
    43    16    40    1
    44    23    41    1
    45    24    42    1
    46    25    43    1
    47    26    44    1
@<TRIPOS>MOLECULE
mol4_1_23
 44 47 0 0 0
SMALL
USER_CHARGES
****
VDW energy = 12.18
@<TRIPOS>ATOM
   1 O1        1.8299    -7.4453    -5.2612  O.2     1  <O>11      -0.2684
   2 C1        2.7526    -7.8812    -5.9334  C.2     1  <O>11       0.2654
   3 N1        3.3490    -9.0650    -5.5910  N.am    1  <O>11      -0.2992
   4 C2        2.8830    -9.8060    -4.4250  C.3     1  <O>11       0.0740
   5 C3        3.9614   -10.6900    -3.9412  C.ar    1  <O>11      -0.0228
   6 C4        3.7323   -11.4980    -2.8249  C.ar    1  <O>11      -0.0565
   7 C5        4.7541   -12.3293    -2.3525  C.ar    1  <O>11      -0.0614
   8 C6        5.9945   -12.3559    -2.9967  C.ar    1  <O>11      -0.0617
   9 C7        6.2064   -11.5470    -4.1181  C.ar    1  <O>11      -0.0614
  10 C8        5.1924   -10.7148    -4.5988  C.ar    1  <O>11      -0.0565
  11 C9        1.7005   -10.6242    -4.7988  C.ar    1  <O>11      -0.0228
  12 C10       0.7103   -10.9155    -3.8462  C.ar    1  <O>11      -0.0565
  13 C11      -0.3962   -11.6971    -4.1950  C.ar    1  <O>11      -0.0614
  14 C12      -0.5272   -12.1900    -5.4959  C.ar    1  <O>11      -0.0617
  15 C13       0.4567   -11.8941    -6.4471  C.ar    1  <O>11      -0.0614
  16 C14       1.5624   -11.1148    -6.1083  C.ar    1  <O>11      -0.0565
  17 C15       3.2180    -7.1410    -7.0990  C.ar    1  <O>11       0.1533
  18 N2        4.4106    -7.5118    -7.7302  N.ar    1  <O>11      -0.1656
  19 N3        4.9095    -6.7716    -8.7478  N.ar    1  <O>11      -0.2420
  20 C16       4.2330    -5.6728    -9.1560  C.ar    1  <O>11       0.2725
  21 O2        4.8549    -4.8942   -10.1510  O.2     1  <O>11      -0.2658
  22 C17       2.9831    -5.2918    -8.6470  C.ar    1  <O>11       0.0501
  23 C18       2.2473    -4.1775    -9.1104  C.ar    1  <O>11      -0.0487
  24 C19       1.0220    -3.8350    -8.5375  C.ar    1  <O>11      -0.0610
  25 C20       0.5134    -4.5915    -7.4868  C.ar    1  <O>11      -0.0611
  26 C21       1.2302    -5.6897    -7.0110  C.ar    1  <O>11      -0.0516
  27 C22       2.4687    -6.0566    -7.5854  C.ar    1  <O>11       0.0195
  28 H1        4.1190    -9.4290    -6.1530  H       1  <O>11       0.1500
  29 H2        2.6059    -9.1058    -3.6369  H       1  <O>11       0.0599
  30 H3        5.7753    -7.0363    -9.1956  H       1  <O>11       0.1921
  31 H4        2.8154   -11.4819    -2.3516  H       1  <O>11       0.0621
  32 H5        4.5913   -12.9249    -1.5256  H       1  <O>11       0.0618
  33 H6        6.7484   -12.9679    -2.6474  H       1  <O>11       0.0618
  34 H7        7.1214   -11.5651    -4.5952  H       1  <O>11       0.0618
  35 H8        5.3516   -10.1251    -5.4306  H       1  <O>11       0.0621
  36 H9        0.7994   -10.5512    -2.8847  H       1  <O>11       0.0621
  37 H10      -1.1182   -11.9105    -3.4891  H       1  <O>11       0.0618
  38 H11      -1.3428   -12.7675    -5.7536  H       1  <O>11       0.0618
  39 H12       0.3627   -12.2566    -7.4088  H       1  <O>11       0.0618
  40 H13       2.2788   -10.8984    -6.8189  H       1  <O>11       0.0621
  41 H14       2.6224    -3.6080    -9.8850  H       1  <O>11       0.0625
  42 H15       0.4942    -3.0223    -8.8924  H       1  <O>11       0.0618
  43 H16      -0.3923    -4.3410    -7.0601  H       1  <O>11       0.0618
  44 H17       0.8503    -6.2431    -6.2272  H       1  <O>11       0.0624
@<TRIPOS>BOND
     1     1     2    2
     2     2     3   am
     3     3     4    1
     4     4     5    1
     5     5     6   ar
     6     6     7   ar
     7     7     8   ar
     8     8     9   ar
     9     9    10   ar
    10     5    10   ar
    11     4    11    1
    12    11    12   ar
    13    12    13   ar
    14    13    14   ar
    15    14    15   ar
    16    15    16   ar
    17    11    16   ar
    18     2    17    1
    19    17    18   ar
    20    18    19   ar
    21    19    20   ar
    22    20    21    2
    23    20    22   ar
    24    22    23   ar
    25    23    24   ar
    26    24    25   ar
    27    25    26   ar
    28    26    27   ar
    29    17    27   ar
    30    22    27   ar
    31     3    28    1
    32     4    29    1
    33    19    30    1
    34     6    31    1
    35     7    32    1
    36     8    33    1
    37     9    34    1
    38    10    35    1
    39    12    36    1
    40    13    37    1
    41    14    38    1
    42    15    39    1
    43    16    40    1
    44    23    41    1
    45    24    42    1
    46    25    43    1
    47    26    44    1
@<TRIPOS>MOLECULE
mol4_1_24
 44 47 0 0 0
SMALL
USER_CHARGES
****
VDW energy = 12.20
@<TRIPOS>ATOM
   1 O1        1.8299    -7.4453    -5.2612  O.2     1  <O>11      -0.2684
   2 C1        2.7526    -7.8812    -5.9334  C.2     1  <O>11       0.2654
   3 N1        3.3490    -9.0650    -5.5910  N.am    1  <O>11      -0.2992
   4 C2        2.8830    -9.8060    -4.4250  C.3     1  <O>11       0.0740
   5 C3        3.9614   -10.6900    -3.9412  C.ar    1  <O>11      -0.0228
   6 C4        3.7323   -11.4980    -2.8249  C.ar    1  <O>11      -0.0565
   7 C5        4.7541   -12.3293    -2.3525  C.ar    1  <O>11      -0.0614
   8 C6        5.9945   -12.3559    -2.9967  C.ar    1  <O>11      -0.0617
   9 C7        6.2064   -11.5470    -4.1181  C.ar    1  <O>11      -0.0614
  10 C8        5.1924   -10.7148    -4.5988  C.ar    1  <O>11      -0.0565
  11 C9        1.7005   -10.6242    -4.7988  C.ar    1  <O>11      -0.0228
  12 C10       1.5625   -11.1137    -6.1081  C.ar    1  <O>11      -0.0565
  13 C11       0.4423   -11.8727    -6.4632  C.ar    1  <O>11      -0.0614
  14 C12      -0.5457   -12.1542    -5.5160  C.ar    1  <O>11      -0.0617
  15 C13      -0.4047   -11.6716    -4.2092  C.ar    1  <O>11      -0.0614
  16 C14       0.7092   -10.9152    -3.8463  C.ar    1  <O>11      -0.0565
  17 C15       3.2180    -7.1410    -7.0990  C.ar    1  <O>11       0.1533
  18 N2        4.4106    -7.5118    -7.7302  N.ar    1  <O>11      -0.1656
  19 N3        4.9095    -6.7716    -8.7478  N.ar    1  <O>11      -0.2420
  20 C16       4.2330    -5.6728    -9.1560  C.ar    1  <O>11       0.2725
  21 O2        4.8549    -4.8942   -10.1510  O.2     1  <O>11      -0.2658
  22 C17       2.9831    -5.2918    -8.6470  C.ar    1  <O>11       0.0501
  23 C18       2.2473    -4.1775    -9.1104  C.ar    1  <O>11      -0.0487
  24 C19       1.0220    -3.8350    -8.5375  C.ar    1  <O>11      -0.0610
  25 C20       0.5134    -4.5915    -7.4868  C.ar    1  <O>11      -0.0611
  26 C21       1.2302    -5.6897    -7.0110  C.ar    1  <O>11      -0.0516
  27 C22       2.4687    -6.0566    -7.5854  C.ar    1  <O>11       0.0195
  28 H1        4.1190    -9.4290    -6.1530  H       1  <O>11       0.1500
  29 H2        2.6059    -9.1058    -3.6369  H       1  <O>11       0.0599
  30 H3        5.7753    -7.0363    -9.1956  H       1  <O>11       0.1921
  31 H4        2.8154   -11.4819    -2.3516  H       1  <O>11       0.0621
  32 H5        4.5913   -12.9249    -1.5256  H       1  <O>11       0.0618
  33 H6        6.7484   -12.9679    -2.6474  H       1  <O>11       0.0618
  34 H7        7.1214   -11.5651    -4.5952  H       1  <O>11       0.0618
  35 H8        5.3516   -10.1251    -5.4306  H       1  <O>11       0.0621
  36 H9        2.2906   -10.9124    -6.8112  H       1  <O>11       0.0621
  37 H10       0.3453   -12.2261    -7.4279  H       1  <O>11       0.0618
  38 H11      -1.3727   -12.7133    -5.7776  H       1  <O>11       0.0618
  39 H12      -1.1326   -11.8779    -3.5073  H       1  <O>11       0.0618
  40 H13       0.8055   -10.5692    -2.8789  H       1  <O>11       0.0621
  41 H14       2.6224    -3.6080    -9.8850  H       1  <O>11       0.0625
  42 H15       0.4942    -3.0223    -8.8924  H       1  <O>11       0.0618
  43 H16      -0.3923    -4.3410    -7.0601  H       1  <O>11       0.0618
  44 H17       0.8503    -6.2431    -6.2272  H       1  <O>11       0.0624
@<TRIPOS>BOND
     1     1     2    2
     2     2     3   am
     3     3     4    1
     4     4     5    1
     5     5     6   ar
     6     6     7   ar
     7     7     8   ar
     8     8     9   ar
     9     9    10   ar
    10     5    10   ar
    11     4    11    1
    12    11    12   ar
    13    12    13   ar
    14    13    14   ar
    15    14    15   ar
    16    15    16   ar
    17    11    16   ar
    18     2    17    1
    19    17    18   ar
    20    18    19   ar
    21    19    20   ar
    22    20    21    2
    23    20    22   ar
    24    22    23   ar
    25    23    24   ar
    26    24    25   ar
    27    25    26   ar
    28    26    27   ar
    29    17    27   ar
    30    22    27   ar
    31     3    28    1
    32     4    29    1
    33    19    30    1
    34     6    31    1
    35     7    32    1
    36     8    33    1
    37     9    34    1
    38    10    35    1
    39    12    36    1
    40    13    37    1
    41    14    38    1
    42    15    39    1
    43    16    40    1
    44    23    41    1
    45    24    42    1
    46    25    43    1
    47    26    44    1
@<TRIPOS>MOLECULE
mol4_1_25
 44 47 0 0 0
SMALL
USER_CHARGES
****
VDW energy = 16.36
@<TRIPOS>ATOM
   1 O1        1.8299    -7.4453    -5.2612  O.2     1  <O>11      -0.2684
   2 C1        2.7526    -7.8812    -5.9334  C.2     1  <O>11       0.2654
   3 N1        3.3490    -9.0650    -5.5910  N.am    1  <O>11      -0.2992
   4 C2        2.8830    -9.8060    -4.4250  C.3     1  <O>11       0.0740
   5 C3        3.0329    -8.9690    -3.2186  C.ar    1  <O>11      -0.0228
   6 C4        2.6455    -9.4832    -1.9789  C.ar    1  <O>11      -0.0565
   7 C5        2.7726    -8.6910    -0.8323  C.ar    1  <O>11      -0.0614
   8 C6        3.2894    -7.3955    -0.9254  C.ar    1  <O>11      -0.0617
   9 C7        3.6805    -6.8972    -2.1727  C.ar    1  <O>11      -0.0614
  10 C8        3.5594    -7.6805    -3.3231  C.ar    1  <O>11      -0.0565
  11 C9        3.6878   -11.0456    -4.2724  C.ar    1  <O>11      -0.0228
  12 C10       5.0240   -11.0808    -4.7037  C.ar    1  <O>11      -0.0565
  13 C11       5.7773   -12.2522    -4.5721  C.ar    1  <O>11      -0.0614
  14 C12       5.2073   -13.3951    -4.0054  C.ar    1  <O>11      -0.0617
  15 C13       3.8772   -13.3579    -3.5695  C.ar    1  <O>11      -0.0614
  16 C14       3.1194   -12.1941    -3.6959  C.ar    1  <O>11      -0.0565
  17 C15       3.2180    -7.1410    -7.0990  C.ar    1  <O>11       0.1533
  18 N2        2.2937    -6.5127    -7.9410  N.ar    1  <O>11      -0.1656
  19 N3        2.7012    -5.9108    -9.0828  N.ar    1  <O>11      -0.2420
  20 C16       4.0182    -5.9138    -9.3948  C.ar    1  <O>11       0.2725
  21 O2        4.3627    -5.3575   -10.6418  O.2     1  <O>11      -0.2658
  22 C17       5.0175    -6.4296    -8.5572  C.ar    1  <O>11       0.0501
  23 C18       6.3988    -6.3834    -8.8537  C.ar    1  <O>11      -0.0487
  24 C19       7.3399    -6.9446    -7.9896  C.ar    1  <O>11      -0.0610
  25 C20       6.9198    -7.5697    -6.8201  C.ar    1  <O>11      -0.0611
  26 C21       5.5598    -7.6320    -6.5158  C.ar    1  <O>11      -0.0516
  27 C22       4.5932    -7.0610    -7.3749  C.ar    1  <O>11       0.0195
  28 H1        4.1190    -9.4290    -6.1530  H       1  <O>11       0.1500
  29 H2        1.8333   -10.0683    -4.5573  H       1  <O>11       0.0599
  30 H3        2.0308    -5.4659    -9.6934  H       1  <O>11       0.1921
  31 H4        2.2679   -10.4410    -1.9090  H       1  <O>11       0.0621
  32 H5        2.4837    -9.0646     0.0854  H       1  <O>11       0.0618
  33 H6        3.3818    -6.8108    -0.0800  H       1  <O>11       0.0618
  34 H7        4.0623    -5.9410    -2.2437  H       1  <O>11       0.0618
  35 H8        3.8557    -7.3107    -4.2399  H       1  <O>11       0.0621
  36 H9        5.4519   -10.2388    -5.1197  H       1  <O>11       0.0621
  37 H10       6.7574   -12.2723    -4.8947  H       1  <O>11       0.0618
  38 H11       5.7622   -14.2598    -3.9089  H       1  <O>11       0.0618
  39 H12       3.4533   -14.2003    -3.1504  H       1  <O>11       0.0618
  40 H13       2.1416   -12.1763    -3.3662  H       1  <O>11       0.0621
  41 H14       6.7165    -5.9273    -9.7232  H       1  <O>11       0.0625
  42 H15       8.3451    -6.8961    -8.2178  H       1  <O>11       0.0618
  43 H16       7.6128    -7.9865    -6.1788  H       1  <O>11       0.0618
  44 H17       5.2544    -8.1026    -5.6496  H       1  <O>11       0.0624
@<TRIPOS>BOND
     1     1     2    2
     2     2     3   am
     3     3     4    1
     4     4     5    1
     5     5     6   ar
     6     6     7   ar
     7     7     8   ar
     8     8     9   ar
     9     9    10   ar
    10     5    10   ar
    11     4    11    1
    12    11    12   ar
    13    12    13   ar
    14    13    14   ar
    15    14    15   ar
    16    15    16   ar
    17    11    16   ar
    18     2    17    1
    19    17    18   ar
    20    18    19   ar
    21    19    20   ar
    22    20    21    2
    23    20    22   ar
    24    22    23   ar
    25    23    24   ar
    26    24    25   ar
    27    25    26   ar
    28    26    27   ar
    29    17    27   ar
    30    22    27   ar
    31     3    28    1
    32     4    29    1
    33    19    30    1
    34     6    31    1
    35     7    32    1
    36     8    33    1
    37     9    34    1
    38    10    35    1
    39    12    36    1
    40    13    37    1
    41    14    38    1
    42    15    39    1
    43    16    40    1
    44    23    41    1
    45    24    42    1
    46    25    43    1
    47    26    44    1
@<TRIPOS>MOLECULE
mol4_1_26
 44 47 0 0 0
SMALL
USER_CHARGES
****
VDW energy = 18.39
@<TRIPOS>ATOM
   1 O1        1.8299    -7.4453    -5.2612  O.2     1  <O>11      -0.2684
   2 C1        2.7526    -7.8812    -5.9334  C.2     1  <O>11       0.2654
   3 N1        3.3490    -9.0650    -5.5910  N.am    1  <O>11      -0.2992
   4 C2        2.8830    -9.8060    -4.4250  C.3     1  <O>11       0.0740
   5 C3        3.9614   -10.6900    -3.9412  C.ar    1  <O>11      -0.0228
   6 C4        4.4741   -11.6705    -4.7940  C.ar    1  <O>11      -0.0565
   7 C5        5.4877   -12.5209    -4.3382  C.ar    1  <O>11      -0.0614
   8 C6        5.9885   -12.3868    -3.0400  C.ar    1  <O>11      -0.0617
   9 C7        5.4705   -11.3952    -2.2002  C.ar    1  <O>11      -0.0614
  10 C8        4.4598   -10.5399    -2.6461  C.ar    1  <O>11      -0.0565
  11 C9        1.7005   -10.6242    -4.7988  C.ar    1  <O>11      -0.0228
  12 C10       0.6215   -10.0397    -5.4820  C.ar    1  <O>11      -0.0565
  13 C11      -0.4976   -10.8074    -5.8220  C.ar    1  <O>11      -0.0614
  14 C12      -0.5479   -12.1634    -5.4887  C.ar    1  <O>11      -0.0617
  15 C13       0.5307   -12.7474    -4.8133  C.ar    1  <O>11      -0.0614
  16 C14       1.6505   -11.9898    -4.4716  C.ar    1  <O>11      -0.0565
  17 C15       3.2180    -7.1410    -7.0990  C.ar    1  <O>11       0.1533
  18 N2        4.4106    -7.5118    -7.7302  N.ar    1  <O>11      -0.1656
  19 N3        4.9095    -6.7716    -8.7478  N.ar    1  <O>11      -0.2420
  20 C16       4.2330    -5.6728    -9.1560  C.ar    1  <O>11       0.2725
  21 O2        4.8549    -4.8942   -10.1510  O.2     1  <O>11      -0.2658
  22 C17       2.9831    -5.2918    -8.6470  C.ar    1  <O>11       0.0501
  23 C18       2.2473    -4.1775    -9.1104  C.ar    1  <O>11      -0.0487
  24 C19       1.0220    -3.8350    -8.5375  C.ar    1  <O>11      -0.0610
  25 C20       0.5134    -4.5915    -7.4868  C.ar    1  <O>11      -0.0611
  26 C21       1.2302    -5.6897    -7.0110  C.ar    1  <O>11      -0.0516
  27 C22       2.4687    -6.0566    -7.5854  C.ar    1  <O>11       0.0195
  28 H1        4.1190    -9.4290    -6.1530  H       1  <O>11       0.1500
  29 H2        2.6059    -9.1058    -3.6369  H       1  <O>11       0.0599
  30 H3        5.7753    -7.0363    -9.1956  H       1  <O>11       0.1921
  31 H4        4.1077   -11.7671    -5.7539  H       1  <O>11       0.0621
  32 H5        5.8669   -13.2498    -4.9628  H       1  <O>11       0.0618
  33 H6        6.7350   -13.0150    -2.7034  H       1  <O>11       0.0618
  34 H7        5.8388   -11.2943    -1.2414  H       1  <O>11       0.0618
  35 H8        4.0859    -9.8055    -2.0250  H       1  <O>11       0.0621
  36 H9        0.6542    -9.0396    -5.7344  H       1  <O>11       0.0621
  37 H10      -1.2886   -10.3707    -6.3206  H       1  <O>11       0.0618
  38 H11      -1.3735   -12.7300    -5.7383  H       1  <O>11       0.0618
  39 H12       0.4965   -13.7487    -4.5659  H       1  <O>11       0.0618
  40 H13       2.4421   -12.4319    -3.9787  H       1  <O>11       0.0621
  41 H14       2.6224    -3.6080    -9.8850  H       1  <O>11       0.0625
  42 H15       0.4942    -3.0223    -8.8924  H       1  <O>11       0.0618
  43 H16      -0.3923    -4.3410    -7.0601  H       1  <O>11       0.0618
  44 H17       0.8503    -6.2431    -6.2272  H       1  <O>11       0.0624
@<TRIPOS>BOND
     1     1     2    2
     2     2     3   am
     3     3     4    1
     4     4     5    1
     5     5     6   ar
     6     6     7   ar
     7     7     8   ar
     8     8     9   ar
     9     9    10   ar
    10     5    10   ar
    11     4    11    1
    12    11    12   ar
    13    12    13   ar
    14    13    14   ar
    15    14    15   ar
    16    15    16   ar
    17    11    16   ar
    18     2    17    1
    19    17    18   ar
    20    18    19   ar
    21    19    20   ar
    22    20    21    2
    23    20    22   ar
    24    22    23   ar
    25    23    24   ar
    26    24    25   ar
    27    25    26   ar
    28    26    27   ar
    29    17    27   ar
    30    22    27   ar
    31     3    28    1
    32     4    29    1
    33    19    30    1
    34     6    31    1
    35     7    32    1
    36     8    33    1
    37     9    34    1
    38    10    35    1
    39    12    36    1
    40    13    37    1
    41    14    38    1
    42    15    39    1
    43    16    40    1
    44    23    41    1
    45    24    42    1
    46    25    43    1
    47    26    44    1
@<TRIPOS>MOLECULE
mol4_1_27
 44 47 0 0 0
SMALL
USER_CHARGES
****
VDW energy = 23.59
@<TRIPOS>ATOM
   1 O1        1.8299    -7.4453    -5.2612  O.2     1  <O>11      -0.2684
   2 C1        2.7526    -7.8812    -5.9334  C.2     1  <O>11       0.2654
   3 N1        3.3490    -9.0650    -5.5910  N.am    1  <O>11      -0.2992
   4 C2        2.8830    -9.8060    -4.4250  C.3     1  <O>11       0.0740
   5 C3        3.0329    -8.9690    -3.2186  C.ar    1  <O>11      -0.0228
   6 C4        2.6455    -9.4832    -1.9789  C.ar    1  <O>11      -0.0565
   7 C5        2.7726    -8.6910    -0.8323  C.ar    1  <O>11      -0.0614
   8 C6        3.2894    -7.3955    -0.9254  C.ar    1  <O>11      -0.0617
   9 C7        3.6805    -6.8972    -2.1727  C.ar    1  <O>11      -0.0614
  10 C8        3.5594    -7.6805    -3.3231  C.ar    1  <O>11      -0.0565
  11 C9        3.6878   -11.0456    -4.2724  C.ar    1  <O>11      -0.0228
  12 C10       3.8788   -11.9058    -5.3661  C.ar    1  <O>11      -0.0565
  13 C11       4.6254   -13.0797    -5.2186  C.ar    1  <O>11      -0.0614
  14 C12       5.1913   -13.4027    -3.9825  C.ar    1  <O>11      -0.0617
  15 C13       5.0062   -12.5417    -2.8939  C.ar    1  <O>11      -0.0614
  16 C14       4.2643   -11.3690    -3.0324  C.ar    1  <O>11      -0.0565
  17 C15       3.2180    -7.1410    -7.0990  C.ar    1  <O>11       0.1533
  18 N2        4.2311    -6.1859    -6.9598  N.ar    1  <O>11      -0.1656
  19 N3        4.6013    -5.4173    -8.0108  N.ar    1  <O>11      -0.2420
  20 C16       3.9862    -5.5925    -9.2035  C.ar    1  <O>11       0.2725
  21 O2        4.3488    -4.6962   -10.2273  O.2     1  <O>11      -0.2658
  22 C17       3.0370    -6.5942    -9.4525  C.ar    1  <O>11       0.0501
  23 C18       2.4346    -6.8168   -10.7117  C.ar    1  <O>11      -0.0487
  24 C19       1.4721    -7.8123   -10.8835  C.ar    1  <O>11      -0.0610
  25 C20       1.0867    -8.5968    -9.8014  C.ar    1  <O>11      -0.0611
  26 C21       1.6646    -8.3854    -8.5495  C.ar    1  <O>11      -0.0516
  27 C22       2.6477    -7.3875    -8.3591  C.ar    1  <O>11       0.0195
  28 H1        4.1190    -9.4290    -6.1530  H       1  <O>11       0.1500
  29 H2        1.8333   -10.0683    -4.5573  H       1  <O>11       0.0599
  30 H3        5.3265    -4.7223    -7.9053  H       1  <O>11       0.1921
  31 H4        2.2679   -10.4410    -1.9090  H       1  <O>11       0.0621
  32 H5        2.4837    -9.0646     0.0854  H       1  <O>11       0.0618
  33 H6        3.3818    -6.8108    -0.0800  H       1  <O>11       0.0618
  34 H7        4.0623    -5.9410    -2.2437  H       1  <O>11       0.0618
  35 H8        3.8557    -7.3107    -4.2399  H       1  <O>11       0.0621
  36 H9        3.4666   -11.6709    -6.2826  H       1  <O>11       0.0621
  37 H10       4.7587   -13.7092    -6.0254  H       1  <O>11       0.0618
  38 H11       5.7413   -14.2689    -3.8728  H       1  <O>11       0.0618
  39 H12       5.4229   -12.7774    -1.9797  H       1  <O>11       0.0618
  40 H13       4.1389   -10.7390    -2.2247  H       1  <O>11       0.0621
  41 H14       2.7111    -6.2336   -11.5170  H       1  <O>11       0.0625
  42 H15       1.0471    -7.9662   -11.8113  H       1  <O>11       0.0618
  43 H16       0.3747    -9.3338    -9.9245  H       1  <O>11       0.0618
  44 H17       1.3697    -8.9668    -7.7494  H       1  <O>11       0.0624
@<TRIPOS>BOND
     1     1     2    2
     2     2     3   am
     3     3     4    1
     4     4     5    1
     5     5     6   ar
     6     6     7   ar
     7     7     8   ar
     8     8     9   ar
     9     9    10   ar
    10     5    10   ar
    11     4    11    1
    12    11    12   ar
    13    12    13   ar
    14    13    14   ar
    15    14    15   ar
    16    15    16   ar
    17    11    16   ar
    18     2    17    1
    19    17    18   ar
    20    18    19   ar
    21    19    20   ar
    22    20    21    2
    23    20    22   ar
    24    22    23   ar
    25    23    24   ar
    26    24    25   ar
    27    25    26   ar
    28    26    27   ar
    29    17    27   ar
    30    22    27   ar
    31     3    28    1
    32     4    29    1
    33    19    30    1
    34     6    31    1
    35     7    32    1
    36     8    33    1
    37     9    34    1
    38    10    35    1
    39    12    36    1
    40    13    37    1
    41    14    38    1
    42    15    39    1
    43    16    40    1
    44    23    41    1
    45    24    42    1
    46    25    43    1
    47    26    44    1
@<TRIPOS>MOLECULE
mol4_1_28
 44 47 0 0 0
SMALL
USER_CHARGES
****
VDW energy = 31.05
@<TRIPOS>ATOM
   1 O1        1.8299    -7.4453    -5.2612  O.2     1  <O>11      -0.2684
   2 C1        2.7526    -7.8812    -5.9334  C.2     1  <O>11       0.2654
   3 N1        3.3490    -9.0650    -5.5910  N.am    1  <O>11      -0.2992
   4 C2        4.4501    -9.5856    -6.3925  C.3     1  <O>11       0.0740
   5 C3        4.5523   -11.0451    -6.1982  C.ar    1  <O>11      -0.0228
   6 C4        3.9229   -11.9002    -7.1060  C.ar    1  <O>11      -0.0565
   7 C5        4.0045   -13.2849    -6.9212  C.ar    1  <O>11      -0.0614
   8 C6        4.7161   -13.8100    -5.8385  C.ar    1  <O>11      -0.0617
   9 C7        5.3478   -12.9414    -4.9422  C.ar    1  <O>11      -0.0614
  10 C8        5.2739   -11.5574    -5.1187  C.ar    1  <O>11      -0.0565
  11 C9        5.7190    -8.9384    -5.9698  C.ar    1  <O>11      -0.0228
  12 C10       5.8886    -8.5104    -4.6429  C.ar    1  <O>11      -0.0565
  13 C11       7.0783    -7.8890    -4.2486  C.ar    1  <O>11      -0.0614
  14 C12       8.1094    -7.6940    -5.1712  C.ar    1  <O>11      -0.0617
  15 C13       7.9426    -8.1267    -6.4924  C.ar    1  <O>11      -0.0614
  16 C14       6.7604    -8.7480    -6.8937  C.ar    1  <O>11      -0.0565
  17 C15       3.2180    -7.1410    -7.0990  C.ar    1  <O>11       0.1533
  18 N2        4.4106    -7.5118    -7.7302  N.ar    1  <O>11      -0.1656
  19 N3        4.9095    -6.7716    -8.7478  N.ar    1  <O>11      -0.2420
  20 C16       4.2330    -5.6728    -9.1560  C.ar    1  <O>11       0.2725
  21 O2        4.8549    -4.8942   -10.1510  O.2     1  <O>11      -0.2658
  22 C17       2.9831    -5.2918    -8.6470  C.ar    1  <O>11       0.0501
  23 C18       2.2473    -4.1775    -9.1104  C.ar    1  <O>11      -0.0487
  24 C19       1.0220    -3.8350    -8.5375  C.ar    1  <O>11      -0.0610
  25 C20       0.5134    -4.5915    -7.4868  C.ar    1  <O>11      -0.0611
  26 C21       1.2302    -5.6897    -7.0110  C.ar    1  <O>11      -0.0516
  27 C22       2.4687    -6.0566    -7.5854  C.ar    1  <O>11       0.0195
  28 H1        3.0233    -9.5821    -4.7739  H       1  <O>11       0.1500
  29 H2        4.2659    -9.3710    -7.4452  H       1  <O>11       0.0599
  30 H3        5.7753    -7.0363    -9.1956  H       1  <O>11       0.1921
  31 H4        3.4010   -11.5131    -7.9077  H       1  <O>11       0.0621
  32 H5        3.5376   -13.9208    -7.5865  H       1  <O>11       0.0618
  33 H6        4.7750   -14.8312    -5.7015  H       1  <O>11       0.0618
  34 H7        5.8737   -13.3268    -4.1423  H       1  <O>11       0.0618
  35 H8        5.7474   -10.9211    -4.4585  H       1  <O>11       0.0621
  36 H9        5.1323    -8.6549    -3.9558  H       1  <O>11       0.0621
  37 H10       7.1949    -7.5735    -3.2729  H       1  <O>11       0.0618
  38 H11       8.9869    -7.2349    -4.8812  H       1  <O>11       0.0618
  39 H12       8.7023    -7.9843    -7.1762  H       1  <O>11       0.0618
  40 H13       6.6504    -9.0678    -7.8688  H       1  <O>11       0.0621
  41 H14       2.6224    -3.6080    -9.8850  H       1  <O>11       0.0625
  42 H15       0.4942    -3.0223    -8.8924  H       1  <O>11       0.0618
  43 H16      -0.3923    -4.3410    -7.0601  H       1  <O>11       0.0618
  44 H17       0.8503    -6.2431    -6.2272  H       1  <O>11       0.0624
@<TRIPOS>BOND
     1     1     2    2
     2     2     3   am
     3     3     4    1
     4     4     5    1
     5     5     6   ar
     6     6     7   ar
     7     7     8   ar
     8     8     9   ar
     9     9    10   ar
    10     5    10   ar
    11     4    11    1
    12    11    12   ar
    13    12    13   ar
    14    13    14   ar
    15    14    15   ar
    16    15    16   ar
    17    11    16   ar
    18     2    17    1
    19    17    18   ar
    20    18    19   ar
    21    19    20   ar
    22    20    21    2
    23    20    22   ar
    24    22    23   ar
    25    23    24   ar
    26    24    25   ar
    27    25    26   ar
    28    26    27   ar
    29    17    27   ar
    30    22    27   ar
    31     3    28    1
    32     4    29    1
    33    19    30    1
    34     6    31    1
    35     7    32    1
    36     8    33    1
    37     9    34    1
    38    10    35    1
    39    12    36    1
    40    13    37    1
    41    14    38    1
    42    15    39    1
    43    16    40    1
    44    23    41    1
    45    24    42    1
    46    25    43    1
    47    26    44    1
@<TRIPOS>MOLECULE
mol4_1_29
 44 47 0 0 0
SMALL
USER_CHARGES
****
VDW energy = 31.60
@<TRIPOS>ATOM
   1 O1        1.8299    -7.4453    -5.2612  O.2     1  <O>11      -0.2684
   2 C1        2.7526    -7.8812    -5.9334  C.2     1  <O>11       0.2654
   3 N1        3.3490    -9.0650    -5.5910  N.am    1  <O>11      -0.2992
   4 C2        2.8830    -9.8060    -4.4250  C.3     1  <O>11       0.0740
   5 C3        3.9614   -10.6900    -3.9412  C.ar    1  <O>11      -0.0228
   6 C4        4.7979   -10.2469    -2.9139  C.ar    1  <O>11      -0.0565
   7 C5        5.8306   -11.0742    -2.4587  C.ar    1  <O>11      -0.0614
   8 C6        6.0209   -12.3385    -3.0239  C.ar    1  <O>11      -0.0617
   9 C7        5.1703   -12.7717    -4.0465  C.ar    1  <O>11      -0.0614
  10 C8        4.1352   -11.9542    -4.5070  C.ar    1  <O>11      -0.0565
  11 C9        1.7005   -10.6242    -4.7988  C.ar    1  <O>11      -0.0228
  12 C10       1.8043   -11.6040    -5.7998  C.ar    1  <O>11      -0.0565
  13 C11       0.6874   -12.3650    -6.1609  C.ar    1  <O>11      -0.0614
  14 C12      -0.5394   -12.1594    -5.5243  C.ar    1  <O>11      -0.0617
  15 C13      -0.6411   -11.1871    -4.5219  C.ar    1  <O>11      -0.0614
  16 C14       0.4675   -10.4248    -4.1550  C.ar    1  <O>11      -0.0565
  17 C15       3.2180    -7.1410    -7.0990  C.ar    1  <O>11       0.1533
  18 N2        2.2937    -6.5127    -7.9410  N.ar    1  <O>11      -0.1656
  19 N3        2.7012    -5.9108    -9.0828  N.ar    1  <O>11      -0.2420
  20 C16       4.0182    -5.9138    -9.3948  C.ar    1  <O>11       0.2725
  21 O2        4.3627    -5.3575   -10.6418  O.2     1  <O>11      -0.2658
  22 C17       5.0175    -6.4296    -8.5572  C.ar    1  <O>11       0.0501
  23 C18       6.3988    -6.3834    -8.8537  C.ar    1  <O>11      -0.0487
  24 C19       7.3399    -6.9446    -7.9896  C.ar    1  <O>11      -0.0610
  25 C20       6.9198    -7.5697    -6.8201  C.ar    1  <O>11      -0.0611
  26 C21       5.5598    -7.6320    -6.5158  C.ar    1  <O>11      -0.0516
  27 C22       4.5932    -7.0610    -7.3749  C.ar    1  <O>11       0.0195
  28 H1        4.1190    -9.4290    -6.1530  H       1  <O>11       0.1500
  29 H2        2.6059    -9.1058    -3.6369  H       1  <O>11       0.0599
  30 H3        2.0308    -5.4659    -9.6934  H       1  <O>11       0.1921
  31 H4        4.6551    -9.3153    -2.4935  H       1  <O>11       0.0621
  32 H5        6.4540   -10.7497    -1.7029  H       1  <O>11       0.0618
  33 H6        6.7835   -12.9480    -2.6891  H       1  <O>11       0.0618
  34 H7        5.3090   -13.7047    -4.4652  H       1  <O>11       0.0618
  35 H8        3.5062   -12.2812    -5.2570  H       1  <O>11       0.0621
  36 H9        2.7086   -11.7633    -6.2710  H       1  <O>11       0.0621
  37 H10       0.7697   -13.0807    -6.8998  H       1  <O>11       0.0618
  38 H11      -1.3640   -12.7198    -5.7909  H       1  <O>11       0.0618
  39 H12      -1.5458   -11.0330    -4.0499  H       1  <O>11       0.0618
  40 H13       0.3825    -9.7146    -3.4111  H       1  <O>11       0.0621
  41 H14       6.7165    -5.9273    -9.7232  H       1  <O>11       0.0625
  42 H15       8.3451    -6.8961    -8.2178  H       1  <O>11       0.0618
  43 H16       7.6128    -7.9865    -6.1788  H       1  <O>11       0.0618
  44 H17       5.2544    -8.1026    -5.6496  H       1  <O>11       0.0624
@<TRIPOS>BOND
     1     1     2    2
     2     2     3   am
     3     3     4    1
     4     4     5    1
     5     5     6   ar
     6     6     7   ar
     7     7     8   ar
     8     8     9   ar
     9     9    10   ar
    10     5    10   ar
    11     4    11    1
    12    11    12   ar
    13    12    13   ar
    14    13    14   ar
    15    14    15   ar
    16    15    16   ar
    17    11    16   ar
    18     2    17    1
    19    17    18   ar
    20    18    19   ar
    21    19    20   ar
    22    20    21    2
    23    20    22   ar
    24    22    23   ar
    25    23    24   ar
    26    24    25   ar
    27    25    26   ar
    28    26    27   ar
    29    17    27   ar
    30    22    27   ar
    31     3    28    1
    32     4    29    1
    33    19    30    1
    34     6    31    1
    35     7    32    1
    36     8    33    1
    37     9    34    1
    38    10    35    1
    39    12    36    1
    40    13    37    1
    41    14    38    1
    42    15    39    1
    43    16    40    1
    44    23    41    1
    45    24    42    1
    46    25    43    1
    47    26    44    1
@<TRIPOS>MOLECULE
mol4_1_30
 44 47 0 0 0
SMALL
USER_CHARGES
****
VDW energy = 34.88
@<TRIPOS>ATOM
   1 O1        1.8299    -7.4453    -5.2612  O.2     1  <O>11      -0.2684
   2 C1        2.7526    -7.8812    -5.9334  C.2     1  <O>11       0.2654
   3 N1        3.3490    -9.0650    -5.5910  N.am    1  <O>11      -0.2992
   4 C2        2.8830    -9.8060    -4.4250  C.3     1  <O>11       0.0740
   5 C3        3.0329    -8.9690    -3.2186  C.ar    1  <O>11      -0.0228
   6 C4        2.6455    -9.4832    -1.9789  C.ar    1  <O>11      -0.0565
   7 C5        2.7726    -8.6910    -0.8323  C.ar    1  <O>11      -0.0614
   8 C6        3.2894    -7.3955    -0.9254  C.ar    1  <O>11      -0.0617
   9 C7        3.6805    -6.8972    -2.1727  C.ar    1  <O>11      -0.0614
  10 C8        3.5594    -7.6805    -3.3231  C.ar    1  <O>11      -0.0565
  11 C9        3.6878   -11.0456    -4.2724  C.ar    1  <O>11      -0.0228
  12 C10       3.8788   -11.9058    -5.3661  C.ar    1  <O>11      -0.0565
  13 C11       4.6254   -13.0797    -5.2186  C.ar    1  <O>11      -0.0614
  14 C12       5.1913   -13.4027    -3.9825  C.ar    1  <O>11      -0.0617
  15 C13       5.0062   -12.5417    -2.8939  C.ar    1  <O>11      -0.0614
  16 C14       4.2643   -11.3690    -3.0324  C.ar    1  <O>11      -0.0565
  17 C15       3.2180    -7.1410    -7.0990  C.ar    1  <O>11       0.1533
  18 N2        2.2937    -6.5127    -7.9410  N.ar    1  <O>11      -0.1656
  19 N3        2.7012    -5.9108    -9.0828  N.ar    1  <O>11      -0.2420
  20 C16       4.0182    -5.9138    -9.3948  C.ar    1  <O>11       0.2725
  21 O2        4.3627    -5.3575   -10.6418  O.2     1  <O>11      -0.2658
  22 C17       5.0175    -6.4296    -8.5572  C.ar    1  <O>11       0.0501
  23 C18       6.3988    -6.3834    -8.8537  C.ar    1  <O>11      -0.0487
  24 C19       7.3399    -6.9446    -7.9896  C.ar    1  <O>11      -0.0610
  25 C20       6.9198    -7.5697    -6.8201  C.ar    1  <O>11      -0.0611
  26 C21       5.5598    -7.6320    -6.5158  C.ar    1  <O>11      -0.0516
  27 C22       4.5932    -7.0610    -7.3749  C.ar    1  <O>11       0.0195
  28 H1        4.1190    -9.4290    -6.1530  H       1  <O>11       0.1500
  29 H2        1.8333   -10.0683    -4.5573  H       1  <O>11       0.0599
  30 H3        2.0308    -5.4659    -9.6934  H       1  <O>11       0.1921
  31 H4        2.2679   -10.4410    -1.9090  H       1  <O>11       0.0621
  32 H5        2.4837    -9.0646     0.0854  H       1  <O>11       0.0618
  33 H6        3.3818    -6.8108    -0.0800  H       1  <O>11       0.0618
  34 H7        4.0623    -5.9410    -2.2437  H       1  <O>11       0.0618
  35 H8        3.8557    -7.3107    -4.2399  H       1  <O>11       0.0621
  36 H9        3.4666   -11.6709    -6.2826  H       1  <O>11       0.0621
  37 H10       4.7587   -13.7092    -6.0254  H       1  <O>11       0.0618
  38 H11       5.7413   -14.2689    -3.8728  H       1  <O>11       0.0618
  39 H12       5.4229   -12.7774    -1.9797  H       1  <O>11       0.0618
  40 H13       4.1389   -10.7390    -2.2247  H       1  <O>11       0.0621
  41 H14       6.7165    -5.9273    -9.7232  H       1  <O>11       0.0625
  42 H15       8.3451    -6.8961    -8.2178  H       1  <O>11       0.0618
  43 H16       7.6128    -7.9865    -6.1788  H       1  <O>11       0.0618
  44 H17       5.2544    -8.1026    -5.6496  H       1  <O>11       0.0624
@<TRIPOS>BOND
     1     1     2    2
     2     2     3   am
     3     3     4    1
     4     4     5    1
     5     5     6   ar
     6     6     7   ar
     7     7     8   ar
     8     8     9   ar
     9     9    10   ar
    10     5    10   ar
    11     4    11    1
    12    11    12   ar
    13    12    13   ar
    14    13    14   ar
    15    14    15   ar
    16    15    16   ar
    17    11    16   ar
    18     2    17    1
    19    17    18   ar
    20    18    19   ar
    21    19    20   ar
    22    20    21    2
    23    20    22   ar
    24    22    23   ar
    25    23    24   ar
    26    24    25   ar
    27    25    26   ar
    28    26    27   ar
    29    17    27   ar
    30    22    27   ar
    31     3    28    1
    32     4    29    1
    33    19    30    1
    34     6    31    1
    35     7    32    1
    36     8    33    1
    37     9    34    1
    38    10    35    1
    39    12    36    1
    40    13    37    1
    41    14    38    1
    42    15    39    1
    43    16    40    1
    44    23    41    1
    45    24    42    1
    46    25    43    1
    47    26    44    1
