@<TRIPOS>MOLECULE
mol42_1_1
 35 36 0 0 0
SMALL
USER_CHARGES
****
VDW energy = -58.59
@<TRIPOS>ATOM
   1 C1        2.7323    -8.7181    -6.6515  C.3     1  <O>11       0.0125
   2 C2        3.4528    -9.1250    -5.4100  C.2     1  <O>11       0.2141
   3 O1        4.6297    -8.8309    -5.2623  O.2     1  <O>11      -0.2758
   4 N1        2.7960    -9.8280    -4.4360  N.am    1  <O>11      -0.2857
   5 C3        3.4640   -10.2050    -3.2840  C.ar    1  <O>11       0.0336
   6 C4        3.4657    -9.3470    -2.1822  C.ar    1  <O>11      -0.0370
   7 C5        4.1495    -9.7165    -1.0180  C.ar    1  <O>11      -0.0176
   8 C6        4.8226   -10.9399    -0.9557  C.ar    1  <O>11       0.1286
   9 O2        5.4934   -11.3054     0.1764  O.3     1  <O>11      -0.4559
  10 C7        6.4747   -10.3799     0.4478  C.ar    1  <O>11       0.1323
  11 C8        7.4971   -10.1373    -0.4840  C.ar    1  <O>11       0.0015
  12 C9        8.5018    -9.2045    -0.2027  C.ar    1  <O>11       0.0302
  13 N2        9.5490    -8.9672    -1.1641  N.pl3   1  <O>11      -0.3578
  14 C10       8.4929    -8.5050     1.0066  C.ar    1  <O>11      -0.0107
  15 C11       7.4702    -8.7417     1.9332  C.ar    1  <O>11       0.1268
  16 N3        7.4644    -8.0182     3.1787  N.4     1  <O>11       0.0061
  17 O3        8.0769    -6.7189     2.9859  O.2     1  <O>11      -0.1300
  18 O4        8.2132    -8.7623     4.1729  O.2     1  <O>11      -0.3961
  19 C12       6.4636    -9.6685     1.6596  C.ar    1  <O>11       0.0108
  20 C13       4.8063   -11.7922    -2.0656  C.ar    1  <O>11      -0.0176
  21 C14       4.1258   -11.4334    -3.2305  C.ar    1  <O>11      -0.0370
  22 H1        1.7006    -9.0664    -6.6035  H       1  <O>11       0.0323
  23 H2        3.2247    -9.1590    -7.5183  H       1  <O>11       0.0323
  24 H3        2.7453    -7.6318    -6.7397  H       1  <O>11       0.0323
  25 H4        1.8130   -10.0730    -4.5590  H       1  <O>11       0.1548
  26 H5       10.2830    -8.2878    -0.9628  H       1  <O>11       0.1423
  27 H6        9.5557    -9.4779    -2.0467  H       1  <O>11       0.1423
  28 H7        2.9655    -8.4453    -2.2260  H       1  <O>11       0.0637
  29 H8        4.1567    -9.0834    -0.2031  H       1  <O>11       0.0655
  30 H9        7.5077   -10.6491    -1.3800  H       1  <O>11       0.0673
  31 H10       9.2348    -7.8187     1.2155  H       1  <O>11       0.0659
  32 H11       7.9435    -9.6271     4.4121  H       1  <O>11       0.3292
  33 H12       5.7113    -9.8316     2.3470  H       1  <O>11       0.0677
  34 H13       5.3029   -12.6958    -2.0225  H       1  <O>11       0.0655
  35 H14       4.1120   -12.0692    -4.0433  H       1  <O>11       0.0637
@<TRIPOS>BOND
     1     1     2    1
     2     2     3    2
     3     2     4   am
     4     4     5    1
     5     5     6   ar
     6     6     7   ar
     7     7     8   ar
     8     8     9    1
     9     9    10    1
    10    10    11   ar
    11    11    12   ar
    12    12    13    1
    13    12    14   ar
    14    14    15   ar
    15    15    16    1
    16    16    17    2
    17    16    18    1
    18    15    19   ar
    19    10    19   ar
    20     8    20   ar
    21    20    21   ar
    22     5    21   ar
    23     1    22    1
    24     1    23    1
    25     1    24    1
    26     4    25    1
    27    13    26    1
    28    13    27    1
    29     6    28    1
    30     7    29    1
    31    11    30    1
    32    14    31    1
    33    18    32    1
    34    19    33    1
    35    20    34    1
    36    21    35    1
@<TRIPOS>MOLECULE
mol42_1_2
 35 36 0 0 0
SMALL
USER_CHARGES
****
VDW energy = -57.06
@<TRIPOS>ATOM
   1 C1        2.7323    -8.7181    -6.6515  C.3     1  <O>11       0.0125
   2 C2        3.4528    -9.1250    -5.4100  C.2     1  <O>11       0.2141
   3 O1        4.6297    -8.8309    -5.2623  O.2     1  <O>11      -0.2758
   4 N1        2.7960    -9.8280    -4.4360  N.am    1  <O>11      -0.2857
   5 C3        3.4640   -10.2050    -3.2840  C.ar    1  <O>11       0.0336
   6 C4        3.4657    -9.3470    -2.1822  C.ar    1  <O>11      -0.0370
   7 C5        4.1495    -9.7165    -1.0180  C.ar    1  <O>11      -0.0176
   8 C6        4.8226   -10.9399    -0.9557  C.ar    1  <O>11       0.1286
   9 O2        5.4934   -11.3054     0.1764  O.3     1  <O>11      -0.4559
  10 C7        6.7933   -10.8604     0.1038  C.ar    1  <O>11       0.1323
  11 C8        7.6326   -11.2909    -0.9367  C.ar    1  <O>11       0.0015
  12 C9        8.9583   -10.8474    -1.0037  C.ar    1  <O>11       0.0302
  13 N2        9.8122   -11.2997    -2.0732  N.pl3   1  <O>11      -0.3578
  14 C10       9.4557    -9.9701    -0.0370  C.ar    1  <O>11      -0.0107
  15 C11       8.6176    -9.5354     0.9970  C.ar    1  <O>11       0.1268
  16 N3        9.1341    -8.6305     1.9915  N.4     1  <O>11       0.0061
  17 O3       10.1636    -7.7991     1.4005  O.2     1  <O>11      -0.1300
  18 O4        9.6988    -9.3909     3.0896  O.2     1  <O>11      -0.3961
  19 C12       7.2940    -9.9711     1.0699  C.ar    1  <O>11       0.0108
  20 C13       4.8063   -11.7922    -2.0656  C.ar    1  <O>11      -0.0176
  21 C14       4.1258   -11.4334    -3.2305  C.ar    1  <O>11      -0.0370
  22 H1        1.7006    -9.0664    -6.6035  H       1  <O>11       0.0323
  23 H2        3.2247    -9.1590    -7.5183  H       1  <O>11       0.0323
  24 H3        2.7453    -7.6318    -6.7397  H       1  <O>11       0.0323
  25 H4        1.8130   -10.0730    -4.5590  H       1  <O>11       0.1548
  26 H5       10.7791   -10.9785    -2.1255  H       1  <O>11       0.1423
  27 H6        9.4492   -11.9403    -2.7787  H       1  <O>11       0.1423
  28 H7        2.9655    -8.4453    -2.2260  H       1  <O>11       0.0637
  29 H8        4.1567    -9.0834    -0.2031  H       1  <O>11       0.0655
  30 H9        7.2702   -11.9370    -1.6551  H       1  <O>11       0.0673
  31 H10      10.4339    -9.6446    -0.0846  H       1  <O>11       0.0659
  32 H11       9.1583    -9.9800     3.5783  H       1  <O>11       0.3292
  33 H12       6.6829    -9.6404     1.8330  H       1  <O>11       0.0677
  34 H13       5.3029   -12.6958    -2.0225  H       1  <O>11       0.0655
  35 H14       4.1120   -12.0692    -4.0433  H       1  <O>11       0.0637
@<TRIPOS>BOND
     1     1     2    1
     2     2     3    2
     3     2     4   am
     4     4     5    1
     5     5     6   ar
     6     6     7   ar
     7     7     8   ar
     8     8     9    1
     9     9    10    1
    10    10    11   ar
    11    11    12   ar
    12    12    13    1
    13    12    14   ar
    14    14    15   ar
    15    15    16    1
    16    16    17    2
    17    16    18    1
    18    15    19   ar
    19    10    19   ar
    20     8    20   ar
    21    20    21   ar
    22     5    21   ar
    23     1    22    1
    24     1    23    1
    25     1    24    1
    26     4    25    1
    27    13    26    1
    28    13    27    1
    29     6    28    1
    30     7    29    1
    31    11    30    1
    32    14    31    1
    33    18    32    1
    34    19    33    1
    35    20    34    1
    36    21    35    1
@<TRIPOS>MOLECULE
mol42_1_3
 35 36 0 0 0
SMALL
USER_CHARGES
****
VDW energy = -55.49
@<TRIPOS>ATOM
   1 C1        2.7323    -8.7181    -6.6515  C.3     1  <O>11       0.0125
   2 C2        3.4528    -9.1250    -5.4100  C.2     1  <O>11       0.2141
   3 O1        4.6297    -8.8309    -5.2623  O.2     1  <O>11      -0.2758
   4 N1        2.7960    -9.8280    -4.4360  N.am    1  <O>11      -0.2857
   5 C3        3.4640   -10.2050    -3.2840  C.ar    1  <O>11       0.0336
   6 C4        3.4657    -9.3470    -2.1822  C.ar    1  <O>11      -0.0370
   7 C5        4.1495    -9.7165    -1.0180  C.ar    1  <O>11      -0.0176
   8 C6        4.8226   -10.9399    -0.9557  C.ar    1  <O>11       0.1286
   9 O2        5.4934   -11.3054     0.1764  O.3     1  <O>11      -0.4559
  10 C7        4.6447   -11.9963     1.0103  C.ar    1  <O>11       0.1323
  11 C8        3.4763   -11.3865     1.4954  C.ar    1  <O>11       0.0015
  12 C9        2.6192   -12.0853     2.3531  C.ar    1  <O>11       0.0302
  13 N2        1.4254   -11.4477     2.8489  N.pl3   1  <O>11      -0.3578
  14 C10       2.9183   -13.3966     2.7306  C.ar    1  <O>11      -0.0107
  15 C11       4.0798   -14.0074     2.2421  C.ar    1  <O>11       0.1268
  16 N3        4.3844   -15.3598     2.6333  N.4     1  <O>11       0.0061
  17 O3        3.1518   -16.0805     2.8817  O.2     1  <O>11      -0.1300
  18 O4        5.1863   -15.3439     3.8415  O.2     1  <O>11      -0.3961
  19 C12       4.9385   -13.3184     1.3849  C.ar    1  <O>11       0.0108
  20 C13       4.8063   -11.7922    -2.0656  C.ar    1  <O>11      -0.0176
  21 C14       4.1258   -11.4334    -3.2305  C.ar    1  <O>11      -0.0370
  22 H1        1.7006    -9.0664    -6.6035  H       1  <O>11       0.0323
  23 H2        3.2247    -9.1590    -7.5183  H       1  <O>11       0.0323
  24 H3        2.7453    -7.6318    -6.7397  H       1  <O>11       0.0323
  25 H4        1.8130   -10.0730    -4.5590  H       1  <O>11       0.1548
  26 H5        0.7980   -11.9539     3.4742  H       1  <O>11       0.1423
  27 H6        1.2072   -10.4904     2.5736  H       1  <O>11       0.1423
  28 H7        2.9655    -8.4453    -2.2260  H       1  <O>11       0.0637
  29 H8        4.1567    -9.0834    -0.2031  H       1  <O>11       0.0655
  30 H9        3.2487   -10.4188     1.2182  H       1  <O>11       0.0673
  31 H10       2.2878   -13.9115     3.3649  H       1  <O>11       0.0659
  32 H11       6.0188   -14.9140     3.8456  H       1  <O>11       0.3292
  33 H12       5.7892   -13.7797     1.0261  H       1  <O>11       0.0677
  34 H13       5.3029   -12.6958    -2.0225  H       1  <O>11       0.0655
  35 H14       4.1120   -12.0692    -4.0433  H       1  <O>11       0.0637
@<TRIPOS>BOND
     1     1     2    1
     2     2     3    2
     3     2     4   am
     4     4     5    1
     5     5     6   ar
     6     6     7   ar
     7     7     8   ar
     8     8     9    1
     9     9    10    1
    10    10    11   ar
    11    11    12   ar
    12    12    13    1
    13    12    14   ar
    14    14    15   ar
    15    15    16    1
    16    16    17    2
    17    16    18    1
    18    15    19   ar
    19    10    19   ar
    20     8    20   ar
    21    20    21   ar
    22     5    21   ar
    23     1    22    1
    24     1    23    1
    25     1    24    1
    26     4    25    1
    27    13    26    1
    28    13    27    1
    29     6    28    1
    30     7    29    1
    31    11    30    1
    32    14    31    1
    33    18    32    1
    34    19    33    1
    35    20    34    1
    36    21    35    1
@<TRIPOS>MOLECULE
mol42_1_4
 35 36 0 0 0
SMALL
USER_CHARGES
****
VDW energy = -50.42
@<TRIPOS>ATOM
   1 C1        2.7323    -8.7181    -6.6515  C.3     1  <O>11       0.0125
   2 C2        3.4528    -9.1250    -5.4100  C.2     1  <O>11       0.2141
   3 O1        4.6297    -8.8309    -5.2623  O.2     1  <O>11      -0.2758
   4 N1        2.7960    -9.8280    -4.4360  N.am    1  <O>11      -0.2857
   5 C3        3.4640   -10.2050    -3.2840  C.ar    1  <O>11       0.0336
   6 C4        4.0169    -9.2217    -2.4608  C.ar    1  <O>11      -0.0370
   7 C5        4.7044    -9.5964    -1.3005  C.ar    1  <O>11      -0.0176
   8 C6        4.8325   -10.9469    -0.9637  C.ar    1  <O>11       0.1286
   9 O2        5.5038   -11.3193     0.1658  O.3     1  <O>11      -0.4559
  10 C7        4.8923   -10.7659     1.2670  C.ar    1  <O>11       0.1323
  11 C8        3.8686   -11.4599     1.9326  C.ar    1  <O>11       0.0015
  12 C9        3.2385   -10.8917     3.0455  C.ar    1  <O>11       0.0302
  13 N2        2.1857   -11.6108     3.7178  N.pl3   1  <O>11      -0.3578
  14 C10       3.6258    -9.6304     3.5047  C.ar    1  <O>11      -0.0107
  15 C11       4.6507    -8.9407     2.8455  C.ar    1  <O>11       0.1268
  16 N3        5.0473    -7.6408     3.3224  N.4     1  <O>11       0.0061
  17 O3        6.0189    -7.0678     2.4124  O.2     1  <O>11      -0.1300
  18 O4        5.6378    -7.7694     4.6406  O.2     1  <O>11      -0.3961
  19 C12       5.2855    -9.5011     1.7364  C.ar    1  <O>11       0.0108
  20 C13       4.2673   -11.9206    -1.7951  C.ar    1  <O>11      -0.0176
  21 C14       3.5784   -11.5568    -2.9534  C.ar    1  <O>11      -0.0370
  22 H1        1.7006    -9.0664    -6.6035  H       1  <O>11       0.0323
  23 H2        3.2247    -9.1590    -7.5183  H       1  <O>11       0.0323
  24 H3        2.7453    -7.6318    -6.7397  H       1  <O>11       0.0323
  25 H4        1.8130   -10.0730    -4.5590  H       1  <O>11       0.1548
  26 H5        1.7241   -11.2000     4.5296  H       1  <O>11       0.1423
  27 H6        1.9028   -12.5313     3.3825  H       1  <O>11       0.1423
  28 H7        3.9192    -8.2241    -2.7066  H       1  <O>11       0.0637
  29 H8        5.1180    -8.8731    -0.6917  H       1  <O>11       0.0655
  30 H9        3.5798   -12.3930     1.5995  H       1  <O>11       0.0673
  31 H10       3.1598    -9.2100     4.3240  H       1  <O>11       0.0659
  32 H11       5.1349    -8.1258     5.3464  H       1  <O>11       0.3292
  33 H12       6.0435    -8.9868     1.2611  H       1  <O>11       0.0677
  34 H13       4.3609   -12.9185    -1.5491  H       1  <O>11       0.0655
  35 H14       3.1581   -12.2792    -3.5589  H       1  <O>11       0.0637
@<TRIPOS>BOND
     1     1     2    1
     2     2     3    2
     3     2     4   am
     4     4     5    1
     5     5     6   ar
     6     6     7   ar
     7     7     8   ar
     8     8     9    1
     9     9    10    1
    10    10    11   ar
    11    11    12   ar
    12    12    13    1
    13    12    14   ar
    14    14    15   ar
    15    15    16    1
    16    16    17    2
    17    16    18    1
    18    15    19   ar
    19    10    19   ar
    20     8    20   ar
    21    20    21   ar
    22     5    21   ar
    23     1    22    1
    24     1    23    1
    25     1    24    1
    26     4    25    1
    27    13    26    1
    28    13    27    1
    29     6    28    1
    30     7    29    1
    31    11    30    1
    32    14    31    1
    33    18    32    1
    34    19    33    1
    35    20    34    1
    36    21    35    1
@<TRIPOS>MOLECULE
mol42_1_5
 35 36 0 0 0
SMALL
USER_CHARGES
****
VDW energy = -46.90
@<TRIPOS>ATOM
   1 C1        2.7323    -8.7181    -6.6515  C.3     1  <O>11       0.0125
   2 C2        3.4528    -9.1250    -5.4100  C.2     1  <O>11       0.2141
   3 O1        4.6297    -8.8309    -5.2623  O.2     1  <O>11      -0.2758
   4 N1        2.7960    -9.8280    -4.4360  N.am    1  <O>11      -0.2857
   5 C3        3.4640   -10.2050    -3.2840  C.ar    1  <O>11       0.0336
   6 C4        4.1228   -11.4358    -3.2468  C.ar    1  <O>11      -0.0370
   7 C5        4.7901   -11.8289    -2.0808  C.ar    1  <O>11      -0.0176
   8 C6        4.8025   -10.9923    -0.9611  C.ar    1  <O>11       0.1286
   9 O2        5.4499   -11.3707     0.1803  O.3     1  <O>11      -0.4559
  10 C7        6.7549   -10.9374     0.1332  C.ar    1  <O>11       0.1323
  11 C8        7.4526   -10.6599     1.3200  C.ar    1  <O>11       0.0015
  12 C9        8.7762   -10.2077     1.2716  C.ar    1  <O>11       0.0302
  13 N2        9.4809    -9.9213     2.4958  N.pl3   1  <O>11      -0.3578
  14 C10       9.4144   -10.0321     0.0413  C.ar    1  <O>11      -0.0107
  15 C11       8.7214   -10.3148    -1.1421  C.ar    1  <O>11       0.1268
  16 N3        9.3831   -10.1328    -2.4085  N.4     1  <O>11       0.0061
  17 O3        8.4373   -10.3535    -3.4842  O.2     1  <O>11      -0.1300
  18 O4       10.4748   -11.0805    -2.5235  O.2     1  <O>11      -0.3961
  19 C12       7.4023   -10.7680    -1.1025  C.ar    1  <O>11       0.0108
  20 C13       4.1434    -9.7588    -1.0158  C.ar    1  <O>11      -0.0176
  21 C14       3.4765    -9.3572    -2.1745  C.ar    1  <O>11      -0.0370
  22 H1        1.7006    -9.0664    -6.6035  H       1  <O>11       0.0323
  23 H2        3.2247    -9.1590    -7.5183  H       1  <O>11       0.0323
  24 H3        2.7453    -7.6318    -6.7397  H       1  <O>11       0.0323
  25 H4        1.8130   -10.0730    -4.5590  H       1  <O>11       0.1548
  26 H5       10.4459    -9.5917     2.4646  H       1  <O>11       0.1423
  27 H6        9.0150   -10.0492     3.3938  H       1  <O>11       0.1423
  28 H7        4.1176   -12.0523    -4.0744  H       1  <O>11       0.0637
  29 H8        5.2746   -12.7394    -2.0478  H       1  <O>11       0.0655
  30 H9        6.9872   -10.7900     2.2319  H       1  <O>11       0.0673
  31 H10      10.3896    -9.6965     0.0050  H       1  <O>11       0.0659
  32 H11      11.1734   -11.0683    -1.8991  H       1  <O>11       0.3292
  33 H12       6.9023   -10.9787    -1.9804  H       1  <O>11       0.0677
  34 H13       4.1505    -9.1394    -0.1904  H       1  <O>11       0.0655
  35 H14       2.9980    -8.4435    -2.2108  H       1  <O>11       0.0637
@<TRIPOS>BOND
     1     1     2    1
     2     2     3    2
     3     2     4   am
     4     4     5    1
     5     5     6   ar
     6     6     7   ar
     7     7     8   ar
     8     8     9    1
     9     9    10    1
    10    10    11   ar
    11    11    12   ar
    12    12    13    1
    13    12    14   ar
    14    14    15   ar
    15    15    16    1
    16    16    17    2
    17    16    18    1
    18    15    19   ar
    19    10    19   ar
    20     8    20   ar
    21    20    21   ar
    22     5    21   ar
    23     1    22    1
    24     1    23    1
    25     1    24    1
    26     4    25    1
    27    13    26    1
    28    13    27    1
    29     6    28    1
    30     7    29    1
    31    11    30    1
    32    14    31    1
    33    18    32    1
    34    19    33    1
    35    20    34    1
    36    21    35    1
@<TRIPOS>MOLECULE
mol42_1_6
 35 36 0 0 0
SMALL
USER_CHARGES
****
VDW energy = -45.29
@<TRIPOS>ATOM
   1 C1        2.7323    -8.7181    -6.6515  C.3     1  <O>11       0.0125
   2 C2        3.4528    -9.1250    -5.4100  C.2     1  <O>11       0.2141
   3 O1        4.6297    -8.8309    -5.2623  O.2     1  <O>11      -0.2758
   4 N1        2.7960    -9.8280    -4.4360  N.am    1  <O>11      -0.2857
   5 C3        3.4640   -10.2050    -3.2840  C.ar    1  <O>11       0.0336
   6 C4        4.0169    -9.2217    -2.4608  C.ar    1  <O>11      -0.0370
   7 C5        4.7044    -9.5964    -1.3005  C.ar    1  <O>11      -0.0176
   8 C6        4.8325   -10.9469    -0.9637  C.ar    1  <O>11       0.1286
   9 O2        5.5038   -11.3193     0.1658  O.3     1  <O>11      -0.4559
  10 C7        4.8923   -10.7659     1.2670  C.ar    1  <O>11       0.1323
  11 C8        3.8686   -11.4599     1.9326  C.ar    1  <O>11       0.0015
  12 C9        3.2385   -10.8917     3.0455  C.ar    1  <O>11       0.0302
  13 N2        2.1857   -11.6108     3.7178  N.pl3   1  <O>11      -0.3578
  14 C10       3.6258    -9.6304     3.5047  C.ar    1  <O>11      -0.0107
  15 C11       4.6507    -8.9407     2.8455  C.ar    1  <O>11       0.1268
  16 N3        5.0473    -7.6408     3.3224  N.4     1  <O>11       0.0061
  17 O3        3.9146    -6.7385     3.2651  O.2     1  <O>11      -0.1300
  18 O4        6.1169    -7.1264     2.4890  O.2     1  <O>11      -0.3961
  19 C12       5.2855    -9.5011     1.7364  C.ar    1  <O>11       0.0108
  20 C13       4.2673   -11.9206    -1.7951  C.ar    1  <O>11      -0.0176
  21 C14       3.5784   -11.5568    -2.9534  C.ar    1  <O>11      -0.0370
  22 H1        1.7006    -9.0664    -6.6035  H       1  <O>11       0.0323
  23 H2        3.2247    -9.1590    -7.5183  H       1  <O>11       0.0323
  24 H3        2.7453    -7.6318    -6.7397  H       1  <O>11       0.0323
  25 H4        1.8130   -10.0730    -4.5590  H       1  <O>11       0.1548
  26 H5        1.7241   -11.2000     4.5296  H       1  <O>11       0.1423
  27 H6        1.9028   -12.5313     3.3825  H       1  <O>11       0.1423
  28 H7        3.9192    -8.2241    -2.7066  H       1  <O>11       0.0637
  29 H8        5.1180    -8.8731    -0.6917  H       1  <O>11       0.0655
  30 H9        3.5798   -12.3930     1.5995  H       1  <O>11       0.0673
  31 H10       3.1598    -9.2100     4.3240  H       1  <O>11       0.0659
  32 H11       6.9237    -7.5976     2.4184  H       1  <O>11       0.3292
  33 H12       6.0435    -8.9868     1.2611  H       1  <O>11       0.0677
  34 H13       4.3609   -12.9185    -1.5491  H       1  <O>11       0.0655
  35 H14       3.1581   -12.2792    -3.5589  H       1  <O>11       0.0637
@<TRIPOS>BOND
     1     1     2    1
     2     2     3    2
     3     2     4   am
     4     4     5    1
     5     5     6   ar
     6     6     7   ar
     7     7     8   ar
     8     8     9    1
     9     9    10    1
    10    10    11   ar
    11    11    12   ar
    12    12    13    1
    13    12    14   ar
    14    14    15   ar
    15    15    16    1
    16    16    17    2
    17    16    18    1
    18    15    19   ar
    19    10    19   ar
    20     8    20   ar
    21    20    21   ar
    22     5    21   ar
    23     1    22    1
    24     1    23    1
    25     1    24    1
    26     4    25    1
    27    13    26    1
    28    13    27    1
    29     6    28    1
    30     7    29    1
    31    11    30    1
    32    14    31    1
    33    18    32    1
    34    19    33    1
    35    20    34    1
    36    21    35    1
@<TRIPOS>MOLECULE
mol42_1_7
 35 36 0 0 0
SMALL
USER_CHARGES
****
VDW energy = -41.28
@<TRIPOS>ATOM
   1 C1        2.7323    -8.7181    -6.6515  C.3     1  <O>11       0.0125
   2 C2        3.4528    -9.1250    -5.4100  C.2     1  <O>11       0.2141
   3 O1        4.6297    -8.8309    -5.2623  O.2     1  <O>11      -0.2758
   4 N1        2.7960    -9.8280    -4.4360  N.am    1  <O>11      -0.2857
   5 C3        3.4640   -10.2050    -3.2840  C.ar    1  <O>11       0.0336
   6 C4        3.4657    -9.3470    -2.1822  C.ar    1  <O>11      -0.0370
   7 C5        4.1495    -9.7165    -1.0180  C.ar    1  <O>11      -0.0176
   8 C6        4.8226   -10.9399    -0.9557  C.ar    1  <O>11       0.1286
   9 O2        5.4934   -11.3054     0.1764  O.3     1  <O>11      -0.4559
  10 C7        5.8381   -12.6350     0.0968  C.ar    1  <O>11       0.1323
  11 C8        4.8438   -13.6180    -0.0355  C.ar    1  <O>11       0.0015
  12 C9        5.1938   -14.9713    -0.1044  C.ar    1  <O>11       0.0302
  13 N2        4.1647   -15.9720    -0.2352  N.pl3   1  <O>11      -0.3578
  14 C10       6.5360   -15.3542    -0.0452  C.ar    1  <O>11      -0.0107
  15 C11       7.5282   -14.3741     0.0802  C.ar    1  <O>11       0.1268
  16 N3        8.9110   -14.7729     0.1404  N.4     1  <O>11       0.0061
  17 O3        9.0943   -15.9974    -0.6129  O.2     1  <O>11      -0.1300
  18 O4        9.2897   -14.9950     1.5225  O.2     1  <O>11      -0.3961
  19 C12       7.1879   -13.0226     0.1475  C.ar    1  <O>11       0.0108
  20 C13       4.8063   -11.7922    -2.0656  C.ar    1  <O>11      -0.0176
  21 C14       4.1258   -11.4334    -3.2305  C.ar    1  <O>11      -0.0370
  22 H1        1.7006    -9.0664    -6.6035  H       1  <O>11       0.0323
  23 H2        3.2247    -9.1590    -7.5183  H       1  <O>11       0.0323
  24 H3        2.7453    -7.6318    -6.7397  H       1  <O>11       0.0323
  25 H4        1.8130   -10.0730    -4.5590  H       1  <O>11       0.1548
  26 H5        4.4158   -16.9595    -0.2859  H       1  <O>11       0.1423
  27 H6        3.1849   -15.6926    -0.2781  H       1  <O>11       0.1423
  28 H7        2.9655    -8.4453    -2.2260  H       1  <O>11       0.0637
  29 H8        4.1567    -9.0834    -0.2031  H       1  <O>11       0.0655
  30 H9        3.8507   -13.3413    -0.0822  H       1  <O>11       0.0673
  31 H10       6.7944   -16.3521    -0.0937  H       1  <O>11       0.0659
  32 H11       9.2284   -14.2958     2.1432  H       1  <O>11       0.3292
  33 H12       7.9272   -12.3078     0.2344  H       1  <O>11       0.0677
  34 H13       5.3029   -12.6958    -2.0225  H       1  <O>11       0.0655
  35 H14       4.1120   -12.0692    -4.0433  H       1  <O>11       0.0637
@<TRIPOS>BOND
     1     1     2    1
     2     2     3    2
     3     2     4   am
     4     4     5    1
     5     5     6   ar
     6     6     7   ar
     7     7     8   ar
     8     8     9    1
     9     9    10    1
    10    10    11   ar
    11    11    12   ar
    12    12    13    1
    13    12    14   ar
    14    14    15   ar
    15    15    16    1
    16    16    17    2
    17    16    18    1
    18    15    19   ar
    19    10    19   ar
    20     8    20   ar
    21    20    21   ar
    22     5    21   ar
    23     1    22    1
    24     1    23    1
    25     1    24    1
    26     4    25    1
    27    13    26    1
    28    13    27    1
    29     6    28    1
    30     7    29    1
    31    11    30    1
    32    14    31    1
    33    18    32    1
    34    19    33    1
    35    20    34    1
    36    21    35    1
@<TRIPOS>MOLECULE
mol42_1_8
 35 36 0 0 0
SMALL
USER_CHARGES
****
VDW energy = -37.78
@<TRIPOS>ATOM
   1 C1        2.7323    -8.7181    -6.6515  C.3     1  <O>11       0.0125
   2 C2        3.4528    -9.1250    -5.4100  C.2     1  <O>11       0.2141
   3 O1        4.6297    -8.8309    -5.2623  O.2     1  <O>11      -0.2758
   4 N1        2.7960    -9.8280    -4.4360  N.am    1  <O>11      -0.2857
   5 C3        3.4640   -10.2050    -3.2840  C.ar    1  <O>11       0.0336
   6 C4        3.4657    -9.3470    -2.1822  C.ar    1  <O>11      -0.0370
   7 C5        4.1495    -9.7165    -1.0180  C.ar    1  <O>11      -0.0176
   8 C6        4.8226   -10.9399    -0.9557  C.ar    1  <O>11       0.1286
   9 O2        5.4934   -11.3054     0.1764  O.3     1  <O>11      -0.4559
  10 C7        5.8381   -12.6350     0.0968  C.ar    1  <O>11       0.1323
  11 C8        4.8438   -13.6180    -0.0355  C.ar    1  <O>11       0.0015
  12 C9        5.1938   -14.9713    -0.1044  C.ar    1  <O>11       0.0302
  13 N2        4.1647   -15.9720    -0.2352  N.pl3   1  <O>11      -0.3578
  14 C10       6.5360   -15.3542    -0.0452  C.ar    1  <O>11      -0.0107
  15 C11       7.5282   -14.3741     0.0802  C.ar    1  <O>11       0.1268
  16 N3        8.9110   -14.7729     0.1404  N.4     1  <O>11       0.0061
  17 O3        9.7377   -13.6123     0.4051  O.2     1  <O>11      -0.1300
  18 O4        9.2989   -15.3633    -1.1260  O.2     1  <O>11      -0.3961
  19 C12       7.1879   -13.0226     0.1475  C.ar    1  <O>11       0.0108
  20 C13       4.8063   -11.7922    -2.0656  C.ar    1  <O>11      -0.0176
  21 C14       4.1258   -11.4334    -3.2305  C.ar    1  <O>11      -0.0370
  22 H1        1.7006    -9.0664    -6.6035  H       1  <O>11       0.0323
  23 H2        3.2247    -9.1590    -7.5183  H       1  <O>11       0.0323
  24 H3        2.7453    -7.6318    -6.7397  H       1  <O>11       0.0323
  25 H4        1.8130   -10.0730    -4.5590  H       1  <O>11       0.1548
  26 H5        4.4158   -16.9595    -0.2859  H       1  <O>11       0.1423
  27 H6        3.1849   -15.6926    -0.2781  H       1  <O>11       0.1423
  28 H7        2.9655    -8.4453    -2.2260  H       1  <O>11       0.0637
  29 H8        4.1567    -9.0834    -0.2031  H       1  <O>11       0.0655
  30 H9        3.8507   -13.3413    -0.0822  H       1  <O>11       0.0673
  31 H10       6.7944   -16.3521    -0.0937  H       1  <O>11       0.0659
  32 H11       8.8566   -16.1265    -1.4421  H       1  <O>11       0.3292
  33 H12       7.9272   -12.3078     0.2344  H       1  <O>11       0.0677
  34 H13       5.3029   -12.6958    -2.0225  H       1  <O>11       0.0655
  35 H14       4.1120   -12.0692    -4.0433  H       1  <O>11       0.0637
@<TRIPOS>BOND
     1     1     2    1
     2     2     3    2
     3     2     4   am
     4     4     5    1
     5     5     6   ar
     6     6     7   ar
     7     7     8   ar
     8     8     9    1
     9     9    10    1
    10    10    11   ar
    11    11    12   ar
    12    12    13    1
    13    12    14   ar
    14    14    15   ar
    15    15    16    1
    16    16    17    2
    17    16    18    1
    18    15    19   ar
    19    10    19   ar
    20     8    20   ar
    21    20    21   ar
    22     5    21   ar
    23     1    22    1
    24     1    23    1
    25     1    24    1
    26     4    25    1
    27    13    26    1
    28    13    27    1
    29     6    28    1
    30     7    29    1
    31    11    30    1
    32    14    31    1
    33    18    32    1
    34    19    33    1
    35    20    34    1
    36    21    35    1
@<TRIPOS>MOLECULE
mol42_1_9
 35 36 0 0 0
SMALL
USER_CHARGES
****
VDW energy = -33.92
@<TRIPOS>ATOM
   1 C1        2.7323    -8.7181    -6.6515  C.3     1  <O>11       0.0125
   2 C2        3.4528    -9.1250    -5.4100  C.2     1  <O>11       0.2141
   3 O1        4.6297    -8.8309    -5.2623  O.2     1  <O>11      -0.2758
   4 N1        2.7960    -9.8280    -4.4360  N.am    1  <O>11      -0.2857
   5 C3        1.4632   -10.1619    -4.6021  C.ar    1  <O>11       0.0336
   6 C4        0.4763    -9.2825    -4.1515  C.ar    1  <O>11      -0.0370
   7 C5       -0.8737    -9.6193    -4.3053  C.ar    1  <O>11      -0.0176
   8 C6       -1.2331   -10.8264    -4.9114  C.ar    1  <O>11       0.1286
   9 O2       -2.5482   -11.1620    -5.0625  O.3     1  <O>11      -0.4559
  10 C7       -2.6524   -12.2415    -5.9091  C.ar    1  <O>11       0.1323
  11 C8       -2.1747   -12.1570    -7.2271  C.ar    1  <O>11       0.0015
  12 C9       -2.2915   -13.2512    -8.0918  C.ar    1  <O>11       0.0302
  13 N2       -1.8022   -13.1516    -9.4439  N.pl3   1  <O>11      -0.3578
  14 C10      -2.8817   -14.4374    -7.6488  C.ar    1  <O>11      -0.0107
  15 C11      -3.3524   -14.5244    -6.3329  C.ar    1  <O>11       0.1268
  16 N3       -3.9599   -15.7493    -5.8798  N.4     1  <O>11       0.0061
  17 O3       -4.4883   -15.5614    -4.5435  O.2     1  <O>11      -0.1300
  18 O4       -2.9648   -16.8040    -5.8616  O.2     1  <O>11      -0.3961
  19 C12      -3.2379   -13.4388    -5.4637  C.ar    1  <O>11       0.0108
  20 C13      -0.2328   -11.6944    -5.3638  C.ar    1  <O>11      -0.0176
  21 C14       1.1161   -11.3667    -5.2166  C.ar    1  <O>11      -0.0370
  22 H1        1.7006    -9.0664    -6.6035  H       1  <O>11       0.0323
  23 H2        3.2247    -9.1590    -7.5183  H       1  <O>11       0.0323
  24 H3        2.7453    -7.6318    -6.7397  H       1  <O>11       0.0323
  25 H4        3.2899   -10.1071    -3.5877  H       1  <O>11       0.1548
  26 H5       -1.8854   -13.9471   -10.0772  H       1  <O>11       0.1423
  27 H6       -1.3716   -12.2857    -9.7674  H       1  <O>11       0.1423
  28 H7        0.7408    -8.3891    -3.7077  H       1  <O>11       0.0637
  29 H8       -1.6060    -8.9742    -3.9699  H       1  <O>11       0.0655
  30 H9       -1.7355   -11.2842    -7.5594  H       1  <O>11       0.0673
  31 H10      -2.9702   -15.2437    -8.2868  H       1  <O>11       0.0659
  32 H11      -2.5261   -17.0479    -6.6529  H       1  <O>11       0.3292
  33 H12      -3.5831   -13.5152    -4.4942  H       1  <O>11       0.0677
  34 H13      -0.4953   -12.5866    -5.8112  H       1  <O>11       0.0655
  35 H14       1.8490   -12.0080    -5.5584  H       1  <O>11       0.0637
@<TRIPOS>BOND
     1     1     2    1
     2     2     3    2
     3     2     4   am
     4     4     5    1
     5     5     6   ar
     6     6     7   ar
     7     7     8   ar
     8     8     9    1
     9     9    10    1
    10    10    11   ar
    11    11    12   ar
    12    12    13    1
    13    12    14   ar
    14    14    15   ar
    15    15    16    1
    16    16    17    2
    17    16    18    1
    18    15    19   ar
    19    10    19   ar
    20     8    20   ar
    21    20    21   ar
    22     5    21   ar
    23     1    22    1
    24     1    23    1
    25     1    24    1
    26     4    25    1
    27    13    26    1
    28    13    27    1
    29     6    28    1
    30     7    29    1
    31    11    30    1
    32    14    31    1
    33    18    32    1
    34    19    33    1
    35    20    34    1
    36    21    35    1
@<TRIPOS>MOLECULE
mol42_1_10
 35 36 0 0 0
SMALL
USER_CHARGES
****
VDW energy = -33.88
@<TRIPOS>ATOM
   1 C1        2.7323    -8.7181    -6.6515  C.3     1  <O>11       0.0125
   2 C2        3.4528    -9.1250    -5.4100  C.2     1  <O>11       0.2141
   3 O1        4.6297    -8.8309    -5.2623  O.2     1  <O>11      -0.2758
   4 N1        2.7960    -9.8280    -4.4360  N.am    1  <O>11      -0.2857
   5 C3        1.4632   -10.1619    -4.6021  C.ar    1  <O>11       0.0336
   6 C4        1.1322   -11.3713    -5.2168  C.ar    1  <O>11      -0.0370
   7 C5       -0.2137   -11.7098    -5.3990  C.ar    1  <O>11      -0.0176
   8 C6       -1.2219   -10.8452    -4.9633  C.ar    1  <O>11       0.1286
   9 O2       -2.5369   -11.1685    -5.1400  O.3     1  <O>11      -0.4559
  10 C7       -3.3232   -10.3121    -4.4043  C.ar    1  <O>11       0.1323
  11 C8       -3.1802   -10.2411    -3.0090  C.ar    1  <O>11       0.0015
  12 C9       -3.9883    -9.3785    -2.2595  C.ar    1  <O>11       0.0302
  13 N2       -3.8363    -9.3175    -0.8275  N.pl3   1  <O>11      -0.3578
  14 C10      -4.9416    -8.5790    -2.8949  C.ar    1  <O>11      -0.0107
  15 C11      -5.0802    -8.6446    -4.2867  C.ar    1  <O>11       0.1268
  16 N3       -6.0639    -7.8183    -4.9380  N.4     1  <O>11       0.0061
  17 O3       -6.1194    -8.1525    -6.3472  O.2     1  <O>11      -0.1300
  18 O4       -5.6990    -6.4229    -4.7868  O.2     1  <O>11      -0.3961
  19 C12      -4.2771    -9.5003    -5.0415  C.ar    1  <O>11       0.0108
  20 C13      -0.8747    -9.6397    -4.3430  C.ar    1  <O>11      -0.0176
  21 C14       0.4647    -9.2940    -4.1552  C.ar    1  <O>11      -0.0370
  22 H1        1.7006    -9.0664    -6.6035  H       1  <O>11       0.0323
  23 H2        3.2247    -9.1590    -7.5183  H       1  <O>11       0.0323
  24 H3        2.7453    -7.6318    -6.7397  H       1  <O>11       0.0323
  25 H4        3.2899   -10.1071    -3.5877  H       1  <O>11       0.1548
  26 H5       -4.4233    -8.6899    -0.2777  H       1  <O>11       0.1423
  27 H6       -3.1406    -9.9013    -0.3637  H       1  <O>11       0.1423
  28 H7        1.8760   -12.0121    -5.5351  H       1  <O>11       0.0637
  29 H8       -0.4625   -12.6007    -5.8566  H       1  <O>11       0.0655
  30 H9       -2.4761   -10.8275    -2.5342  H       1  <O>11       0.0673
  31 H10      -5.5392    -7.9445    -2.3424  H       1  <O>11       0.0659
  32 H11      -5.6203    -6.0494    -3.9310  H       1  <O>11       0.3292
  33 H12      -4.3835    -9.5371    -6.0673  H       1  <O>11       0.0677
  34 H13      -1.6170    -8.9993    -4.0208  H       1  <O>11       0.0655
  35 H14       0.7142    -8.4067    -3.6910  H       1  <O>11       0.0637
@<TRIPOS>BOND
     1     1     2    1
     2     2     3    2
     3     2     4   am
     4     4     5    1
     5     5     6   ar
     6     6     7   ar
     7     7     8   ar
     8     8     9    1
     9     9    10    1
    10    10    11   ar
    11    11    12   ar
    12    12    13    1
    13    12    14   ar
    14    14    15   ar
    15    15    16    1
    16    16    17    2
    17    16    18    1
    18    15    19   ar
    19    10    19   ar
    20     8    20   ar
    21    20    21   ar
    22     5    21   ar
    23     1    22    1
    24     1    23    1
    25     1    24    1
    26     4    25    1
    27    13    26    1
    28    13    27    1
    29     6    28    1
    30     7    29    1
    31    11    30    1
    32    14    31    1
    33    18    32    1
    34    19    33    1
    35    20    34    1
    36    21    35    1
@<TRIPOS>MOLECULE
mol42_1_11
 35 36 0 0 0
SMALL
USER_CHARGES
****
VDW energy = -33.56
@<TRIPOS>ATOM
   1 C1        2.7323    -8.7181    -6.6515  C.3     1  <O>11       0.0125
   2 C2        3.4528    -9.1250    -5.4100  C.2     1  <O>11       0.2141
   3 O1        4.6297    -8.8309    -5.2623  O.2     1  <O>11      -0.2758
   4 N1        2.7960    -9.8280    -4.4360  N.am    1  <O>11      -0.2857
   5 C3        3.4640   -10.2050    -3.2840  C.ar    1  <O>11       0.0336
   6 C4        4.1228   -11.4358    -3.2468  C.ar    1  <O>11      -0.0370
   7 C5        4.7901   -11.8289    -2.0808  C.ar    1  <O>11      -0.0176
   8 C6        4.8025   -10.9923    -0.9611  C.ar    1  <O>11       0.1286
   9 O2        5.4499   -11.3707     0.1803  O.3     1  <O>11      -0.4559
  10 C7        5.5516   -10.2930     1.0294  C.ar    1  <O>11       0.1323
  11 C8        6.2347    -9.1344     0.6253  C.ar    1  <O>11       0.0015
  12 C9        6.3482    -8.0427     1.4936  C.ar    1  <O>11       0.0302
  13 N2        7.0560    -6.8606     1.0700  N.pl3   1  <O>11      -0.3578
  14 C10       5.7796    -8.0965     2.7685  C.ar    1  <O>11      -0.0107
  15 C11       5.0928    -9.2488     3.1697  C.ar    1  <O>11       0.1268
  16 N3        4.5075    -9.3002     4.4848  N.4     1  <O>11       0.0061
  17 O3        5.5458    -9.1368     5.4827  O.2     1  <O>11      -0.1300
  18 O4        3.8543   -10.5811     4.6730  O.2     1  <O>11      -0.3961
  19 C12       4.9732   -10.3408     2.3093  C.ar    1  <O>11       0.0108
  20 C13       4.1434    -9.7588    -1.0158  C.ar    1  <O>11      -0.0176
  21 C14       3.4765    -9.3572    -2.1745  C.ar    1  <O>11      -0.0370
  22 H1        1.7006    -9.0664    -6.6035  H       1  <O>11       0.0323
  23 H2        3.2247    -9.1590    -7.5183  H       1  <O>11       0.0323
  24 H3        2.7453    -7.6318    -6.7397  H       1  <O>11       0.0323
  25 H4        1.8130   -10.0730    -4.5590  H       1  <O>11       0.1548
  26 H5        7.1407    -6.0627     1.7001  H       1  <O>11       0.1423
  27 H6        7.4713    -6.8215     0.1395  H       1  <O>11       0.1423
  28 H7        4.1176   -12.0523    -4.0744  H       1  <O>11       0.0637
  29 H8        5.2746   -12.7394    -2.0478  H       1  <O>11       0.0655
  30 H9        6.6548    -9.0878    -0.3162  H       1  <O>11       0.0673
  31 H10       5.8651    -7.2926     3.4100  H       1  <O>11       0.0659
  32 H11       3.1558   -10.8389     4.1040  H       1  <O>11       0.3292
  33 H12       4.4602   -11.1833     2.6127  H       1  <O>11       0.0677
  34 H13       4.1505    -9.1394    -0.1904  H       1  <O>11       0.0655
  35 H14       2.9980    -8.4435    -2.2108  H       1  <O>11       0.0637
@<TRIPOS>BOND
     1     1     2    1
     2     2     3    2
     3     2     4   am
     4     4     5    1
     5     5     6   ar
     6     6     7   ar
     7     7     8   ar
     8     8     9    1
     9     9    10    1
    10    10    11   ar
    11    11    12   ar
    12    12    13    1
    13    12    14   ar
    14    14    15   ar
    15    15    16    1
    16    16    17    2
    17    16    18    1
    18    15    19   ar
    19    10    19   ar
    20     8    20   ar
    21    20    21   ar
    22     5    21   ar
    23     1    22    1
    24     1    23    1
    25     1    24    1
    26     4    25    1
    27    13    26    1
    28    13    27    1
    29     6    28    1
    30     7    29    1
    31    11    30    1
    32    14    31    1
    33    18    32    1
    34    19    33    1
    35    20    34    1
    36    21    35    1
@<TRIPOS>MOLECULE
mol42_1_12
 35 36 0 0 0
SMALL
USER_CHARGES
****
VDW energy = -32.49
@<TRIPOS>ATOM
   1 C1        2.7323    -8.7181    -6.6515  C.3     1  <O>11       0.0125
   2 C2        3.4528    -9.1250    -5.4100  C.2     1  <O>11       0.2141
   3 O1        4.6297    -8.8309    -5.2623  O.2     1  <O>11      -0.2758
   4 N1        2.7960    -9.8280    -4.4360  N.am    1  <O>11      -0.2857
   5 C3        3.4640   -10.2050    -3.2840  C.ar    1  <O>11       0.0336
   6 C4        2.8525   -11.0953    -2.3987  C.ar    1  <O>11      -0.0370
   7 C5        3.5172   -11.4714    -1.2257  C.ar    1  <O>11      -0.0176
   8 C6        4.7886   -10.9637    -0.9437  C.ar    1  <O>11       0.1286
   9 O2        5.4416   -11.3250     0.2000  O.3     1  <O>11      -0.4559
  10 C7        6.1996   -12.4480    -0.0392  C.ar    1  <O>11       0.1323
  11 C8        7.5284   -12.3260    -0.4770  C.ar    1  <O>11       0.0015
  12 C9        8.2956   -13.4685    -0.7316  C.ar    1  <O>11       0.0302
  13 N2        9.6567   -13.3314    -1.1854  N.pl3   1  <O>11      -0.3578
  14 C10       7.7455   -14.7396    -0.5490  C.ar    1  <O>11      -0.0107
  15 C11       6.4227   -14.8620    -0.1063  C.ar    1  <O>11       0.1268
  16 N3        5.8594   -16.1743     0.0813  N.4     1  <O>11       0.0061
  17 O3        6.9094   -17.1031     0.4487  O.2     1  <O>11      -0.1300
  18 O4        5.2365   -16.6132    -1.1525  O.2     1  <O>11      -0.3961
  19 C12       5.6518   -13.7279     0.1519  C.ar    1  <O>11       0.0108
  20 C13       5.3914   -10.0775    -1.8438  C.ar    1  <O>11      -0.0176
  21 C14       4.7373    -9.6977    -3.0170  C.ar    1  <O>11      -0.0370
  22 H1        1.7006    -9.0664    -6.6035  H       1  <O>11       0.0323
  23 H2        3.2247    -9.1590    -7.5183  H       1  <O>11       0.0323
  24 H3        2.7453    -7.6318    -6.7397  H       1  <O>11       0.0323
  25 H4        1.8130   -10.0730    -4.5590  H       1  <O>11       0.1548
  26 H5       10.2192   -14.1618    -1.3719  H       1  <O>11       0.1423
  27 H6       10.0582   -12.4036    -1.3190  H       1  <O>11       0.1423
  28 H7        1.9155   -11.4739    -2.6083  H       1  <O>11       0.0637
  29 H8        3.0671   -12.1259    -0.5669  H       1  <O>11       0.0655
  30 H9        7.9411   -11.3897    -0.6115  H       1  <O>11       0.0673
  31 H10       8.3100   -15.5824    -0.7389  H       1  <O>11       0.0659
  32 H11       4.5348   -16.1167    -1.5256  H       1  <O>11       0.3292
  33 H12       4.6796   -13.8291     0.4831  H       1  <O>11       0.0677
  34 H13       6.3298    -9.7007    -1.6377  H       1  <O>11       0.0655
  35 H14       5.1899    -9.0491    -3.6800  H       1  <O>11       0.0637
@<TRIPOS>BOND
     1     1     2    1
     2     2     3    2
     3     2     4   am
     4     4     5    1
     5     5     6   ar
     6     6     7   ar
     7     7     8   ar
     8     8     9    1
     9     9    10    1
    10    10    11   ar
    11    11    12   ar
    12    12    13    1
    13    12    14   ar
    14    14    15   ar
    15    15    16    1
    16    16    17    2
    17    16    18    1
    18    15    19   ar
    19    10    19   ar
    20     8    20   ar
    21    20    21   ar
    22     5    21   ar
    23     1    22    1
    24     1    23    1
    25     1    24    1
    26     4    25    1
    27    13    26    1
    28    13    27    1
    29     6    28    1
    30     7    29    1
    31    11    30    1
    32    14    31    1
    33    18    32    1
    34    19    33    1
    35    20    34    1
    36    21    35    1
@<TRIPOS>MOLECULE
mol42_1_13
 35 36 0 0 0
SMALL
USER_CHARGES
****
VDW energy = -32.42
@<TRIPOS>ATOM
   1 C1        2.7323    -8.7181    -6.6515  C.3     1  <O>11       0.0125
   2 C2        3.4528    -9.1250    -5.4100  C.2     1  <O>11       0.2141
   3 O1        4.6297    -8.8309    -5.2623  O.2     1  <O>11      -0.2758
   4 N1        2.7960    -9.8280    -4.4360  N.am    1  <O>11      -0.2857
   5 C3        3.4640   -10.2050    -3.2840  C.ar    1  <O>11       0.0336
   6 C4        3.4657    -9.3470    -2.1822  C.ar    1  <O>11      -0.0370
   7 C5        4.1495    -9.7165    -1.0180  C.ar    1  <O>11      -0.0176
   8 C6        4.8226   -10.9399    -0.9557  C.ar    1  <O>11       0.1286
   9 O2        5.4934   -11.3054     0.1764  O.3     1  <O>11      -0.4559
  10 C7        5.8381   -12.6350     0.0968  C.ar    1  <O>11       0.1323
  11 C8        4.8438   -13.6180    -0.0355  C.ar    1  <O>11       0.0015
  12 C9        5.1938   -14.9713    -0.1044  C.ar    1  <O>11       0.0302
  13 N2        4.1647   -15.9720    -0.2352  N.pl3   1  <O>11      -0.3578
  14 C10       6.5360   -15.3542    -0.0452  C.ar    1  <O>11      -0.0107
  15 C11       7.5282   -14.3741     0.0802  C.ar    1  <O>11       0.1268
  16 N3        8.9110   -14.7729     0.1404  N.4     1  <O>11       0.0061
  17 O3        9.1153   -15.6376     1.2854  O.2     1  <O>11      -0.1300
  18 O4        9.7479   -13.5956     0.2690  O.2     1  <O>11      -0.3961
  19 C12       7.1879   -13.0226     0.1475  C.ar    1  <O>11       0.0108
  20 C13       4.8063   -11.7922    -2.0656  C.ar    1  <O>11      -0.0176
  21 C14       4.1258   -11.4334    -3.2305  C.ar    1  <O>11      -0.0370
  22 H1        1.7006    -9.0664    -6.6035  H       1  <O>11       0.0323
  23 H2        3.2247    -9.1590    -7.5183  H       1  <O>11       0.0323
  24 H3        2.7453    -7.6318    -6.7397  H       1  <O>11       0.0323
  25 H4        1.8130   -10.0730    -4.5590  H       1  <O>11       0.1548
  26 H5        4.4158   -16.9595    -0.2859  H       1  <O>11       0.1423
  27 H6        3.1849   -15.6926    -0.2781  H       1  <O>11       0.1423
  28 H7        2.9655    -8.4453    -2.2260  H       1  <O>11       0.0637
  29 H8        4.1567    -9.0834    -0.2031  H       1  <O>11       0.0655
  30 H9        3.8507   -13.3413    -0.0822  H       1  <O>11       0.0673
  31 H10       6.7944   -16.3521    -0.0937  H       1  <O>11       0.0659
  32 H11       9.7315   -12.9344    -0.3948  H       1  <O>11       0.3292
  33 H12       7.9272   -12.3078     0.2344  H       1  <O>11       0.0677
  34 H13       5.3029   -12.6958    -2.0225  H       1  <O>11       0.0655
  35 H14       4.1120   -12.0692    -4.0433  H       1  <O>11       0.0637
@<TRIPOS>BOND
     1     1     2    1
     2     2     3    2
     3     2     4   am
     4     4     5    1
     5     5     6   ar
     6     6     7   ar
     7     7     8   ar
     8     8     9    1
     9     9    10    1
    10    10    11   ar
    11    11    12   ar
    12    12    13    1
    13    12    14   ar
    14    14    15   ar
    15    15    16    1
    16    16    17    2
    17    16    18    1
    18    15    19   ar
    19    10    19   ar
    20     8    20   ar
    21    20    21   ar
    22     5    21   ar
    23     1    22    1
    24     1    23    1
    25     1    24    1
    26     4    25    1
    27    13    26    1
    28    13    27    1
    29     6    28    1
    30     7    29    1
    31    11    30    1
    32    14    31    1
    33    18    32    1
    34    19    33    1
    35    20    34    1
    36    21    35    1
@<TRIPOS>MOLECULE
mol42_1_14
 35 36 0 0 0
SMALL
USER_CHARGES
****
VDW energy = -29.88
@<TRIPOS>ATOM
   1 C1        2.7323    -8.7181    -6.6515  C.3     1  <O>11       0.0125
   2 C2        3.4528    -9.1250    -5.4100  C.2     1  <O>11       0.2141
   3 O1        4.6297    -8.8309    -5.2623  O.2     1  <O>11      -0.2758
   4 N1        2.7960    -9.8280    -4.4360  N.am    1  <O>11      -0.2857
   5 C3        3.4640   -10.2050    -3.2840  C.ar    1  <O>11       0.0336
   6 C4        2.8525   -11.0953    -2.3987  C.ar    1  <O>11      -0.0370
   7 C5        3.5172   -11.4714    -1.2257  C.ar    1  <O>11      -0.0176
   8 C6        4.7886   -10.9637    -0.9437  C.ar    1  <O>11       0.1286
   9 O2        5.4416   -11.3250     0.2000  O.3     1  <O>11      -0.4559
  10 C7        5.1228   -10.4449     1.2084  C.ar    1  <O>11       0.1323
  11 C8        4.0202   -10.6921     2.0423  C.ar    1  <O>11       0.0015
  12 C9        3.6890    -9.7907     3.0604  C.ar    1  <O>11       0.0302
  13 N2        2.5522   -10.0520     3.9071  N.pl3   1  <O>11      -0.3578
  14 C10       4.4554    -8.6393     3.2567  C.ar    1  <O>11      -0.0107
  15 C11       5.5588    -8.3956     2.4298  C.ar    1  <O>11       0.1268
  16 N3        6.3468    -7.2076     2.6356  N.4     1  <O>11       0.0061
  17 O3        6.9162    -6.7804     1.3732  O.2     1  <O>11      -0.1300
  18 O4        7.4142    -7.4928     3.5749  O.2     1  <O>11      -0.3961
  19 C12       5.8970    -9.2902     1.4137  C.ar    1  <O>11       0.0108
  20 C13       5.3914   -10.0775    -1.8438  C.ar    1  <O>11      -0.0176
  21 C14       4.7373    -9.6977    -3.0170  C.ar    1  <O>11      -0.0370
  22 H1        1.7006    -9.0664    -6.6035  H       1  <O>11       0.0323
  23 H2        3.2247    -9.1590    -7.5183  H       1  <O>11       0.0323
  24 H3        2.7453    -7.6318    -6.7397  H       1  <O>11       0.0323
  25 H4        1.8130   -10.0730    -4.5590  H       1  <O>11       0.1548
  26 H5        2.3077    -9.3974     4.6505  H       1  <O>11       0.1423
  27 H6        1.9925   -10.8923     3.7637  H       1  <O>11       0.1423
  28 H7        1.9155   -11.4739    -2.6083  H       1  <O>11       0.0637
  29 H8        3.0671   -12.1259    -0.5669  H       1  <O>11       0.0655
  30 H9        3.4516   -11.5421     1.9038  H       1  <O>11       0.0673
  31 H10       4.2102    -7.9732     4.0058  H       1  <O>11       0.0659
  32 H11       7.2099    -7.7823     4.4424  H       1  <O>11       0.3292
  33 H12       6.7155    -9.1040     0.8133  H       1  <O>11       0.0677
  34 H13       6.3298    -9.7007    -1.6377  H       1  <O>11       0.0655
  35 H14       5.1899    -9.0491    -3.6800  H       1  <O>11       0.0637
@<TRIPOS>BOND
     1     1     2    1
     2     2     3    2
     3     2     4   am
     4     4     5    1
     5     5     6   ar
     6     6     7   ar
     7     7     8   ar
     8     8     9    1
     9     9    10    1
    10    10    11   ar
    11    11    12   ar
    12    12    13    1
    13    12    14   ar
    14    14    15   ar
    15    15    16    1
    16    16    17    2
    17    16    18    1
    18    15    19   ar
    19    10    19   ar
    20     8    20   ar
    21    20    21   ar
    22     5    21   ar
    23     1    22    1
    24     1    23    1
    25     1    24    1
    26     4    25    1
    27    13    26    1
    28    13    27    1
    29     6    28    1
    30     7    29    1
    31    11    30    1
    32    14    31    1
    33    18    32    1
    34    19    33    1
    35    20    34    1
    36    21    35    1
@<TRIPOS>MOLECULE
mol42_1_15
 35 36 0 0 0
SMALL
USER_CHARGES
****
VDW energy = -29.46
@<TRIPOS>ATOM
   1 C1        2.7323    -8.7181    -6.6515  C.3     1  <O>11       0.0125
   2 C2        3.4528    -9.1250    -5.4100  C.2     1  <O>11       0.2141
   3 O1        4.6297    -8.8309    -5.2623  O.2     1  <O>11      -0.2758
   4 N1        2.7960    -9.8280    -4.4360  N.am    1  <O>11      -0.2857
   5 C3        3.4640   -10.2050    -3.2840  C.ar    1  <O>11       0.0336
   6 C4        2.8525   -11.0953    -2.3987  C.ar    1  <O>11      -0.0370
   7 C5        3.5172   -11.4714    -1.2257  C.ar    1  <O>11      -0.0176
   8 C6        4.7886   -10.9637    -0.9437  C.ar    1  <O>11       0.1286
   9 O2        5.4416   -11.3250     0.2000  O.3     1  <O>11      -0.4559
  10 C7        4.6931   -10.9537     1.2931  C.ar    1  <O>11       0.1323
  11 C8        4.3691    -9.6036     1.5045  C.ar    1  <O>11       0.0015
  12 C9        3.6177    -9.2247     2.6228  C.ar    1  <O>11       0.0302
  13 N2        3.2954    -7.8356     2.8325  N.pl3   1  <O>11      -0.3578
  14 C10       3.1815   -10.1879     3.5358  C.ar    1  <O>11      -0.0107
  15 C11       3.4986   -11.5349     3.3221  C.ar    1  <O>11       0.1268
  16 N3        3.0466   -12.5250     4.2655  N.4     1  <O>11       0.0061
  17 O3        3.9869   -13.6274     4.2971  O.2     1  <O>11      -0.1300
  18 O4        1.7420   -13.0146     3.8638  O.2     1  <O>11      -0.3961
  19 C12       4.2455   -11.9213     2.2086  C.ar    1  <O>11       0.0108
  20 C13       5.3914   -10.0775    -1.8438  C.ar    1  <O>11      -0.0176
  21 C14       4.7373    -9.6977    -3.0170  C.ar    1  <O>11      -0.0370
  22 H1        1.7006    -9.0664    -6.6035  H       1  <O>11       0.0323
  23 H2        3.2247    -9.1590    -7.5183  H       1  <O>11       0.0323
  24 H3        2.7453    -7.6318    -6.7397  H       1  <O>11       0.0323
  25 H4        1.8130   -10.0730    -4.5590  H       1  <O>11       0.1548
  26 H5        2.7477    -7.5554     3.6463  H       1  <O>11       0.1423
  27 H6        3.6140    -7.1324     2.1662  H       1  <O>11       0.1423
  28 H7        1.9155   -11.4739    -2.6083  H       1  <O>11       0.0637
  29 H8        3.0671   -12.1259    -0.5669  H       1  <O>11       0.0655
  30 H9        4.6865    -8.8877     0.8323  H       1  <O>11       0.0673
  31 H10       2.6294    -9.9087     4.3618  H       1  <O>11       0.0659
  32 H11       1.0199   -12.4214     3.7947  H       1  <O>11       0.3292
  33 H12       4.4692   -12.9174     2.0574  H       1  <O>11       0.0677
  34 H13       6.3298    -9.7007    -1.6377  H       1  <O>11       0.0655
  35 H14       5.1899    -9.0491    -3.6800  H       1  <O>11       0.0637
@<TRIPOS>BOND
     1     1     2    1
     2     2     3    2
     3     2     4   am
     4     4     5    1
     5     5     6   ar
     6     6     7   ar
     7     7     8   ar
     8     8     9    1
     9     9    10    1
    10    10    11   ar
    11    11    12   ar
    12    12    13    1
    13    12    14   ar
    14    14    15   ar
    15    15    16    1
    16    16    17    2
    17    16    18    1
    18    15    19   ar
    19    10    19   ar
    20     8    20   ar
    21    20    21   ar
    22     5    21   ar
    23     1    22    1
    24     1    23    1
    25     1    24    1
    26     4    25    1
    27    13    26    1
    28    13    27    1
    29     6    28    1
    30     7    29    1
    31    11    30    1
    32    14    31    1
    33    18    32    1
    34    19    33    1
    35    20    34    1
    36    21    35    1
@<TRIPOS>MOLECULE
mol42_1_16
 35 36 0 0 0
SMALL
USER_CHARGES
****
VDW energy = -28.47
@<TRIPOS>ATOM
   1 C1        2.7323    -8.7181    -6.6515  C.3     1  <O>11       0.0125
   2 C2        3.4528    -9.1250    -5.4100  C.2     1  <O>11       0.2141
   3 O1        4.6297    -8.8309    -5.2623  O.2     1  <O>11      -0.2758
   4 N1        2.7960    -9.8280    -4.4360  N.am    1  <O>11      -0.2857
   5 C3        3.4640   -10.2050    -3.2840  C.ar    1  <O>11       0.0336
   6 C4        2.8525   -11.0953    -2.3987  C.ar    1  <O>11      -0.0370
   7 C5        3.5172   -11.4714    -1.2257  C.ar    1  <O>11      -0.0176
   8 C6        4.7886   -10.9637    -0.9437  C.ar    1  <O>11       0.1286
   9 O2        5.4416   -11.3250     0.2000  O.3     1  <O>11      -0.4559
  10 C7        4.6931   -10.9537     1.2931  C.ar    1  <O>11       0.1323
  11 C8        4.3691    -9.6036     1.5045  C.ar    1  <O>11       0.0015
  12 C9        3.6177    -9.2247     2.6228  C.ar    1  <O>11       0.0302
  13 N2        3.2954    -7.8356     2.8325  N.pl3   1  <O>11      -0.3578
  14 C10       3.1815   -10.1879     3.5358  C.ar    1  <O>11      -0.0107
  15 C11       3.4986   -11.5349     3.3221  C.ar    1  <O>11       0.1268
  16 N3        3.0466   -12.5250     4.2655  N.4     1  <O>11       0.0061
  17 O3        1.8029   -12.0872     4.8671  O.2     1  <O>11      -0.1300
  18 O4        4.0481   -12.6994     5.2997  O.2     1  <O>11      -0.3961
  19 C12       4.2455   -11.9213     2.2086  C.ar    1  <O>11       0.0108
  20 C13       5.3914   -10.0775    -1.8438  C.ar    1  <O>11      -0.0176
  21 C14       4.7373    -9.6977    -3.0170  C.ar    1  <O>11      -0.0370
  22 H1        1.7006    -9.0664    -6.6035  H       1  <O>11       0.0323
  23 H2        3.2247    -9.1590    -7.5183  H       1  <O>11       0.0323
  24 H3        2.7453    -7.6318    -6.7397  H       1  <O>11       0.0323
  25 H4        1.8130   -10.0730    -4.5590  H       1  <O>11       0.1548
  26 H5        2.7477    -7.5554     3.6463  H       1  <O>11       0.1423
  27 H6        3.6140    -7.1324     2.1662  H       1  <O>11       0.1423
  28 H7        1.9155   -11.4739    -2.6083  H       1  <O>11       0.0637
  29 H8        3.0671   -12.1259    -0.5669  H       1  <O>11       0.0655
  30 H9        4.6865    -8.8877     0.8323  H       1  <O>11       0.0673
  31 H10       2.6294    -9.9087     4.3618  H       1  <O>11       0.0659
  32 H11       4.9123   -12.9812     5.0721  H       1  <O>11       0.3292
  33 H12       4.4692   -12.9174     2.0574  H       1  <O>11       0.0677
  34 H13       6.3298    -9.7007    -1.6377  H       1  <O>11       0.0655
  35 H14       5.1899    -9.0491    -3.6800  H       1  <O>11       0.0637
@<TRIPOS>BOND
     1     1     2    1
     2     2     3    2
     3     2     4   am
     4     4     5    1
     5     5     6   ar
     6     6     7   ar
     7     7     8   ar
     8     8     9    1
     9     9    10    1
    10    10    11   ar
    11    11    12   ar
    12    12    13    1
    13    12    14   ar
    14    14    15   ar
    15    15    16    1
    16    16    17    2
    17    16    18    1
    18    15    19   ar
    19    10    19   ar
    20     8    20   ar
    21    20    21   ar
    22     5    21   ar
    23     1    22    1
    24     1    23    1
    25     1    24    1
    26     4    25    1
    27    13    26    1
    28    13    27    1
    29     6    28    1
    30     7    29    1
    31    11    30    1
    32    14    31    1
    33    18    32    1
    34    19    33    1
    35    20    34    1
    36    21    35    1
@<TRIPOS>MOLECULE
mol42_1_17
 35 36 0 0 0
SMALL
USER_CHARGES
****
VDW energy = -28.04
@<TRIPOS>ATOM
   1 C1        2.7323    -8.7181    -6.6515  C.3     1  <O>11       0.0125
   2 C2        3.4528    -9.1250    -5.4100  C.2     1  <O>11       0.2141
   3 O1        4.6297    -8.8309    -5.2623  O.2     1  <O>11      -0.2758
   4 N1        2.7960    -9.8280    -4.4360  N.am    1  <O>11      -0.2857
   5 C3        3.4640   -10.2050    -3.2840  C.ar    1  <O>11       0.0336
   6 C4        2.8525   -11.0953    -2.3987  C.ar    1  <O>11      -0.0370
   7 C5        3.5172   -11.4714    -1.2257  C.ar    1  <O>11      -0.0176
   8 C6        4.7886   -10.9637    -0.9437  C.ar    1  <O>11       0.1286
   9 O2        5.4416   -11.3250     0.2000  O.3     1  <O>11      -0.4559
  10 C7        6.1996   -12.4480    -0.0392  C.ar    1  <O>11       0.1323
  11 C8        5.6515   -13.7268     0.1522  C.ar    1  <O>11       0.0015
  12 C9        6.4263   -14.8689    -0.0798  C.ar    1  <O>11       0.0302
  13 N2        5.8550   -16.1763     0.1247  N.pl3   1  <O>11      -0.3578
  14 C10       7.7507   -14.7450    -0.5068  C.ar    1  <O>11      -0.0107
  15 C11       8.2958   -13.4704    -0.7041  C.ar    1  <O>11       0.1268
  16 N3        9.6615   -13.3470    -1.1448  N.4     1  <O>11       0.0061
  17 O3       10.0440   -11.9491    -1.1478  O.2     1  <O>11      -0.1300
  18 O4        9.7866   -13.8846    -2.4858  O.2     1  <O>11      -0.3961
  19 C12       7.5294   -12.3267    -0.4771  C.ar    1  <O>11       0.0108
  20 C13       5.3914   -10.0775    -1.8438  C.ar    1  <O>11      -0.0176
  21 C14       4.7373    -9.6977    -3.0170  C.ar    1  <O>11      -0.0370
  22 H1        1.7006    -9.0664    -6.6035  H       1  <O>11       0.0323
  23 H2        3.2247    -9.1590    -7.5183  H       1  <O>11       0.0323
  24 H3        2.7453    -7.6318    -6.7397  H       1  <O>11       0.0323
  25 H4        1.8130   -10.0730    -4.5590  H       1  <O>11       0.1548
  26 H5        6.4166   -17.0112    -0.0435  H       1  <O>11       0.1423
  27 H6        4.8884   -16.2667     0.4367  H       1  <O>11       0.1423
  28 H7        1.9155   -11.4739    -2.6083  H       1  <O>11       0.0637
  29 H8        3.0671   -12.1259    -0.5669  H       1  <O>11       0.0655
  30 H9        4.6730   -13.8248     0.4652  H       1  <O>11       0.0673
  31 H10       8.3232   -15.5869    -0.6757  H       1  <O>11       0.0659
  32 H11       9.5751   -14.7821    -2.6523  H       1  <O>11       0.3292
  33 H12       7.9390   -11.3920    -0.6307  H       1  <O>11       0.0677
  34 H13       6.3298    -9.7007    -1.6377  H       1  <O>11       0.0655
  35 H14       5.1899    -9.0491    -3.6800  H       1  <O>11       0.0637
@<TRIPOS>BOND
     1     1     2    1
     2     2     3    2
     3     2     4   am
     4     4     5    1
     5     5     6   ar
     6     6     7   ar
     7     7     8   ar
     8     8     9    1
     9     9    10    1
    10    10    11   ar
    11    11    12   ar
    12    12    13    1
    13    12    14   ar
    14    14    15   ar
    15    15    16    1
    16    16    17    2
    17    16    18    1
    18    15    19   ar
    19    10    19   ar
    20     8    20   ar
    21    20    21   ar
    22     5    21   ar
    23     1    22    1
    24     1    23    1
    25     1    24    1
    26     4    25    1
    27    13    26    1
    28    13    27    1
    29     6    28    1
    30     7    29    1
    31    11    30    1
    32    14    31    1
    33    18    32    1
    34    19    33    1
    35    20    34    1
    36    21    35    1
@<TRIPOS>MOLECULE
mol42_1_18
 35 36 0 0 0
SMALL
USER_CHARGES
****
VDW energy = -27.55
@<TRIPOS>ATOM
   1 C1        2.7323    -8.7181    -6.6515  C.3     1  <O>11       0.0125
   2 C2        3.4528    -9.1250    -5.4100  C.2     1  <O>11       0.2141
   3 O1        4.6297    -8.8309    -5.2623  O.2     1  <O>11      -0.2758
   4 N1        2.7960    -9.8280    -4.4360  N.am    1  <O>11      -0.2857
   5 C3        3.4640   -10.2050    -3.2840  C.ar    1  <O>11       0.0336
   6 C4        2.8525   -11.0953    -2.3987  C.ar    1  <O>11      -0.0370
   7 C5        3.5172   -11.4714    -1.2257  C.ar    1  <O>11      -0.0176
   8 C6        4.7886   -10.9637    -0.9437  C.ar    1  <O>11       0.1286
   9 O2        5.4416   -11.3250     0.2000  O.3     1  <O>11      -0.4559
  10 C7        6.1996   -12.4480    -0.0392  C.ar    1  <O>11       0.1323
  11 C8        7.5284   -12.3260    -0.4770  C.ar    1  <O>11       0.0015
  12 C9        8.2956   -13.4685    -0.7316  C.ar    1  <O>11       0.0302
  13 N2        9.6567   -13.3314    -1.1854  N.pl3   1  <O>11      -0.3578
  14 C10       7.7455   -14.7396    -0.5490  C.ar    1  <O>11      -0.0107
  15 C11       6.4227   -14.8620    -0.1063  C.ar    1  <O>11       0.1268
  16 N3        5.8594   -16.1743     0.0813  N.4     1  <O>11       0.0061
  17 O3        4.4524   -16.0543     0.4076  O.2     1  <O>11      -0.1300
  18 O4        6.5506   -16.8462     1.1646  O.2     1  <O>11      -0.3961
  19 C12       5.6518   -13.7279     0.1519  C.ar    1  <O>11       0.0108
  20 C13       5.3914   -10.0775    -1.8438  C.ar    1  <O>11      -0.0176
  21 C14       4.7373    -9.6977    -3.0170  C.ar    1  <O>11      -0.0370
  22 H1        1.7006    -9.0664    -6.6035  H       1  <O>11       0.0323
  23 H2        3.2247    -9.1590    -7.5183  H       1  <O>11       0.0323
  24 H3        2.7453    -7.6318    -6.7397  H       1  <O>11       0.0323
  25 H4        1.8130   -10.0730    -4.5590  H       1  <O>11       0.1548
  26 H5       10.2192   -14.1618    -1.3719  H       1  <O>11       0.1423
  27 H6       10.0582   -12.4036    -1.3190  H       1  <O>11       0.1423
  28 H7        1.9155   -11.4739    -2.6083  H       1  <O>11       0.0637
  29 H8        3.0671   -12.1259    -0.5669  H       1  <O>11       0.0655
  30 H9        7.9411   -11.3897    -0.6115  H       1  <O>11       0.0673
  31 H10       8.3100   -15.5824    -0.7389  H       1  <O>11       0.0659
  32 H11       7.4728   -17.0017     1.1068  H       1  <O>11       0.3292
  33 H12       4.6796   -13.8291     0.4831  H       1  <O>11       0.0677
  34 H13       6.3298    -9.7007    -1.6377  H       1  <O>11       0.0655
  35 H14       5.1899    -9.0491    -3.6800  H       1  <O>11       0.0637
@<TRIPOS>BOND
     1     1     2    1
     2     2     3    2
     3     2     4   am
     4     4     5    1
     5     5     6   ar
     6     6     7   ar
     7     7     8   ar
     8     8     9    1
     9     9    10    1
    10    10    11   ar
    11    11    12   ar
    12    12    13    1
    13    12    14   ar
    14    14    15   ar
    15    15    16    1
    16    16    17    2
    17    16    18    1
    18    15    19   ar
    19    10    19   ar
    20     8    20   ar
    21    20    21   ar
    22     5    21   ar
    23     1    22    1
    24     1    23    1
    25     1    24    1
    26     4    25    1
    27    13    26    1
    28    13    27    1
    29     6    28    1
    30     7    29    1
    31    11    30    1
    32    14    31    1
    33    18    32    1
    34    19    33    1
    35    20    34    1
    36    21    35    1
@<TRIPOS>MOLECULE
mol42_1_19
 35 36 0 0 0
SMALL
USER_CHARGES
****
VDW energy = -23.78
@<TRIPOS>ATOM
   1 C1        2.7323    -8.7181    -6.6515  C.3     1  <O>11       0.0125
   2 C2        3.4528    -9.1250    -5.4100  C.2     1  <O>11       0.2141
   3 O1        4.6297    -8.8309    -5.2623  O.2     1  <O>11      -0.2758
   4 N1        2.7960    -9.8280    -4.4360  N.am    1  <O>11      -0.2857
   5 C3        3.4640   -10.2050    -3.2840  C.ar    1  <O>11       0.0336
   6 C4        2.8525   -11.0953    -2.3987  C.ar    1  <O>11      -0.0370
   7 C5        3.5172   -11.4714    -1.2257  C.ar    1  <O>11      -0.0176
   8 C6        4.7886   -10.9637    -0.9437  C.ar    1  <O>11       0.1286
   9 O2        5.4416   -11.3250     0.2000  O.3     1  <O>11      -0.4559
  10 C7        5.6256   -12.6884     0.2126  C.ar    1  <O>11       0.1323
  11 C8        6.7847   -13.2522    -0.3449  C.ar    1  <O>11       0.0015
  12 C9        6.9662   -14.6399    -0.3426  C.ar    1  <O>11       0.0302
  13 N2        8.1574   -15.2079    -0.9221  N.pl3   1  <O>11      -0.3578
  14 C10       5.9962   -15.4747     0.2176  C.ar    1  <O>11      -0.0107
  15 C11       4.8432   -14.9129     0.7795  C.ar    1  <O>11       0.1268
  16 N3        3.8457   -15.7769     1.3565  N.4     1  <O>11       0.0061
  17 O3        2.6930   -14.9906     1.7481  O.2     1  <O>11      -0.1300
  18 O4        4.3970   -16.4394     2.5228  O.2     1  <O>11      -0.3961
  19 C12       4.6556   -13.5301     0.7832  C.ar    1  <O>11       0.0108
  20 C13       5.3914   -10.0775    -1.8438  C.ar    1  <O>11      -0.0176
  21 C14       4.7373    -9.6977    -3.0170  C.ar    1  <O>11      -0.0370
  22 H1        1.7006    -9.0664    -6.6035  H       1  <O>11       0.0323
  23 H2        3.2247    -9.1590    -7.5183  H       1  <O>11       0.0323
  24 H3        2.7453    -7.6318    -6.7397  H       1  <O>11       0.0323
  25 H4        1.8130   -10.0730    -4.5590  H       1  <O>11       0.1548
  26 H5        8.2933   -16.2190    -0.9222  H       1  <O>11       0.1423
  27 H6        8.8653   -14.5986    -1.3313  H       1  <O>11       0.1423
  28 H7        1.9155   -11.4739    -2.6083  H       1  <O>11       0.0637
  29 H8        3.0671   -12.1259    -0.5669  H       1  <O>11       0.0655
  30 H9        7.5059   -12.6406    -0.7581  H       1  <O>11       0.0673
  31 H10       6.1284   -16.4982     0.2174  H       1  <O>11       0.0659
  32 H11       5.1507   -16.9895     2.4366  H       1  <O>11       0.3292
  33 H12       3.8048   -13.1258     1.2047  H       1  <O>11       0.0677
  34 H13       6.3298    -9.7007    -1.6377  H       1  <O>11       0.0655
  35 H14       5.1899    -9.0491    -3.6800  H       1  <O>11       0.0637
@<TRIPOS>BOND
     1     1     2    1
     2     2     3    2
     3     2     4   am
     4     4     5    1
     5     5     6   ar
     6     6     7   ar
     7     7     8   ar
     8     8     9    1
     9     9    10    1
    10    10    11   ar
    11    11    12   ar
    12    12    13    1
    13    12    14   ar
    14    14    15   ar
    15    15    16    1
    16    16    17    2
    17    16    18    1
    18    15    19   ar
    19    10    19   ar
    20     8    20   ar
    21    20    21   ar
    22     5    21   ar
    23     1    22    1
    24     1    23    1
    25     1    24    1
    26     4    25    1
    27    13    26    1
    28    13    27    1
    29     6    28    1
    30     7    29    1
    31    11    30    1
    32    14    31    1
    33    18    32    1
    34    19    33    1
    35    20    34    1
    36    21    35    1
@<TRIPOS>MOLECULE
mol42_1_20
 35 36 0 0 0
SMALL
USER_CHARGES
****
VDW energy = -20.58
@<TRIPOS>ATOM
   1 C1        2.7323    -8.7181    -6.6515  C.3     1  <O>11       0.0125
   2 C2        3.4528    -9.1250    -5.4100  C.2     1  <O>11       0.2141
   3 O1        4.6297    -8.8309    -5.2623  O.2     1  <O>11      -0.2758
   4 N1        2.7960    -9.8280    -4.4360  N.am    1  <O>11      -0.2857
   5 C3        3.4640   -10.2050    -3.2840  C.ar    1  <O>11       0.0336
   6 C4        2.8525   -11.0953    -2.3987  C.ar    1  <O>11      -0.0370
   7 C5        3.5172   -11.4714    -1.2257  C.ar    1  <O>11      -0.0176
   8 C6        4.7886   -10.9637    -0.9437  C.ar    1  <O>11       0.1286
   9 O2        5.4416   -11.3250     0.2000  O.3     1  <O>11      -0.4559
  10 C7        4.6931   -10.9537     1.2931  C.ar    1  <O>11       0.1323
  11 C8        4.3691    -9.6036     1.5045  C.ar    1  <O>11       0.0015
  12 C9        3.6177    -9.2247     2.6228  C.ar    1  <O>11       0.0302
  13 N2        3.2954    -7.8356     2.8325  N.pl3   1  <O>11      -0.3578
  14 C10       3.1815   -10.1879     3.5358  C.ar    1  <O>11      -0.0107
  15 C11       3.4986   -11.5349     3.3221  C.ar    1  <O>11       0.1268
  16 N3        3.0466   -12.5250     4.2655  N.4     1  <O>11       0.0061
  17 O3        3.5952   -12.2316     5.5744  O.2     1  <O>11      -0.1300
  18 O4        3.4918   -13.8375     3.8386  O.2     1  <O>11      -0.3961
  19 C12       4.2455   -11.9213     2.2086  C.ar    1  <O>11       0.0108
  20 C13       5.3914   -10.0775    -1.8438  C.ar    1  <O>11      -0.0176
  21 C14       4.7373    -9.6977    -3.0170  C.ar    1  <O>11      -0.0370
  22 H1        1.7006    -9.0664    -6.6035  H       1  <O>11       0.0323
  23 H2        3.2247    -9.1590    -7.5183  H       1  <O>11       0.0323
  24 H3        2.7453    -7.6318    -6.7397  H       1  <O>11       0.0323
  25 H4        1.8130   -10.0730    -4.5590  H       1  <O>11       0.1548
  26 H5        2.7477    -7.5554     3.6463  H       1  <O>11       0.1423
  27 H6        3.6140    -7.1324     2.1662  H       1  <O>11       0.1423
  28 H7        1.9155   -11.4739    -2.6083  H       1  <O>11       0.0637
  29 H8        3.0671   -12.1259    -0.5669  H       1  <O>11       0.0655
  30 H9        4.6865    -8.8877     0.8323  H       1  <O>11       0.0673
  31 H10       2.6294    -9.9087     4.3618  H       1  <O>11       0.0659
  32 H11       3.2219   -14.1764     3.0077  H       1  <O>11       0.3292
  33 H12       4.4692   -12.9174     2.0574  H       1  <O>11       0.0677
  34 H13       6.3298    -9.7007    -1.6377  H       1  <O>11       0.0655
  35 H14       5.1899    -9.0491    -3.6800  H       1  <O>11       0.0637
@<TRIPOS>BOND
     1     1     2    1
     2     2     3    2
     3     2     4   am
     4     4     5    1
     5     5     6   ar
     6     6     7   ar
     7     7     8   ar
     8     8     9    1
     9     9    10    1
    10    10    11   ar
    11    11    12   ar
    12    12    13    1
    13    12    14   ar
    14    14    15   ar
    15    15    16    1
    16    16    17    2
    17    16    18    1
    18    15    19   ar
    19    10    19   ar
    20     8    20   ar
    21    20    21   ar
    22     5    21   ar
    23     1    22    1
    24     1    23    1
    25     1    24    1
    26     4    25    1
    27    13    26    1
    28    13    27    1
    29     6    28    1
    30     7    29    1
    31    11    30    1
    32    14    31    1
    33    18    32    1
    34    19    33    1
    35    20    34    1
    36    21    35    1
@<TRIPOS>MOLECULE
mol42_1_21
 35 36 0 0 0
SMALL
USER_CHARGES
****
VDW energy = -19.97
@<TRIPOS>ATOM
   1 C1        2.7323    -8.7181    -6.6515  C.3     1  <O>11       0.0125
   2 C2        3.4528    -9.1250    -5.4100  C.2     1  <O>11       0.2141
   3 O1        4.6297    -8.8309    -5.2623  O.2     1  <O>11      -0.2758
   4 N1        2.7960    -9.8280    -4.4360  N.am    1  <O>11      -0.2857
   5 C3        3.4640   -10.2050    -3.2840  C.ar    1  <O>11       0.0336
   6 C4        2.8525   -11.0953    -2.3987  C.ar    1  <O>11      -0.0370
   7 C5        3.5172   -11.4714    -1.2257  C.ar    1  <O>11      -0.0176
   8 C6        4.7886   -10.9637    -0.9437  C.ar    1  <O>11       0.1286
   9 O2        5.4416   -11.3250     0.2000  O.3     1  <O>11      -0.4559
  10 C7        6.7549   -10.9213     0.1261  C.ar    1  <O>11       0.1323
  11 C8        7.7289   -11.7747    -0.4173  C.ar    1  <O>11       0.0015
  12 C9        9.0667   -11.3686    -0.4816  C.ar    1  <O>11       0.0302
  13 N2       10.0588   -12.2547    -1.0367  N.pl3   1  <O>11      -0.3578
  14 C10       9.4425   -10.1091    -0.0082  C.ar    1  <O>11      -0.0107
  15 C11       8.4707    -9.2552     0.5277  C.ar    1  <O>11       0.1268
  16 N3        8.8621    -7.9572     1.0143  N.4     1  <O>11       0.0061
  17 O3       10.0081    -7.4848     0.2633  O.2     1  <O>11      -0.1300
  18 O4        9.2113    -8.0530     2.4185  O.2     1  <O>11      -0.3961
  19 C12       7.1345    -9.6516     0.5935  C.ar    1  <O>11       0.0108
  20 C13       5.3914   -10.0775    -1.8438  C.ar    1  <O>11      -0.0176
  21 C14       4.7373    -9.6977    -3.0170  C.ar    1  <O>11      -0.0370
  22 H1        1.7006    -9.0664    -6.6035  H       1  <O>11       0.0323
  23 H2        3.2247    -9.1590    -7.5183  H       1  <O>11       0.0323
  24 H3        2.7453    -7.6318    -6.7397  H       1  <O>11       0.0323
  25 H4        1.8130   -10.0730    -4.5590  H       1  <O>11       0.1548
  26 H5       11.0349   -11.9622    -1.0854  H       1  <O>11       0.1423
  27 H6        9.7846   -13.1742    -1.3819  H       1  <O>11       0.1423
  28 H7        1.9155   -11.4739    -2.6083  H       1  <O>11       0.0637
  29 H8        3.0671   -12.1259    -0.5669  H       1  <O>11       0.0655
  30 H9        7.4571   -12.7054    -0.7708  H       1  <O>11       0.0673
  31 H10      10.4292    -9.8101    -0.0533  H       1  <O>11       0.0659
  32 H11       8.5746    -8.3456     3.0406  H       1  <O>11       0.3292
  33 H12       6.4252    -9.0125     0.9853  H       1  <O>11       0.0677
  34 H13       6.3298    -9.7007    -1.6377  H       1  <O>11       0.0655
  35 H14       5.1899    -9.0491    -3.6800  H       1  <O>11       0.0637
@<TRIPOS>BOND
     1     1     2    1
     2     2     3    2
     3     2     4   am
     4     4     5    1
     5     5     6   ar
     6     6     7   ar
     7     7     8   ar
     8     8     9    1
     9     9    10    1
    10    10    11   ar
    11    11    12   ar
    12    12    13    1
    13    12    14   ar
    14    14    15   ar
    15    15    16    1
    16    16    17    2
    17    16    18    1
    18    15    19   ar
    19    10    19   ar
    20     8    20   ar
    21    20    21   ar
    22     5    21   ar
    23     1    22    1
    24     1    23    1
    25     1    24    1
    26     4    25    1
    27    13    26    1
    28    13    27    1
    29     6    28    1
    30     7    29    1
    31    11    30    1
    32    14    31    1
    33    18    32    1
    34    19    33    1
    35    20    34    1
    36    21    35    1
@<TRIPOS>MOLECULE
mol42_1_22
 35 36 0 0 0
SMALL
USER_CHARGES
****
VDW energy = -19.19
@<TRIPOS>ATOM
   1 C1        2.7323    -8.7181    -6.6515  C.3     1  <O>11       0.0125
   2 C2        3.4528    -9.1250    -5.4100  C.2     1  <O>11       0.2141
   3 O1        4.6297    -8.8309    -5.2623  O.2     1  <O>11      -0.2758
   4 N1        2.7960    -9.8280    -4.4360  N.am    1  <O>11      -0.2857
   5 C3        3.4640   -10.2050    -3.2840  C.ar    1  <O>11       0.0336
   6 C4        2.8525   -11.0953    -2.3987  C.ar    1  <O>11      -0.0370
   7 C5        3.5172   -11.4714    -1.2257  C.ar    1  <O>11      -0.0176
   8 C6        4.7886   -10.9637    -0.9437  C.ar    1  <O>11       0.1286
   9 O2        5.4416   -11.3250     0.2000  O.3     1  <O>11      -0.4559
  10 C7        5.1228   -10.4449     1.2084  C.ar    1  <O>11       0.1323
  11 C8        5.4141    -9.0776     1.0740  C.ar    1  <O>11       0.0015
  12 C9        5.1006    -8.1844     2.1048  C.ar    1  <O>11       0.0302
  13 N2        5.4086    -6.7840     1.9580  N.pl3   1  <O>11      -0.3578
  14 C10       4.4921    -8.6464     3.2744  C.ar    1  <O>11      -0.0107
  15 C11       4.1956   -10.0084     3.4064  C.ar    1  <O>11       0.1268
  16 N3        3.5678   -10.4807     4.6137  N.4     1  <O>11       0.0061
  17 O3        4.4210   -10.1887     5.7483  O.2     1  <O>11      -0.1300
  18 O4        3.3603   -11.9130     4.5216  O.2     1  <O>11      -0.3961
  19 C12       4.5030   -10.9053     2.3826  C.ar    1  <O>11       0.0108
  20 C13       5.3914   -10.0775    -1.8438  C.ar    1  <O>11      -0.0176
  21 C14       4.7373    -9.6977    -3.0170  C.ar    1  <O>11      -0.0370
  22 H1        1.7006    -9.0664    -6.6035  H       1  <O>11       0.0323
  23 H2        3.2247    -9.1590    -7.5183  H       1  <O>11       0.0323
  24 H3        2.7453    -7.6318    -6.7397  H       1  <O>11       0.0323
  25 H4        1.8130   -10.0730    -4.5590  H       1  <O>11       0.1548
  26 H5        5.1814    -6.1298     2.7071  H       1  <O>11       0.1423
  27 H6        5.8530    -6.4468     1.1044  H       1  <O>11       0.1423
  28 H7        1.9155   -11.4739    -2.6083  H       1  <O>11       0.0637
  29 H8        3.0671   -12.1259    -0.5669  H       1  <O>11       0.0655
  30 H9        5.8613    -8.7300     0.2114  H       1  <O>11       0.0673
  31 H10       4.2629    -7.9884     4.0357  H       1  <O>11       0.0659
  32 H11       2.8276   -12.2661     3.8363  H       1  <O>11       0.3292
  33 H12       4.2752   -11.9063     2.4876  H       1  <O>11       0.0677
  34 H13       6.3298    -9.7007    -1.6377  H       1  <O>11       0.0655
  35 H14       5.1899    -9.0491    -3.6800  H       1  <O>11       0.0637
@<TRIPOS>BOND
     1     1     2    1
     2     2     3    2
     3     2     4   am
     4     4     5    1
     5     5     6   ar
     6     6     7   ar
     7     7     8   ar
     8     8     9    1
     9     9    10    1
    10    10    11   ar
    11    11    12   ar
    12    12    13    1
    13    12    14   ar
    14    14    15   ar
    15    15    16    1
    16    16    17    2
    17    16    18    1
    18    15    19   ar
    19    10    19   ar
    20     8    20   ar
    21    20    21   ar
    22     5    21   ar
    23     1    22    1
    24     1    23    1
    25     1    24    1
    26     4    25    1
    27    13    26    1
    28    13    27    1
    29     6    28    1
    30     7    29    1
    31    11    30    1
    32    14    31    1
    33    18    32    1
    34    19    33    1
    35    20    34    1
    36    21    35    1
@<TRIPOS>MOLECULE
mol42_1_23
 35 36 0 0 0
SMALL
USER_CHARGES
****
VDW energy = -18.67
@<TRIPOS>ATOM
   1 C1        2.7323    -8.7181    -6.6515  C.3     1  <O>11       0.0125
   2 C2        3.4528    -9.1250    -5.4100  C.2     1  <O>11       0.2141
   3 O1        4.6297    -8.8309    -5.2623  O.2     1  <O>11      -0.2758
   4 N1        2.7960    -9.8280    -4.4360  N.am    1  <O>11      -0.2857
   5 C3        3.4640   -10.2050    -3.2840  C.ar    1  <O>11       0.0336
   6 C4        2.8525   -11.0953    -2.3987  C.ar    1  <O>11      -0.0370
   7 C5        3.5172   -11.4714    -1.2257  C.ar    1  <O>11      -0.0176
   8 C6        4.7886   -10.9637    -0.9437  C.ar    1  <O>11       0.1286
   9 O2        5.4416   -11.3250     0.2000  O.3     1  <O>11      -0.4559
  10 C7        5.1228   -10.4449     1.2084  C.ar    1  <O>11       0.1323
  11 C8        5.1490   -10.8634     2.5487  C.ar    1  <O>11       0.0015
  12 C9        4.8132    -9.9714     3.5735  C.ar    1  <O>11       0.0302
  13 N2        4.8387   -10.4133     4.9452  N.pl3   1  <O>11      -0.3578
  14 C10       4.4524    -8.6563     3.2705  C.ar    1  <O>11      -0.0107
  15 C11       4.4323    -8.2365     1.9348  C.ar    1  <O>11       0.1268
  16 N3        4.0602    -6.8796     1.6265  N.4     1  <O>11       0.0061
  17 O3        3.4345    -6.8349     0.3201  O.2     1  <O>11      -0.1300
  18 O4        5.2446    -6.0429     1.6236  O.2     1  <O>11      -0.3961
  19 C12       4.7678    -9.1190     0.9073  C.ar    1  <O>11       0.0108
  20 C13       5.3914   -10.0775    -1.8438  C.ar    1  <O>11      -0.0176
  21 C14       4.7373    -9.6977    -3.0170  C.ar    1  <O>11      -0.0370
  22 H1        1.7006    -9.0664    -6.6035  H       1  <O>11       0.0323
  23 H2        3.2247    -9.1590    -7.5183  H       1  <O>11       0.0323
  24 H3        2.7453    -7.6318    -6.7397  H       1  <O>11       0.0323
  25 H4        1.8130   -10.0730    -4.5590  H       1  <O>11       0.1548
  26 H5        4.5947    -9.7659     5.6951  H       1  <O>11       0.1423
  27 H6        5.1018   -11.3733     5.1664  H       1  <O>11       0.1423
  28 H7        1.9155   -11.4739    -2.6083  H       1  <O>11       0.0637
  29 H8        3.0671   -12.1259    -0.5669  H       1  <O>11       0.0655
  30 H9        5.4171   -11.8330     2.7790  H       1  <O>11       0.0673
  31 H10       4.2024    -7.9988     4.0257  H       1  <O>11       0.0659
  32 H11       5.7647    -5.9645     2.3990  H       1  <O>11       0.3292
  33 H12       4.7551    -8.7980    -0.0735  H       1  <O>11       0.0677
  34 H13       6.3298    -9.7007    -1.6377  H       1  <O>11       0.0655
  35 H14       5.1899    -9.0491    -3.6800  H       1  <O>11       0.0637
@<TRIPOS>BOND
     1     1     2    1
     2     2     3    2
     3     2     4   am
     4     4     5    1
     5     5     6   ar
     6     6     7   ar
     7     7     8   ar
     8     8     9    1
     9     9    10    1
    10    10    11   ar
    11    11    12   ar
    12    12    13    1
    13    12    14   ar
    14    14    15   ar
    15    15    16    1
    16    16    17    2
    17    16    18    1
    18    15    19   ar
    19    10    19   ar
    20     8    20   ar
    21    20    21   ar
    22     5    21   ar
    23     1    22    1
    24     1    23    1
    25     1    24    1
    26     4    25    1
    27    13    26    1
    28    13    27    1
    29     6    28    1
    30     7    29    1
    31    11    30    1
    32    14    31    1
    33    18    32    1
    34    19    33    1
    35    20    34    1
    36    21    35    1
@<TRIPOS>MOLECULE
mol42_1_24
 35 36 0 0 0
SMALL
USER_CHARGES
****
VDW energy = -18.17
@<TRIPOS>ATOM
   1 C1        2.7323    -8.7181    -6.6515  C.3     1  <O>11       0.0125
   2 C2        3.4528    -9.1250    -5.4100  C.2     1  <O>11       0.2141
   3 O1        4.6297    -8.8309    -5.2623  O.2     1  <O>11      -0.2758
   4 N1        2.7960    -9.8280    -4.4360  N.am    1  <O>11      -0.2857
   5 C3        3.4640   -10.2050    -3.2840  C.ar    1  <O>11       0.0336
   6 C4        2.8525   -11.0953    -2.3987  C.ar    1  <O>11      -0.0370
   7 C5        3.5172   -11.4714    -1.2257  C.ar    1  <O>11      -0.0176
   8 C6        4.7886   -10.9637    -0.9437  C.ar    1  <O>11       0.1286
   9 O2        5.4416   -11.3250     0.2000  O.3     1  <O>11      -0.4559
  10 C7        6.1996   -12.4480    -0.0392  C.ar    1  <O>11       0.1323
  11 C8        7.3648   -12.6886     0.7070  C.ar    1  <O>11       0.0015
  12 C9        8.1421   -13.8249     0.4555  C.ar    1  <O>11       0.0302
  13 N2        9.3387   -14.0592     1.2241  N.pl3   1  <O>11      -0.3578
  14 C10       7.7625   -14.7304    -0.5383  C.ar    1  <O>11      -0.0107
  15 C11       6.5974   -14.4945    -1.2783  C.ar    1  <O>11       0.1268
  16 N3        6.2091   -15.4306    -2.3018  N.4     1  <O>11       0.0061
  17 O3        5.0601   -14.9143    -3.0185  O.2     1  <O>11      -0.1300
  18 O4        5.8663   -16.7000    -1.6902  O.2     1  <O>11      -0.3961
  19 C12       5.8156   -13.3651    -1.0324  C.ar    1  <O>11       0.0108
  20 C13       5.3914   -10.0775    -1.8438  C.ar    1  <O>11      -0.0176
  21 C14       4.7373    -9.6977    -3.0170  C.ar    1  <O>11      -0.0370
  22 H1        1.7006    -9.0664    -6.6035  H       1  <O>11       0.0323
  23 H2        3.2247    -9.1590    -7.5183  H       1  <O>11       0.0323
  24 H3        2.7453    -7.6318    -6.7397  H       1  <O>11       0.0323
  25 H4        1.8130   -10.0730    -4.5590  H       1  <O>11       0.1548
  26 H5        9.9078   -14.8865     1.0438  H       1  <O>11       0.1423
  27 H6        9.6159   -13.3982     1.9493  H       1  <O>11       0.1423
  28 H7        1.9155   -11.4739    -2.6083  H       1  <O>11       0.0637
  29 H8        3.0671   -12.1259    -0.5669  H       1  <O>11       0.0655
  30 H9        7.6491   -12.0247     1.4441  H       1  <O>11       0.0673
  31 H10       8.3366   -15.5672    -0.7257  H       1  <O>11       0.0659
  32 H11       6.5055   -17.1658    -1.1878  H       1  <O>11       0.3292
  33 H12       4.9558   -13.2033    -1.5797  H       1  <O>11       0.0677
  34 H13       6.3298    -9.7007    -1.6377  H       1  <O>11       0.0655
  35 H14       5.1899    -9.0491    -3.6800  H       1  <O>11       0.0637
@<TRIPOS>BOND
     1     1     2    1
     2     2     3    2
     3     2     4   am
     4     4     5    1
     5     5     6   ar
     6     6     7   ar
     7     7     8   ar
     8     8     9    1
     9     9    10    1
    10    10    11   ar
    11    11    12   ar
    12    12    13    1
    13    12    14   ar
    14    14    15   ar
    15    15    16    1
    16    16    17    2
    17    16    18    1
    18    15    19   ar
    19    10    19   ar
    20     8    20   ar
    21    20    21   ar
    22     5    21   ar
    23     1    22    1
    24     1    23    1
    25     1    24    1
    26     4    25    1
    27    13    26    1
    28    13    27    1
    29     6    28    1
    30     7    29    1
    31    11    30    1
    32    14    31    1
    33    18    32    1
    34    19    33    1
    35    20    34    1
    36    21    35    1
@<TRIPOS>MOLECULE
mol42_1_25
 35 36 0 0 0
SMALL
USER_CHARGES
****
VDW energy = -15.69
@<TRIPOS>ATOM
   1 C1        2.7323    -8.7181    -6.6515  C.3     1  <O>11       0.0125
   2 C2        3.4528    -9.1250    -5.4100  C.2     1  <O>11       0.2141
   3 O1        4.6297    -8.8309    -5.2623  O.2     1  <O>11      -0.2758
   4 N1        2.7960    -9.8280    -4.4360  N.am    1  <O>11      -0.2857
   5 C3        3.4640   -10.2050    -3.2840  C.ar    1  <O>11       0.0336
   6 C4        2.8525   -11.0953    -2.3987  C.ar    1  <O>11      -0.0370
   7 C5        3.5172   -11.4714    -1.2257  C.ar    1  <O>11      -0.0176
   8 C6        4.7886   -10.9637    -0.9437  C.ar    1  <O>11       0.1286
   9 O2        5.4416   -11.3250     0.2000  O.3     1  <O>11      -0.4559
  10 C7        5.1228   -10.4449     1.2084  C.ar    1  <O>11       0.1323
  11 C8        5.1490   -10.8634     2.5487  C.ar    1  <O>11       0.0015
  12 C9        4.8132    -9.9714     3.5735  C.ar    1  <O>11       0.0302
  13 N2        4.8387   -10.4133     4.9452  N.pl3   1  <O>11      -0.3578
  14 C10       4.4524    -8.6563     3.2705  C.ar    1  <O>11      -0.0107
  15 C11       4.4323    -8.2365     1.9348  C.ar    1  <O>11       0.1268
  16 N3        4.0602    -6.8796     1.6265  N.4     1  <O>11       0.0061
  17 O3        3.9791    -6.7153     0.1889  O.2     1  <O>11      -0.1300
  18 O4        5.0573    -5.9722     2.1607  O.2     1  <O>11      -0.3961
  19 C12       4.7678    -9.1190     0.9073  C.ar    1  <O>11       0.0108
  20 C13       5.3914   -10.0775    -1.8438  C.ar    1  <O>11      -0.0176
  21 C14       4.7373    -9.6977    -3.0170  C.ar    1  <O>11      -0.0370
  22 H1        1.7006    -9.0664    -6.6035  H       1  <O>11       0.0323
  23 H2        3.2247    -9.1590    -7.5183  H       1  <O>11       0.0323
  24 H3        2.7453    -7.6318    -6.7397  H       1  <O>11       0.0323
  25 H4        1.8130   -10.0730    -4.5590  H       1  <O>11       0.1548
  26 H5        4.5947    -9.7659     5.6951  H       1  <O>11       0.1423
  27 H6        5.1018   -11.3733     5.1664  H       1  <O>11       0.1423
  28 H7        1.9155   -11.4739    -2.6083  H       1  <O>11       0.0637
  29 H8        3.0671   -12.1259    -0.5669  H       1  <O>11       0.0655
  30 H9        5.4171   -11.8330     2.7790  H       1  <O>11       0.0673
  31 H10       4.2024    -7.9988     4.0257  H       1  <O>11       0.0659
  32 H11       5.2305    -5.9559     3.0814  H       1  <O>11       0.3292
  33 H12       4.7551    -8.7980    -0.0735  H       1  <O>11       0.0677
  34 H13       6.3298    -9.7007    -1.6377  H       1  <O>11       0.0655
  35 H14       5.1899    -9.0491    -3.6800  H       1  <O>11       0.0637
@<TRIPOS>BOND
     1     1     2    1
     2     2     3    2
     3     2     4   am
     4     4     5    1
     5     5     6   ar
     6     6     7   ar
     7     7     8   ar
     8     8     9    1
     9     9    10    1
    10    10    11   ar
    11    11    12   ar
    12    12    13    1
    13    12    14   ar
    14    14    15   ar
    15    15    16    1
    16    16    17    2
    17    16    18    1
    18    15    19   ar
    19    10    19   ar
    20     8    20   ar
    21    20    21   ar
    22     5    21   ar
    23     1    22    1
    24     1    23    1
    25     1    24    1
    26     4    25    1
    27    13    26    1
    28    13    27    1
    29     6    28    1
    30     7    29    1
    31    11    30    1
    32    14    31    1
    33    18    32    1
    34    19    33    1
    35    20    34    1
    36    21    35    1
@<TRIPOS>MOLECULE
mol42_1_26
 35 36 0 0 0
SMALL
USER_CHARGES
****
VDW energy = -14.89
@<TRIPOS>ATOM
   1 C1        2.7323    -8.7181    -6.6515  C.3     1  <O>11       0.0125
   2 C2        3.4528    -9.1250    -5.4100  C.2     1  <O>11       0.2141
   3 O1        4.6297    -8.8309    -5.2623  O.2     1  <O>11      -0.2758
   4 N1        2.7960    -9.8280    -4.4360  N.am    1  <O>11      -0.2857
   5 C3        3.4640   -10.2050    -3.2840  C.ar    1  <O>11       0.0336
   6 C4        2.8525   -11.0953    -2.3987  C.ar    1  <O>11      -0.0370
   7 C5        3.5172   -11.4714    -1.2257  C.ar    1  <O>11      -0.0176
   8 C6        4.7886   -10.9637    -0.9437  C.ar    1  <O>11       0.1286
   9 O2        5.4416   -11.3250     0.2000  O.3     1  <O>11      -0.4559
  10 C7        6.7549   -10.9213     0.1261  C.ar    1  <O>11       0.1323
  11 C8        7.5864   -11.3994    -0.8998  C.ar    1  <O>11       0.0015
  12 C9        8.9254   -10.9980    -0.9679  C.ar    1  <O>11       0.0302
  13 N2        9.7710   -11.4989    -2.0222  N.pl3   1  <O>11      -0.3578
  14 C10       9.4440   -10.1156    -0.0171  C.ar    1  <O>11      -0.0107
  15 C11       8.6137    -9.6335     1.0022  C.ar    1  <O>11       0.1268
  16 N3        9.1521    -8.7235     1.9803  N.4     1  <O>11       0.0061
  17 O3        9.7578    -7.5923     1.3065  O.2     1  <O>11      -0.1300
  18 O4       10.1552    -9.4062     2.7744  O.2     1  <O>11      -0.3961
  19 C12       7.2770   -10.0271     1.0761  C.ar    1  <O>11       0.0108
  20 C13       5.3914   -10.0775    -1.8438  C.ar    1  <O>11      -0.0176
  21 C14       4.7373    -9.6977    -3.0170  C.ar    1  <O>11      -0.0370
  22 H1        1.7006    -9.0664    -6.6035  H       1  <O>11       0.0323
  23 H2        3.2247    -9.1590    -7.5183  H       1  <O>11       0.0323
  24 H3        2.7453    -7.6318    -6.7397  H       1  <O>11       0.0323
  25 H4        1.8130   -10.0730    -4.5590  H       1  <O>11       0.1548
  26 H5       10.7475   -11.2085    -2.0754  H       1  <O>11       0.1423
  27 H6        9.3926   -12.1432    -2.7161  H       1  <O>11       0.1423
  28 H7        1.9155   -11.4739    -2.6083  H       1  <O>11       0.0637
  29 H8        3.0671   -12.1259    -0.5669  H       1  <O>11       0.0655
  30 H9        7.2084   -12.0496    -1.6065  H       1  <O>11       0.0673
  31 H10      10.4319    -9.8211    -0.0656  H       1  <O>11       0.0659
  32 H11       9.9214   -10.1636     3.2742  H       1  <O>11       0.3292
  33 H12       6.6722    -9.6617     1.8281  H       1  <O>11       0.0677
  34 H13       6.3298    -9.7007    -1.6377  H       1  <O>11       0.0655
  35 H14       5.1899    -9.0491    -3.6800  H       1  <O>11       0.0637
@<TRIPOS>BOND
     1     1     2    1
     2     2     3    2
     3     2     4   am
     4     4     5    1
     5     5     6   ar
     6     6     7   ar
     7     7     8   ar
     8     8     9    1
     9     9    10    1
    10    10    11   ar
    11    11    12   ar
    12    12    13    1
    13    12    14   ar
    14    14    15   ar
    15    15    16    1
    16    16    17    2
    17    16    18    1
    18    15    19   ar
    19    10    19   ar
    20     8    20   ar
    21    20    21   ar
    22     5    21   ar
    23     1    22    1
    24     1    23    1
    25     1    24    1
    26     4    25    1
    27    13    26    1
    28    13    27    1
    29     6    28    1
    30     7    29    1
    31    11    30    1
    32    14    31    1
    33    18    32    1
    34    19    33    1
    35    20    34    1
    36    21    35    1
@<TRIPOS>MOLECULE
mol42_1_27
 35 36 0 0 0
SMALL
USER_CHARGES
****
VDW energy = -13.16
@<TRIPOS>ATOM
   1 C1        2.7323    -8.7181    -6.6515  C.3     1  <O>11       0.0125
   2 C2        3.4528    -9.1250    -5.4100  C.2     1  <O>11       0.2141
   3 O1        4.6297    -8.8309    -5.2623  O.2     1  <O>11      -0.2758
   4 N1        2.7960    -9.8280    -4.4360  N.am    1  <O>11      -0.2857
   5 C3        3.4640   -10.2050    -3.2840  C.ar    1  <O>11       0.0336
   6 C4        2.8525   -11.0953    -2.3987  C.ar    1  <O>11      -0.0370
   7 C5        3.5172   -11.4714    -1.2257  C.ar    1  <O>11      -0.0176
   8 C6        4.7886   -10.9637    -0.9437  C.ar    1  <O>11       0.1286
   9 O2        5.4416   -11.3250     0.2000  O.3     1  <O>11      -0.4559
  10 C7        6.7549   -10.9213     0.1261  C.ar    1  <O>11       0.1323
  11 C8        7.5864   -11.3994    -0.8998  C.ar    1  <O>11       0.0015
  12 C9        8.9254   -10.9980    -0.9679  C.ar    1  <O>11       0.0302
  13 N2        9.7710   -11.4989    -2.0222  N.pl3   1  <O>11      -0.3578
  14 C10       9.4440   -10.1156    -0.0171  C.ar    1  <O>11      -0.0107
  15 C11       8.6137    -9.6335     1.0022  C.ar    1  <O>11       0.1268
  16 N3        9.1521    -8.7235     1.9803  N.4     1  <O>11       0.0061
  17 O3       10.2098    -7.9368     1.3782  O.2     1  <O>11      -0.1300
  18 O4        9.6872    -9.4770     3.0979  O.2     1  <O>11      -0.3961
  19 C12       7.2770   -10.0271     1.0761  C.ar    1  <O>11       0.0108
  20 C13       5.3914   -10.0775    -1.8438  C.ar    1  <O>11      -0.0176
  21 C14       4.7373    -9.6977    -3.0170  C.ar    1  <O>11      -0.0370
  22 H1        1.7006    -9.0664    -6.6035  H       1  <O>11       0.0323
  23 H2        3.2247    -9.1590    -7.5183  H       1  <O>11       0.0323
  24 H3        2.7453    -7.6318    -6.7397  H       1  <O>11       0.0323
  25 H4        1.8130   -10.0730    -4.5590  H       1  <O>11       0.1548
  26 H5       10.7475   -11.2085    -2.0754  H       1  <O>11       0.1423
  27 H6        9.3926   -12.1432    -2.7161  H       1  <O>11       0.1423
  28 H7        1.9155   -11.4739    -2.6083  H       1  <O>11       0.0637
  29 H8        3.0671   -12.1259    -0.5669  H       1  <O>11       0.0655
  30 H9        7.2084   -12.0496    -1.6065  H       1  <O>11       0.0673
  31 H10      10.4319    -9.8211    -0.0656  H       1  <O>11       0.0659
  32 H11       9.1262   -10.0388     3.5956  H       1  <O>11       0.3292
  33 H12       6.6722    -9.6617     1.8281  H       1  <O>11       0.0677
  34 H13       6.3298    -9.7007    -1.6377  H       1  <O>11       0.0655
  35 H14       5.1899    -9.0491    -3.6800  H       1  <O>11       0.0637
@<TRIPOS>BOND
     1     1     2    1
     2     2     3    2
     3     2     4   am
     4     4     5    1
     5     5     6   ar
     6     6     7   ar
     7     7     8   ar
     8     8     9    1
     9     9    10    1
    10    10    11   ar
    11    11    12   ar
    12    12    13    1
    13    12    14   ar
    14    14    15   ar
    15    15    16    1
    16    16    17    2
    17    16    18    1
    18    15    19   ar
    19    10    19   ar
    20     8    20   ar
    21    20    21   ar
    22     5    21   ar
    23     1    22    1
    24     1    23    1
    25     1    24    1
    26     4    25    1
    27    13    26    1
    28    13    27    1
    29     6    28    1
    30     7    29    1
    31    11    30    1
    32    14    31    1
    33    18    32    1
    34    19    33    1
    35    20    34    1
    36    21    35    1
@<TRIPOS>MOLECULE
mol42_1_28
 35 36 0 0 0
SMALL
USER_CHARGES
****
VDW energy = -12.33
@<TRIPOS>ATOM
   1 C1        2.7323    -8.7181    -6.6515  C.3     1  <O>11       0.0125
   2 C2        3.4528    -9.1250    -5.4100  C.2     1  <O>11       0.2141
   3 O1        4.6297    -8.8309    -5.2623  O.2     1  <O>11      -0.2758
   4 N1        2.7960    -9.8280    -4.4360  N.am    1  <O>11      -0.2857
   5 C3        3.4640   -10.2050    -3.2840  C.ar    1  <O>11       0.0336
   6 C4        2.8525   -11.0953    -2.3987  C.ar    1  <O>11      -0.0370
   7 C5        3.5172   -11.4714    -1.2257  C.ar    1  <O>11      -0.0176
   8 C6        4.7886   -10.9637    -0.9437  C.ar    1  <O>11       0.1286
   9 O2        5.4416   -11.3250     0.2000  O.3     1  <O>11      -0.4559
  10 C7        6.7549   -10.9213     0.1261  C.ar    1  <O>11       0.1323
  11 C8        7.5864   -11.3994    -0.8998  C.ar    1  <O>11       0.0015
  12 C9        8.9254   -10.9980    -0.9679  C.ar    1  <O>11       0.0302
  13 N2        9.7710   -11.4989    -2.0222  N.pl3   1  <O>11      -0.3578
  14 C10       9.4440   -10.1156    -0.0171  C.ar    1  <O>11      -0.0107
  15 C11       8.6137    -9.6335     1.0022  C.ar    1  <O>11       0.1268
  16 N3        9.1521    -8.7235     1.9803  N.4     1  <O>11       0.0061
  17 O3        8.4557    -8.8994     3.2391  O.2     1  <O>11      -0.1300
  18 O4        8.9779    -7.3599     1.5187  O.2     1  <O>11      -0.3961
  19 C12       7.2770   -10.0271     1.0761  C.ar    1  <O>11       0.0108
  20 C13       5.3914   -10.0775    -1.8438  C.ar    1  <O>11      -0.0176
  21 C14       4.7373    -9.6977    -3.0170  C.ar    1  <O>11      -0.0370
  22 H1        1.7006    -9.0664    -6.6035  H       1  <O>11       0.0323
  23 H2        3.2247    -9.1590    -7.5183  H       1  <O>11       0.0323
  24 H3        2.7453    -7.6318    -6.7397  H       1  <O>11       0.0323
  25 H4        1.8130   -10.0730    -4.5590  H       1  <O>11       0.1548
  26 H5       10.7475   -11.2085    -2.0754  H       1  <O>11       0.1423
  27 H6        9.3926   -12.1432    -2.7161  H       1  <O>11       0.1423
  28 H7        1.9155   -11.4739    -2.6083  H       1  <O>11       0.0637
  29 H8        3.0671   -12.1259    -0.5669  H       1  <O>11       0.0655
  30 H9        7.2084   -12.0496    -1.6065  H       1  <O>11       0.0673
  31 H10      10.4319    -9.8211    -0.0656  H       1  <O>11       0.0659
  32 H11       9.3695    -7.0843     0.7133  H       1  <O>11       0.3292
  33 H12       6.6722    -9.6617     1.8281  H       1  <O>11       0.0677
  34 H13       6.3298    -9.7007    -1.6377  H       1  <O>11       0.0655
  35 H14       5.1899    -9.0491    -3.6800  H       1  <O>11       0.0637
@<TRIPOS>BOND
     1     1     2    1
     2     2     3    2
     3     2     4   am
     4     4     5    1
     5     5     6   ar
     6     6     7   ar
     7     7     8   ar
     8     8     9    1
     9     9    10    1
    10    10    11   ar
    11    11    12   ar
    12    12    13    1
    13    12    14   ar
    14    14    15   ar
    15    15    16    1
    16    16    17    2
    17    16    18    1
    18    15    19   ar
    19    10    19   ar
    20     8    20   ar
    21    20    21   ar
    22     5    21   ar
    23     1    22    1
    24     1    23    1
    25     1    24    1
    26     4    25    1
    27    13    26    1
    28    13    27    1
    29     6    28    1
    30     7    29    1
    31    11    30    1
    32    14    31    1
    33    18    32    1
    34    19    33    1
    35    20    34    1
    36    21    35    1
@<TRIPOS>MOLECULE
mol42_1_29
 35 36 0 0 0
SMALL
USER_CHARGES
****
VDW energy = -10.00
@<TRIPOS>ATOM
   1 C1        2.7323    -8.7181    -6.6515  C.3     1  <O>11       0.0125
   2 C2        3.4528    -9.1250    -5.4100  C.2     1  <O>11       0.2141
   3 O1        4.6297    -8.8309    -5.2623  O.2     1  <O>11      -0.2758
   4 N1        2.7960    -9.8280    -4.4360  N.am    1  <O>11      -0.2857
   5 C3        3.4640   -10.2050    -3.2840  C.ar    1  <O>11       0.0336
   6 C4        3.4657    -9.3470    -2.1822  C.ar    1  <O>11      -0.0370
   7 C5        4.1495    -9.7165    -1.0180  C.ar    1  <O>11      -0.0176
   8 C6        4.8226   -10.9399    -0.9557  C.ar    1  <O>11       0.1286
   9 O2        5.4934   -11.3054     0.1764  O.3     1  <O>11      -0.4559
  10 C7        5.8381   -12.6350     0.0968  C.ar    1  <O>11       0.1323
  11 C8        6.6630   -13.0922    -0.9438  C.ar    1  <O>11       0.0015
  12 C9        7.0037   -14.4468    -1.0312  C.ar    1  <O>11       0.0302
  13 N2        7.8470   -14.9057    -2.1064  N.pl3   1  <O>11      -0.3578
  14 C10       6.5279   -15.3541    -0.0814  C.ar    1  <O>11      -0.0107
  15 C11       5.7107   -14.8978     0.9600  C.ar    1  <O>11       0.1268
  16 N3        5.2226   -15.8363     1.9375  N.4     1  <O>11       0.0061
  17 O3        4.2965   -15.1676     2.8294  O.2     1  <O>11      -0.1300
  18 O4        6.3374   -16.3599     2.7031  O.2     1  <O>11      -0.3961
  19 C12       5.3680   -13.5486     1.0557  C.ar    1  <O>11       0.0108
  20 C13       4.8063   -11.7922    -2.0656  C.ar    1  <O>11      -0.0176
  21 C14       4.1258   -11.4334    -3.2305  C.ar    1  <O>11      -0.0370
  22 H1        1.7006    -9.0664    -6.6035  H       1  <O>11       0.0323
  23 H2        3.2247    -9.1590    -7.5183  H       1  <O>11       0.0323
  24 H3        2.7453    -7.6318    -6.7397  H       1  <O>11       0.0323
  25 H4        1.8130   -10.0730    -4.5590  H       1  <O>11       0.1548
  26 H5        8.0977   -15.8923    -2.1734  H       1  <O>11       0.1423
  27 H6        8.1940   -14.2435    -2.7998  H       1  <O>11       0.1423
  28 H7        2.9655    -8.4453    -2.2260  H       1  <O>11       0.0637
  29 H8        4.1567    -9.0834    -0.2031  H       1  <O>11       0.0655
  30 H9        7.0195   -12.4264    -1.6470  H       1  <O>11       0.0673
  31 H10       6.7770   -16.3534    -0.1469  H       1  <O>11       0.0659
  32 H11       7.0272   -16.8226     2.2696  H       1  <O>11       0.3292
  33 H12       4.7696   -13.2217     1.8303  H       1  <O>11       0.0677
  34 H13       5.3029   -12.6958    -2.0225  H       1  <O>11       0.0655
  35 H14       4.1120   -12.0692    -4.0433  H       1  <O>11       0.0637
@<TRIPOS>BOND
     1     1     2    1
     2     2     3    2
     3     2     4   am
     4     4     5    1
     5     5     6   ar
     6     6     7   ar
     7     7     8   ar
     8     8     9    1
     9     9    10    1
    10    10    11   ar
    11    11    12   ar
    12    12    13    1
    13    12    14   ar
    14    14    15   ar
    15    15    16    1
    16    16    17    2
    17    16    18    1
    18    15    19   ar
    19    10    19   ar
    20     8    20   ar
    21    20    21   ar
    22     5    21   ar
    23     1    22    1
    24     1    23    1
    25     1    24    1
    26     4    25    1
    27    13    26    1
    28    13    27    1
    29     6    28    1
    30     7    29    1
    31    11    30    1
    32    14    31    1
    33    18    32    1
    34    19    33    1
    35    20    34    1
    36    21    35    1
@<TRIPOS>MOLECULE
mol42_1_30
 35 36 0 0 0
SMALL
USER_CHARGES
****
VDW energy = -9.38
@<TRIPOS>ATOM
   1 C1        2.7323    -8.7181    -6.6515  C.3     1  <O>11       0.0125
   2 C2        3.4528    -9.1250    -5.4100  C.2     1  <O>11       0.2141
   3 O1        4.6297    -8.8309    -5.2623  O.2     1  <O>11      -0.2758
   4 N1        2.7960    -9.8280    -4.4360  N.am    1  <O>11      -0.2857
   5 C3        3.4640   -10.2050    -3.2840  C.ar    1  <O>11       0.0336
   6 C4        2.8525   -11.0953    -2.3987  C.ar    1  <O>11      -0.0370
   7 C5        3.5172   -11.4714    -1.2257  C.ar    1  <O>11      -0.0176
   8 C6        4.7886   -10.9637    -0.9437  C.ar    1  <O>11       0.1286
   9 O2        5.4416   -11.3250     0.2000  O.3     1  <O>11      -0.4559
  10 C7        6.7549   -10.9213     0.1261  C.ar    1  <O>11       0.1323
  11 C8        7.5864   -11.3994    -0.8998  C.ar    1  <O>11       0.0015
  12 C9        8.9254   -10.9980    -0.9679  C.ar    1  <O>11       0.0302
  13 N2        9.7710   -11.4989    -2.0222  N.pl3   1  <O>11      -0.3578
  14 C10       9.4440   -10.1156    -0.0171  C.ar    1  <O>11      -0.0107
  15 C11       8.6137    -9.6335     1.0022  C.ar    1  <O>11       0.1268
  16 N3        9.1521    -8.7235     1.9803  N.4     1  <O>11       0.0061
  17 O3        8.1578    -8.4704     3.0040  O.2     1  <O>11      -0.1300
  18 O4        9.5082    -7.4751     1.3340  O.2     1  <O>11      -0.3961
  19 C12       7.2770   -10.0271     1.0761  C.ar    1  <O>11       0.0108
  20 C13       5.3914   -10.0775    -1.8438  C.ar    1  <O>11      -0.0176
  21 C14       4.7373    -9.6977    -3.0170  C.ar    1  <O>11      -0.0370
  22 H1        1.7006    -9.0664    -6.6035  H       1  <O>11       0.0323
  23 H2        3.2247    -9.1590    -7.5183  H       1  <O>11       0.0323
  24 H3        2.7453    -7.6318    -6.7397  H       1  <O>11       0.0323
  25 H4        1.8130   -10.0730    -4.5590  H       1  <O>11       0.1548
  26 H5       10.7475   -11.2085    -2.0754  H       1  <O>11       0.1423
  27 H6        9.3926   -12.1432    -2.7161  H       1  <O>11       0.1423
  28 H7        1.9155   -11.4739    -2.6083  H       1  <O>11       0.0637
  29 H8        3.0671   -12.1259    -0.5669  H       1  <O>11       0.0655
  30 H9        7.2084   -12.0496    -1.6065  H       1  <O>11       0.0673
  31 H10      10.4319    -9.8211    -0.0656  H       1  <O>11       0.0659
  32 H11      10.1433    -7.4688     0.6451  H       1  <O>11       0.3292
  33 H12       6.6722    -9.6617     1.8281  H       1  <O>11       0.0677
  34 H13       6.3298    -9.7007    -1.6377  H       1  <O>11       0.0655
  35 H14       5.1899    -9.0491    -3.6800  H       1  <O>11       0.0637
@<TRIPOS>BOND
     1     1     2    1
     2     2     3    2
     3     2     4   am
     4     4     5    1
     5     5     6   ar
     6     6     7   ar
     7     7     8   ar
     8     8     9    1
     9     9    10    1
    10    10    11   ar
    11    11    12   ar
    12    12    13    1
    13    12    14   ar
    14    14    15   ar
    15    15    16    1
    16    16    17    2
    17    16    18    1
    18    15    19   ar
    19    10    19   ar
    20     8    20   ar
    21    20    21   ar
    22     5    21   ar
    23     1    22    1
    24     1    23    1
    25     1    24    1
    26     4    25    1
    27    13    26    1
    28    13    27    1
    29     6    28    1
    30     7    29    1
    31    11    30    1
    32    14    31    1
    33    18    32    1
    34    19    33    1
    35    20    34    1
    36    21    35    1
