@<TRIPOS>MOLECULE
mol45_1_1
 37 39 0 0 0
SMALL
USER_CHARGES
****
VDW energy = -80.60
@<TRIPOS>ATOM
   1 O1        7.3129    -1.0371    -2.8426  O.2     1  <O>11      -0.2684
   2 C1        6.7640    -0.2742    -2.0616  C.2     1  <O>11       0.2647
   3 N1        5.5270    -0.5800    -1.5610  N.am    1  <O>11      -0.3097
   4 C2        4.8714     0.3320    -0.6284  C.3     1  <O>11       0.0159
   5 C3        3.5196    -0.2376    -0.2294  C.3     1  <O>11      -0.0120
   6 C4        2.8521     0.6905     0.7198  C.ar    1  <O>11      -0.0432
   7 C5        2.0143     1.7131     0.2419  C.ar    1  <O>11      -0.0584
   8 C6        1.3961     2.5940     1.1367  C.ar    1  <O>11      -0.0588
   9 C7        1.6032     2.4616     2.5116  C.ar    1  <O>11      -0.0264
  10 C8        2.4324     1.4390     2.9878  C.ar    1  <O>11       0.1237
  11 F1        2.6327     1.3117     4.3382  F       1  <O>11      -0.2055
  12 C9        3.0520     0.5541     2.1042  C.ar    1  <O>11      -0.0232
  13 C10       7.4210     0.9530    -1.6660  C.ar    1  <O>11       0.1533
  14 N2        8.2115     0.8700    -0.5687  N.ar    1  <O>11      -0.1656
  15 N3        8.7772     1.9952    -0.0736  N.ar    1  <O>11      -0.2420
  16 C11       8.5466     3.1761    -0.6940  C.ar    1  <O>11       0.2725
  17 O2        9.0834     4.3202    -0.0739  O.2     1  <O>11      -0.2658
  18 C12       7.8206     3.3018    -1.8874  C.ar    1  <O>11       0.0501
  19 C13       7.6261     4.5249    -2.5697  C.ar    1  <O>11      -0.0487
  20 C14       6.8657     4.5853    -3.7370  C.ar    1  <O>11      -0.0610
  21 C15       6.2783     3.4299    -4.2409  C.ar    1  <O>11      -0.0611
  22 C16       6.4524     2.2147    -3.5766  C.ar    1  <O>11      -0.0516
  23 C17       7.2277     2.1338    -2.3974  C.ar    1  <O>11       0.0195
  24 H1        5.0631    -1.4439    -1.8399  H       1  <O>11       0.1491
  25 H2        4.7295     1.3017    -1.1071  H       1  <O>11       0.0465
  26 H3        5.4920     0.4527     0.2591  H       1  <O>11       0.0465
  27 H4        3.6610    -1.2064     0.2495  H       1  <O>11       0.0328
  28 H5        2.8985    -0.3573    -1.1167  H       1  <O>11       0.0328
  29 H6        9.3639     1.9538     0.7479  H       1  <O>11       0.1921
  30 H7        1.8545     1.8147    -0.7725  H       1  <O>11       0.0620
  31 H8        0.7847     3.3445     0.7791  H       1  <O>11       0.0619
  32 H9        1.1487     3.1123     3.1712  H       1  <O>11       0.0646
  33 H10       3.6563    -0.1997     2.4670  H       1  <O>11       0.0649
  34 H11       8.0539     5.3872    -2.1976  H       1  <O>11       0.0625
  35 H12       6.7391     5.4853    -4.2259  H       1  <O>11       0.0618
  36 H13       5.7146     3.4709    -5.1044  H       1  <O>11       0.0618
  37 H14       6.0081     1.3622    -3.9521  H       1  <O>11       0.0624
@<TRIPOS>BOND
     1     1     2    2
     2     2     3   am
     3     3     4    1
     4     4     5    1
     5     5     6    1
     6     6     7   ar
     7     7     8   ar
     8     8     9   ar
     9     9    10   ar
    10    10    11    1
    11    10    12   ar
    12     6    12   ar
    13     2    13    1
    14    13    14   ar
    15    14    15   ar
    16    15    16   ar
    17    16    17    2
    18    16    18   ar
    19    18    19   ar
    20    19    20   ar
    21    20    21   ar
    22    21    22   ar
    23    22    23   ar
    24    13    23   ar
    25    18    23   ar
    26     3    24    1
    27     4    25    1
    28     4    26    1
    29     5    27    1
    30     5    28    1
    31    15    29    1
    32     7    30    1
    33     8    31    1
    34     9    32    1
    35    12    33    1
    36    19    34    1
    37    20    35    1
    38    21    36    1
    39    22    37    1
@<TRIPOS>MOLECULE
mol45_1_2
 37 39 0 0 0
SMALL
USER_CHARGES
****
VDW energy = -80.27
@<TRIPOS>ATOM
   1 O1        7.3129    -1.0371    -2.8426  O.2     1  <O>11      -0.2684
   2 C1        6.7640    -0.2742    -2.0616  C.2     1  <O>11       0.2647
   3 N1        5.5270    -0.5800    -1.5610  N.am    1  <O>11      -0.3097
   4 C2        4.8640    -1.8180    -1.9600  C.3     1  <O>11       0.0159
   5 C3        3.5150    -1.9160    -1.2660  C.3     1  <O>11      -0.0120
   6 C4        2.8400    -3.1760    -1.6720  C.ar    1  <O>11      -0.0432
   7 C5        3.0384    -4.3567    -0.9353  C.ar    1  <O>11      -0.0584
   8 C6        2.4115    -5.5453    -1.3263  C.ar    1  <O>11      -0.0588
   9 C7        1.5806    -5.5671    -2.4487  C.ar    1  <O>11      -0.0264
  10 C8        1.3778    -4.3896    -3.1785  C.ar    1  <O>11       0.1237
  11 F1        0.5610    -4.4148    -4.2793  F       1  <O>11      -0.2055
  12 C9        1.9967    -3.1986    -2.7959  C.ar    1  <O>11      -0.0232
  13 C10       7.4210     0.9530    -1.6660  C.ar    1  <O>11       0.1533
  14 N2        8.2115     0.8700    -0.5687  N.ar    1  <O>11      -0.1656
  15 N3        8.7772     1.9952    -0.0736  N.ar    1  <O>11      -0.2420
  16 C11       8.5466     3.1761    -0.6940  C.ar    1  <O>11       0.2725
  17 O2        9.0834     4.3202    -0.0739  O.2     1  <O>11      -0.2658
  18 C12       7.8206     3.3018    -1.8874  C.ar    1  <O>11       0.0501
  19 C13       7.6261     4.5249    -2.5697  C.ar    1  <O>11      -0.0487
  20 C14       6.8657     4.5853    -3.7370  C.ar    1  <O>11      -0.0610
  21 C15       6.2783     3.4299    -4.2409  C.ar    1  <O>11      -0.0611
  22 C16       6.4524     2.2147    -3.5766  C.ar    1  <O>11      -0.0516
  23 C17       7.2277     2.1338    -2.3974  C.ar    1  <O>11       0.0195
  24 H1        5.0690     0.0560    -0.9090  H       1  <O>11       0.1491
  25 H2        5.4820    -2.6700    -1.6740  H       1  <O>11       0.0465
  26 H3        4.7190    -1.8210    -3.0400  H       1  <O>11       0.0465
  27 H4        2.8970    -1.0650    -1.5520  H       1  <O>11       0.0328
  28 H5        3.6600    -1.9140    -0.1860  H       1  <O>11       0.0328
  29 H6        9.3639     1.9538     0.7479  H       1  <O>11       0.1921
  30 H7        3.6486    -4.3470    -0.1032  H       1  <O>11       0.0620
  31 H8        2.5638    -6.4094    -0.7829  H       1  <O>11       0.0619
  32 H9        1.1198    -6.4441    -2.7379  H       1  <O>11       0.0646
  33 H10       1.8351    -2.3354    -3.3380  H       1  <O>11       0.0649
  34 H11       8.0539     5.3872    -2.1976  H       1  <O>11       0.0625
  35 H12       6.7391     5.4853    -4.2259  H       1  <O>11       0.0618
  36 H13       5.7146     3.4709    -5.1044  H       1  <O>11       0.0618
  37 H14       6.0081     1.3622    -3.9521  H       1  <O>11       0.0624
@<TRIPOS>BOND
     1     1     2    2
     2     2     3   am
     3     3     4    1
     4     4     5    1
     5     5     6    1
     6     6     7   ar
     7     7     8   ar
     8     8     9   ar
     9     9    10   ar
    10    10    11    1
    11    10    12   ar
    12     6    12   ar
    13     2    13    1
    14    13    14   ar
    15    14    15   ar
    16    15    16   ar
    17    16    17    2
    18    16    18   ar
    19    18    19   ar
    20    19    20   ar
    21    20    21   ar
    22    21    22   ar
    23    22    23   ar
    24    13    23   ar
    25    18    23   ar
    26     3    24    1
    27     4    25    1
    28     4    26    1
    29     5    27    1
    30     5    28    1
    31    15    29    1
    32     7    30    1
    33     8    31    1
    34     9    32    1
    35    12    33    1
    36    19    34    1
    37    20    35    1
    38    21    36    1
    39    22    37    1
@<TRIPOS>MOLECULE
mol45_1_3
 37 39 0 0 0
SMALL
USER_CHARGES
****
VDW energy = -78.90
@<TRIPOS>ATOM
   1 O1        7.3129    -1.0371    -2.8426  O.2     1  <O>11      -0.2684
   2 C1        6.7640    -0.2742    -2.0616  C.2     1  <O>11       0.2647
   3 N1        5.5270    -0.5800    -1.5610  N.am    1  <O>11      -0.3097
   4 C2        4.8640    -1.8180    -1.9600  C.3     1  <O>11       0.0159
   5 C3        3.5150    -1.9160    -1.2660  C.3     1  <O>11      -0.0120
   6 C4        2.8400    -3.1760    -1.6720  C.ar    1  <O>11      -0.0432
   7 C5        3.4422    -4.4193    -1.4123  C.ar    1  <O>11      -0.0584
   8 C6        2.8108    -5.6046    -1.8063  C.ar    1  <O>11      -0.0588
   9 C7        1.5755    -5.5618    -2.4567  C.ar    1  <O>11      -0.0264
  10 C8        0.9727    -4.3237    -2.7094  C.ar    1  <O>11       0.1237
  11 F1       -0.2401    -4.2858    -3.3475  F       1  <O>11      -0.2055
  12 C9        1.5931    -3.1361    -2.3189  C.ar    1  <O>11      -0.0232
  13 C10       7.4210     0.9530    -1.6660  C.ar    1  <O>11       0.1533
  14 N2        8.2115     0.8700    -0.5687  N.ar    1  <O>11      -0.1656
  15 N3        8.7772     1.9952    -0.0736  N.ar    1  <O>11      -0.2420
  16 C11       8.5466     3.1761    -0.6940  C.ar    1  <O>11       0.2725
  17 O2        9.0834     4.3202    -0.0739  O.2     1  <O>11      -0.2658
  18 C12       7.8206     3.3018    -1.8874  C.ar    1  <O>11       0.0501
  19 C13       7.6261     4.5249    -2.5697  C.ar    1  <O>11      -0.0487
  20 C14       6.8657     4.5853    -3.7370  C.ar    1  <O>11      -0.0610
  21 C15       6.2783     3.4299    -4.2409  C.ar    1  <O>11      -0.0611
  22 C16       6.4524     2.2147    -3.5766  C.ar    1  <O>11      -0.0516
  23 C17       7.2277     2.1338    -2.3974  C.ar    1  <O>11       0.0195
  24 H1        5.0690     0.0560    -0.9090  H       1  <O>11       0.1491
  25 H2        5.4820    -2.6700    -1.6740  H       1  <O>11       0.0465
  26 H3        4.7190    -1.8210    -3.0400  H       1  <O>11       0.0465
  27 H4        2.8970    -1.0650    -1.5520  H       1  <O>11       0.0328
  28 H5        3.6600    -1.9140    -0.1860  H       1  <O>11       0.0328
  29 H6        9.3639     1.9538     0.7479  H       1  <O>11       0.1921
  30 H7        4.3534    -4.4583    -0.9293  H       1  <O>11       0.0620
  31 H8        3.2598    -6.5140    -1.6154  H       1  <O>11       0.0619
  32 H9        1.1109    -6.4359    -2.7488  H       1  <O>11       0.0646
  33 H10       1.1365    -2.2295    -2.5051  H       1  <O>11       0.0649
  34 H11       8.0539     5.3872    -2.1976  H       1  <O>11       0.0625
  35 H12       6.7391     5.4853    -4.2259  H       1  <O>11       0.0618
  36 H13       5.7146     3.4709    -5.1044  H       1  <O>11       0.0618
  37 H14       6.0081     1.3622    -3.9521  H       1  <O>11       0.0624
@<TRIPOS>BOND
     1     1     2    2
     2     2     3   am
     3     3     4    1
     4     4     5    1
     5     5     6    1
     6     6     7   ar
     7     7     8   ar
     8     8     9   ar
     9     9    10   ar
    10    10    11    1
    11    10    12   ar
    12     6    12   ar
    13     2    13    1
    14    13    14   ar
    15    14    15   ar
    16    15    16   ar
    17    16    17    2
    18    16    18   ar
    19    18    19   ar
    20    19    20   ar
    21    20    21   ar
    22    21    22   ar
    23    22    23   ar
    24    13    23   ar
    25    18    23   ar
    26     3    24    1
    27     4    25    1
    28     4    26    1
    29     5    27    1
    30     5    28    1
    31    15    29    1
    32     7    30    1
    33     8    31    1
    34     9    32    1
    35    12    33    1
    36    19    34    1
    37    20    35    1
    38    21    36    1
    39    22    37    1
@<TRIPOS>MOLECULE
mol45_1_4
 37 39 0 0 0
SMALL
USER_CHARGES
****
VDW energy = -78.65
@<TRIPOS>ATOM
   1 O1        7.3129    -1.0371    -2.8426  O.2     1  <O>11      -0.2684
   2 C1        6.7640    -0.2742    -2.0616  C.2     1  <O>11       0.2647
   3 N1        5.5270    -0.5800    -1.5610  N.am    1  <O>11      -0.3097
   4 C2        4.8640    -1.8180    -1.9600  C.3     1  <O>11       0.0159
   5 C3        3.5150    -1.9160    -1.2660  C.3     1  <O>11      -0.0120
   6 C4        2.6730    -0.7550    -1.6548  C.ar    1  <O>11      -0.0432
   7 C5        2.3416    -0.5386    -3.0036  C.ar    1  <O>11      -0.0584
   8 C6        1.5586     0.5623    -3.3694  C.ar    1  <O>11      -0.0588
   9 C7        1.0967     1.4521    -2.3970  C.ar    1  <O>11      -0.0264
  10 C8        1.4213     1.2328    -1.0529  C.ar    1  <O>11       0.1237
  11 F1        0.9655     2.1080    -0.1011  F       1  <O>11      -0.2055
  12 C9        2.1998     0.1370    -0.6773  C.ar    1  <O>11      -0.0232
  13 C10       7.4210     0.9530    -1.6660  C.ar    1  <O>11       0.1533
  14 N2        8.2115     0.8700    -0.5687  N.ar    1  <O>11      -0.1656
  15 N3        8.7772     1.9952    -0.0736  N.ar    1  <O>11      -0.2420
  16 C11       8.5466     3.1761    -0.6940  C.ar    1  <O>11       0.2725
  17 O2        9.0834     4.3202    -0.0739  O.2     1  <O>11      -0.2658
  18 C12       7.8206     3.3018    -1.8874  C.ar    1  <O>11       0.0501
  19 C13       7.6261     4.5249    -2.5697  C.ar    1  <O>11      -0.0487
  20 C14       6.8657     4.5853    -3.7370  C.ar    1  <O>11      -0.0610
  21 C15       6.2783     3.4299    -4.2409  C.ar    1  <O>11      -0.0611
  22 C16       6.4524     2.2147    -3.5766  C.ar    1  <O>11      -0.0516
  23 C17       7.2277     2.1338    -2.3974  C.ar    1  <O>11       0.0195
  24 H1        5.0690     0.0560    -0.9090  H       1  <O>11       0.1491
  25 H2        5.4820    -2.6700    -1.6740  H       1  <O>11       0.0465
  26 H3        4.7190    -1.8210    -3.0400  H       1  <O>11       0.0465
  27 H4        3.6613    -1.9125    -0.1860  H       1  <O>11       0.0328
  28 H5        3.0188    -2.8395    -1.5631  H       1  <O>11       0.0328
  29 H6        9.3639     1.9538     0.7479  H       1  <O>11       0.1921
  30 H7        2.6770    -1.1938    -3.7269  H       1  <O>11       0.0620
  31 H8        1.3216     0.7172    -4.3618  H       1  <O>11       0.0619
  32 H9        0.5208     2.2648    -2.6671  H       1  <O>11       0.0646
  33 H10       2.4277    -0.0180     0.3172  H       1  <O>11       0.0649
  34 H11       8.0539     5.3872    -2.1976  H       1  <O>11       0.0625
  35 H12       6.7391     5.4853    -4.2259  H       1  <O>11       0.0618
  36 H13       5.7146     3.4709    -5.1044  H       1  <O>11       0.0618
  37 H14       6.0081     1.3622    -3.9521  H       1  <O>11       0.0624
@<TRIPOS>BOND
     1     1     2    2
     2     2     3   am
     3     3     4    1
     4     4     5    1
     5     5     6    1
     6     6     7   ar
     7     7     8   ar
     8     8     9   ar
     9     9    10   ar
    10    10    11    1
    11    10    12   ar
    12     6    12   ar
    13     2    13    1
    14    13    14   ar
    15    14    15   ar
    16    15    16   ar
    17    16    17    2
    18    16    18   ar
    19    18    19   ar
    20    19    20   ar
    21    20    21   ar
    22    21    22   ar
    23    22    23   ar
    24    13    23   ar
    25    18    23   ar
    26     3    24    1
    27     4    25    1
    28     4    26    1
    29     5    27    1
    30     5    28    1
    31    15    29    1
    32     7    30    1
    33     8    31    1
    34     9    32    1
    35    12    33    1
    36    19    34    1
    37    20    35    1
    38    21    36    1
    39    22    37    1
@<TRIPOS>MOLECULE
mol45_1_5
 37 39 0 0 0
SMALL
USER_CHARGES
****
VDW energy = -77.88
@<TRIPOS>ATOM
   1 O1        7.3129    -1.0371    -2.8426  O.2     1  <O>11      -0.2684
   2 C1        6.7640    -0.2742    -2.0616  C.2     1  <O>11       0.2647
   3 N1        5.5270    -0.5800    -1.5610  N.am    1  <O>11      -0.3097
   4 C2        4.8640    -1.8180    -1.9600  C.3     1  <O>11       0.0159
   5 C3        3.5150    -1.9160    -1.2660  C.3     1  <O>11      -0.0120
   6 C4        2.6730    -0.7550    -1.6548  C.ar    1  <O>11      -0.0432
   7 C5        1.8335    -0.8321    -2.7797  C.ar    1  <O>11      -0.0584
   8 C6        1.0503     0.2666    -3.1515  C.ar    1  <O>11      -0.0588
   9 C7        1.0932     1.4467    -2.4057  C.ar    1  <O>11      -0.0264
  10 C8        1.9244     1.5211    -1.2815  C.ar    1  <O>11       0.1237
  11 F1        1.9633     2.6809    -0.5515  F       1  <O>11      -0.2055
  12 C9        2.7079     0.4306    -0.9010  C.ar    1  <O>11      -0.0232
  13 C10       7.4210     0.9530    -1.6660  C.ar    1  <O>11       0.1533
  14 N2        8.2115     0.8700    -0.5687  N.ar    1  <O>11      -0.1656
  15 N3        8.7772     1.9952    -0.0736  N.ar    1  <O>11      -0.2420
  16 C11       8.5466     3.1761    -0.6940  C.ar    1  <O>11       0.2725
  17 O2        9.0834     4.3202    -0.0739  O.2     1  <O>11      -0.2658
  18 C12       7.8206     3.3018    -1.8874  C.ar    1  <O>11       0.0501
  19 C13       7.6261     4.5249    -2.5697  C.ar    1  <O>11      -0.0487
  20 C14       6.8657     4.5853    -3.7370  C.ar    1  <O>11      -0.0610
  21 C15       6.2783     3.4299    -4.2409  C.ar    1  <O>11      -0.0611
  22 C16       6.4524     2.2147    -3.5766  C.ar    1  <O>11      -0.0516
  23 C17       7.2277     2.1338    -2.3974  C.ar    1  <O>11       0.0195
  24 H1        5.0690     0.0560    -0.9090  H       1  <O>11       0.1491
  25 H2        5.4820    -2.6700    -1.6740  H       1  <O>11       0.0465
  26 H3        4.7190    -1.8210    -3.0400  H       1  <O>11       0.0465
  27 H4        3.6613    -1.9125    -0.1860  H       1  <O>11       0.0328
  28 H5        3.0188    -2.8395    -1.5631  H       1  <O>11       0.0328
  29 H6        9.3639     1.9538     0.7479  H       1  <O>11       0.1921
  30 H7        1.7946    -1.7020    -3.3334  H       1  <O>11       0.0620
  31 H8        0.4385     0.2045    -3.9802  H       1  <O>11       0.0619
  32 H9        0.5169     2.2573    -2.6810  H       1  <O>11       0.0646
  33 H10       3.3123     0.4948    -0.0670  H       1  <O>11       0.0649
  34 H11       8.0539     5.3872    -2.1976  H       1  <O>11       0.0625
  35 H12       6.7391     5.4853    -4.2259  H       1  <O>11       0.0618
  36 H13       5.7146     3.4709    -5.1044  H       1  <O>11       0.0618
  37 H14       6.0081     1.3622    -3.9521  H       1  <O>11       0.0624
@<TRIPOS>BOND
     1     1     2    2
     2     2     3   am
     3     3     4    1
     4     4     5    1
     5     5     6    1
     6     6     7   ar
     7     7     8   ar
     8     8     9   ar
     9     9    10   ar
    10    10    11    1
    11    10    12   ar
    12     6    12   ar
    13     2    13    1
    14    13    14   ar
    15    14    15   ar
    16    15    16   ar
    17    16    17    2
    18    16    18   ar
    19    18    19   ar
    20    19    20   ar
    21    20    21   ar
    22    21    22   ar
    23    22    23   ar
    24    13    23   ar
    25    18    23   ar
    26     3    24    1
    27     4    25    1
    28     4    26    1
    29     5    27    1
    30     5    28    1
    31    15    29    1
    32     7    30    1
    33     8    31    1
    34     9    32    1
    35    12    33    1
    36    19    34    1
    37    20    35    1
    38    21    36    1
    39    22    37    1
@<TRIPOS>MOLECULE
mol45_1_6
 37 39 0 0 0
SMALL
USER_CHARGES
****
VDW energy = -77.62
@<TRIPOS>ATOM
   1 O1        7.3129    -1.0371    -2.8426  O.2     1  <O>11      -0.2684
   2 C1        6.7640    -0.2742    -2.0616  C.2     1  <O>11       0.2647
   3 N1        5.5270    -0.5800    -1.5610  N.am    1  <O>11      -0.3097
   4 C2        4.8714     0.3320    -0.6284  C.3     1  <O>11       0.0159
   5 C3        3.5196    -0.2376    -0.2294  C.3     1  <O>11      -0.0120
   6 C4        2.6743    -0.4006    -1.4406  C.ar    1  <O>11      -0.0432
   7 C5        2.7006    -1.6032    -2.1679  C.ar    1  <O>11      -0.0584
   8 C6        1.9129    -1.7506    -3.3154  C.ar    1  <O>11      -0.0588
   9 C7        1.0914    -0.7058    -3.7446  C.ar    1  <O>11      -0.0264
  10 C8        1.0603     0.4896    -3.0163  C.ar    1  <O>11       0.1237
  11 F1        0.2522     1.5127    -3.4404  F       1  <O>11      -0.2055
  12 C9        1.8404     0.6460    -1.8696  C.ar    1  <O>11      -0.0232
  13 C10       7.4210     0.9530    -1.6660  C.ar    1  <O>11       0.1533
  14 N2        8.2115     0.8700    -0.5687  N.ar    1  <O>11      -0.1656
  15 N3        8.7772     1.9952    -0.0736  N.ar    1  <O>11      -0.2420
  16 C11       8.5466     3.1761    -0.6940  C.ar    1  <O>11       0.2725
  17 O2        9.0834     4.3202    -0.0739  O.2     1  <O>11      -0.2658
  18 C12       7.8206     3.3018    -1.8874  C.ar    1  <O>11       0.0501
  19 C13       7.6261     4.5249    -2.5697  C.ar    1  <O>11      -0.0487
  20 C14       6.8657     4.5853    -3.7370  C.ar    1  <O>11      -0.0610
  21 C15       6.2783     3.4299    -4.2409  C.ar    1  <O>11      -0.0611
  22 C16       6.4524     2.2147    -3.5766  C.ar    1  <O>11      -0.0516
  23 C17       7.2277     2.1338    -2.3974  C.ar    1  <O>11       0.0195
  24 H1        5.0631    -1.4439    -1.8399  H       1  <O>11       0.1491
  25 H2        4.7295     1.3017    -1.1071  H       1  <O>11       0.0465
  26 H3        5.4920     0.4527     0.2591  H       1  <O>11       0.0465
  27 H4        3.0295     0.4437     0.4660  H       1  <O>11       0.0328
  28 H5        3.6595    -1.2070     0.2483  H       1  <O>11       0.0328
  29 H6        9.3639     1.9538     0.7479  H       1  <O>11       0.1921
  30 H7        3.3029    -2.3804    -1.8546  H       1  <O>11       0.0620
  31 H8        1.9393    -2.6349    -3.8466  H       1  <O>11       0.0619
  32 H9        0.5120    -0.8139    -4.5917  H       1  <O>11       0.0646
  33 H10       1.8048     1.5295    -1.3374  H       1  <O>11       0.0649
  34 H11       8.0539     5.3872    -2.1976  H       1  <O>11       0.0625
  35 H12       6.7391     5.4853    -4.2259  H       1  <O>11       0.0618
  36 H13       5.7146     3.4709    -5.1044  H       1  <O>11       0.0618
  37 H14       6.0081     1.3622    -3.9521  H       1  <O>11       0.0624
@<TRIPOS>BOND
     1     1     2    2
     2     2     3   am
     3     3     4    1
     4     4     5    1
     5     5     6    1
     6     6     7   ar
     7     7     8   ar
     8     8     9   ar
     9     9    10   ar
    10    10    11    1
    11    10    12   ar
    12     6    12   ar
    13     2    13    1
    14    13    14   ar
    15    14    15   ar
    16    15    16   ar
    17    16    17    2
    18    16    18   ar
    19    18    19   ar
    20    19    20   ar
    21    20    21   ar
    22    21    22   ar
    23    22    23   ar
    24    13    23   ar
    25    18    23   ar
    26     3    24    1
    27     4    25    1
    28     4    26    1
    29     5    27    1
    30     5    28    1
    31    15    29    1
    32     7    30    1
    33     8    31    1
    34     9    32    1
    35    12    33    1
    36    19    34    1
    37    20    35    1
    38    21    36    1
    39    22    37    1
@<TRIPOS>MOLECULE
mol45_1_7
 37 39 0 0 0
SMALL
USER_CHARGES
****
VDW energy = -77.48
@<TRIPOS>ATOM
   1 O1        7.3129    -1.0371    -2.8426  O.2     1  <O>11      -0.2684
   2 C1        6.7640    -0.2742    -2.0616  C.2     1  <O>11       0.2647
   3 N1        5.5270    -0.5800    -1.5610  N.am    1  <O>11      -0.3097
   4 C2        4.8640    -1.8180    -1.9600  C.3     1  <O>11       0.0159
   5 C3        3.5150    -1.9160    -1.2660  C.3     1  <O>11      -0.0120
   6 C4        3.7146    -1.9127     0.2065  C.ar    1  <O>11      -0.0432
   7 C5        3.7265    -0.7006     0.9184  C.ar    1  <O>11      -0.0584
   8 C6        3.9268    -0.6985     2.3035  C.ar    1  <O>11      -0.0588
   9 C7        4.1123    -1.9006     2.9901  C.ar    1  <O>11      -0.0264
  10 C8        4.0938    -3.1082     2.2819  C.ar    1  <O>11       0.1237
  11 F1        4.2756    -4.2861     2.9594  F       1  <O>11      -0.2055
  12 C9        3.8929    -3.1214     0.9008  C.ar    1  <O>11      -0.0232
  13 C10       7.4210     0.9530    -1.6660  C.ar    1  <O>11       0.1533
  14 N2        8.2115     0.8700    -0.5687  N.ar    1  <O>11      -0.1656
  15 N3        8.7772     1.9952    -0.0736  N.ar    1  <O>11      -0.2420
  16 C11       8.5466     3.1761    -0.6940  C.ar    1  <O>11       0.2725
  17 O2        9.0834     4.3202    -0.0739  O.2     1  <O>11      -0.2658
  18 C12       7.8206     3.3018    -1.8874  C.ar    1  <O>11       0.0501
  19 C13       7.6261     4.5249    -2.5697  C.ar    1  <O>11      -0.0487
  20 C14       6.8657     4.5853    -3.7370  C.ar    1  <O>11      -0.0610
  21 C15       6.2783     3.4299    -4.2409  C.ar    1  <O>11      -0.0611
  22 C16       6.4524     2.2147    -3.5766  C.ar    1  <O>11      -0.0516
  23 C17       7.2277     2.1338    -2.3974  C.ar    1  <O>11       0.0195
  24 H1        5.0690     0.0560    -0.9090  H       1  <O>11       0.1491
  25 H2        5.4820    -2.6700    -1.6740  H       1  <O>11       0.0465
  26 H3        4.7190    -1.8210    -3.0400  H       1  <O>11       0.0465
  27 H4        3.0204    -2.8407    -1.5629  H       1  <O>11       0.0328
  28 H5        2.8966    -1.0649    -1.5500  H       1  <O>11       0.0328
  29 H6        9.3639     1.9538     0.7479  H       1  <O>11       0.1921
  30 H7        3.5869     0.1909     0.4178  H       1  <O>11       0.0620
  31 H8        3.9375     0.1950     2.8198  H       1  <O>11       0.0619
  32 H9        4.2617    -1.8987     4.0113  H       1  <O>11       0.0646
  33 H10       3.8752    -4.0180     0.3901  H       1  <O>11       0.0649
  34 H11       8.0539     5.3872    -2.1976  H       1  <O>11       0.0625
  35 H12       6.7391     5.4853    -4.2259  H       1  <O>11       0.0618
  36 H13       5.7146     3.4709    -5.1044  H       1  <O>11       0.0618
  37 H14       6.0081     1.3622    -3.9521  H       1  <O>11       0.0624
@<TRIPOS>BOND
     1     1     2    2
     2     2     3   am
     3     3     4    1
     4     4     5    1
     5     5     6    1
     6     6     7   ar
     7     7     8   ar
     8     8     9   ar
     9     9    10   ar
    10    10    11    1
    11    10    12   ar
    12     6    12   ar
    13     2    13    1
    14    13    14   ar
    15    14    15   ar
    16    15    16   ar
    17    16    17    2
    18    16    18   ar
    19    18    19   ar
    20    19    20   ar
    21    20    21   ar
    22    21    22   ar
    23    22    23   ar
    24    13    23   ar
    25    18    23   ar
    26     3    24    1
    27     4    25    1
    28     4    26    1
    29     5    27    1
    30     5    28    1
    31    15    29    1
    32     7    30    1
    33     8    31    1
    34     9    32    1
    35    12    33    1
    36    19    34    1
    37    20    35    1
    38    21    36    1
    39    22    37    1
@<TRIPOS>MOLECULE
mol45_1_8
 37 39 0 0 0
SMALL
USER_CHARGES
****
VDW energy = -77.23
@<TRIPOS>ATOM
   1 O1        7.3129    -1.0371    -2.8426  O.2     1  <O>11      -0.2684
   2 C1        6.7640    -0.2742    -2.0616  C.2     1  <O>11       0.2647
   3 N1        5.5270    -0.5800    -1.5610  N.am    1  <O>11      -0.3097
   4 C2        4.8714     0.3320    -0.6284  C.3     1  <O>11       0.0159
   5 C3        3.5196    -0.2376    -0.2294  C.3     1  <O>11      -0.0120
   6 C4        3.7123    -1.5591     0.4222  C.ar    1  <O>11      -0.0432
   7 C5        3.8932    -1.6448     1.8135  C.ar    1  <O>11      -0.0584
   8 C6        4.0868    -2.8892     2.4240  C.ar    1  <O>11      -0.0588
   9 C7        4.0975    -4.0561     1.6565  C.ar    1  <O>11      -0.0264
  10 C8        3.9106    -3.9712     0.2716  C.ar    1  <O>11       0.1237
  11 F1        3.9211    -5.1189    -0.4783  F       1  <O>11      -0.2055
  12 C9        3.7149    -2.7355    -0.3467  C.ar    1  <O>11      -0.0232
  13 C10       7.4210     0.9530    -1.6660  C.ar    1  <O>11       0.1533
  14 N2        8.2115     0.8700    -0.5687  N.ar    1  <O>11      -0.1656
  15 N3        8.7772     1.9952    -0.0736  N.ar    1  <O>11      -0.2420
  16 C11       8.5466     3.1761    -0.6940  C.ar    1  <O>11       0.2725
  17 O2        9.0834     4.3202    -0.0739  O.2     1  <O>11      -0.2658
  18 C12       7.8206     3.3018    -1.8874  C.ar    1  <O>11       0.0501
  19 C13       7.6261     4.5249    -2.5697  C.ar    1  <O>11      -0.0487
  20 C14       6.8657     4.5853    -3.7370  C.ar    1  <O>11      -0.0610
  21 C15       6.2783     3.4299    -4.2409  C.ar    1  <O>11      -0.0611
  22 C16       6.4524     2.2147    -3.5766  C.ar    1  <O>11      -0.0516
  23 C17       7.2277     2.1338    -2.3974  C.ar    1  <O>11       0.0195
  24 H1        5.0631    -1.4439    -1.8399  H       1  <O>11       0.1491
  25 H2        4.7295     1.3017    -1.1071  H       1  <O>11       0.0465
  26 H3        5.4920     0.4527     0.2591  H       1  <O>11       0.0465
  27 H4        2.8999    -0.3582    -1.1179  H       1  <O>11       0.0328
  28 H5        3.0291     0.4420     0.4670  H       1  <O>11       0.0328
  29 H6        9.3639     1.9538     0.7479  H       1  <O>11       0.1921
  30 H7        3.8834    -0.7869     2.3870  H       1  <O>11       0.0620
  31 H8        4.2222    -2.9449     3.4456  H       1  <O>11       0.0619
  32 H9        4.2420    -4.9735     2.1067  H       1  <O>11       0.0646
  33 H10       3.5721    -2.6856    -1.3676  H       1  <O>11       0.0649
  34 H11       8.0539     5.3872    -2.1976  H       1  <O>11       0.0625
  35 H12       6.7391     5.4853    -4.2259  H       1  <O>11       0.0618
  36 H13       5.7146     3.4709    -5.1044  H       1  <O>11       0.0618
  37 H14       6.0081     1.3622    -3.9521  H       1  <O>11       0.0624
@<TRIPOS>BOND
     1     1     2    2
     2     2     3   am
     3     3     4    1
     4     4     5    1
     5     5     6    1
     6     6     7   ar
     7     7     8   ar
     8     8     9   ar
     9     9    10   ar
    10    10    11    1
    11    10    12   ar
    12     6    12   ar
    13     2    13    1
    14    13    14   ar
    15    14    15   ar
    16    15    16   ar
    17    16    17    2
    18    16    18   ar
    19    18    19   ar
    20    19    20   ar
    21    20    21   ar
    22    21    22   ar
    23    22    23   ar
    24    13    23   ar
    25    18    23   ar
    26     3    24    1
    27     4    25    1
    28     4    26    1
    29     5    27    1
    30     5    28    1
    31    15    29    1
    32     7    30    1
    33     8    31    1
    34     9    32    1
    35    12    33    1
    36    19    34    1
    37    20    35    1
    38    21    36    1
    39    22    37    1
@<TRIPOS>MOLECULE
mol45_1_9
 37 39 0 0 0
SMALL
USER_CHARGES
****
VDW energy = -72.54
@<TRIPOS>ATOM
   1 O1        7.3129    -1.0371    -2.8426  O.2     1  <O>11      -0.2684
   2 C1        6.7640    -0.2742    -2.0616  C.2     1  <O>11       0.2647
   3 N1        5.5270    -0.5800    -1.5610  N.am    1  <O>11      -0.3097
   4 C2        4.8714     0.3320    -0.6284  C.3     1  <O>11       0.0159
   5 C3        3.5196    -0.2376    -0.2294  C.3     1  <O>11      -0.0120
   6 C4        2.8521     0.6905     0.7198  C.ar    1  <O>11      -0.0432
   7 C5        1.5819     0.3835     1.2378  C.ar    1  <O>11      -0.0584
   8 C6        0.9494     1.2647     2.1223  C.ar    1  <O>11      -0.0588
   9 C7        1.5768     2.4538     2.5007  C.ar    1  <O>11      -0.0264
  10 C8        2.8448     2.7563     1.9898  C.ar    1  <O>11       0.1237
  11 F1        3.4578     3.9241     2.3640  F       1  <O>11      -0.2055
  12 C9        3.4850     1.8835     1.1088  C.ar    1  <O>11      -0.0232
  13 C10       7.4210     0.9530    -1.6660  C.ar    1  <O>11       0.1533
  14 N2        8.2115     0.8700    -0.5687  N.ar    1  <O>11      -0.1656
  15 N3        8.7772     1.9952    -0.0736  N.ar    1  <O>11      -0.2420
  16 C11       8.5466     3.1761    -0.6940  C.ar    1  <O>11       0.2725
  17 O2        9.0834     4.3202    -0.0739  O.2     1  <O>11      -0.2658
  18 C12       7.8206     3.3018    -1.8874  C.ar    1  <O>11       0.0501
  19 C13       7.6261     4.5249    -2.5697  C.ar    1  <O>11      -0.0487
  20 C14       6.8657     4.5853    -3.7370  C.ar    1  <O>11      -0.0610
  21 C15       6.2783     3.4299    -4.2409  C.ar    1  <O>11      -0.0611
  22 C16       6.4524     2.2147    -3.5766  C.ar    1  <O>11      -0.0516
  23 C17       7.2277     2.1338    -2.3974  C.ar    1  <O>11       0.0195
  24 H1        5.0631    -1.4439    -1.8399  H       1  <O>11       0.1491
  25 H2        4.7295     1.3017    -1.1071  H       1  <O>11       0.0465
  26 H3        5.4920     0.4527     0.2591  H       1  <O>11       0.0465
  27 H4        3.6610    -1.2064     0.2495  H       1  <O>11       0.0328
  28 H5        2.8985    -0.3573    -1.1167  H       1  <O>11       0.0328
  29 H6        9.3639     1.9538     0.7479  H       1  <O>11       0.1921
  30 H7        1.1140    -0.4948     0.9649  H       1  <O>11       0.0620
  31 H8        0.0155     1.0349     2.4965  H       1  <O>11       0.0619
  32 H9        1.1095     3.1043     3.1515  H       1  <O>11       0.0646
  33 H10       4.4222     2.1140     0.7433  H       1  <O>11       0.0649
  34 H11       8.0539     5.3872    -2.1976  H       1  <O>11       0.0625
  35 H12       6.7391     5.4853    -4.2259  H       1  <O>11       0.0618
  36 H13       5.7146     3.4709    -5.1044  H       1  <O>11       0.0618
  37 H14       6.0081     1.3622    -3.9521  H       1  <O>11       0.0624
@<TRIPOS>BOND
     1     1     2    2
     2     2     3   am
     3     3     4    1
     4     4     5    1
     5     5     6    1
     6     6     7   ar
     7     7     8   ar
     8     8     9   ar
     9     9    10   ar
    10    10    11    1
    11    10    12   ar
    12     6    12   ar
    13     2    13    1
    14    13    14   ar
    15    14    15   ar
    16    15    16   ar
    17    16    17    2
    18    16    18   ar
    19    18    19   ar
    20    19    20   ar
    21    20    21   ar
    22    21    22   ar
    23    22    23   ar
    24    13    23   ar
    25    18    23   ar
    26     3    24    1
    27     4    25    1
    28     4    26    1
    29     5    27    1
    30     5    28    1
    31    15    29    1
    32     7    30    1
    33     8    31    1
    34     9    32    1
    35    12    33    1
    36    19    34    1
    37    20    35    1
    38    21    36    1
    39    22    37    1
@<TRIPOS>MOLECULE
mol45_1_10
 37 39 0 0 0
SMALL
USER_CHARGES
****
VDW energy = -71.89
@<TRIPOS>ATOM
   1 O1        7.3129    -1.0371    -2.8426  O.2     1  <O>11      -0.2684
   2 C1        6.7640    -0.2742    -2.0616  C.2     1  <O>11       0.2647
   3 N1        5.5270    -0.5800    -1.5610  N.am    1  <O>11      -0.3097
   4 C2        4.8640    -1.8180    -1.9600  C.3     1  <O>11       0.0159
   5 C3        3.5150    -1.9160    -1.2660  C.3     1  <O>11      -0.0120
   6 C4        2.8400    -3.1760    -1.6720  C.ar    1  <O>11      -0.0432
   7 C5        1.9968    -3.1990    -2.7965  C.ar    1  <O>11      -0.0584
   8 C6        1.3522    -4.3837    -3.1703  C.ar    1  <O>11      -0.0588
   9 C7        1.5448    -5.5534    -2.4318  C.ar    1  <O>11      -0.0264
  10 C8        2.3899    -5.5320    -1.3157  C.ar    1  <O>11       0.1237
  11 F1        2.5770    -6.6823    -0.5937  F       1  <O>11      -0.2055
  12 C9        3.0389    -4.3563    -0.9357  C.ar    1  <O>11      -0.0232
  13 C10       7.4210     0.9530    -1.6660  C.ar    1  <O>11       0.1533
  14 N2        8.7558     0.8632    -1.4517  N.ar    1  <O>11      -0.1656
  15 N3        9.4244     1.9405    -0.9786  N.ar    1  <O>11      -0.2420
  16 C11       8.7432     3.0857    -0.7401  C.ar    1  <O>11       0.2725
  17 O2        9.4769     4.1367    -0.1580  O.2     1  <O>11      -0.2658
  18 C12       7.3843     3.2620    -1.0391  C.ar    1  <O>11       0.0501
  19 C13       6.6826     4.4742    -0.8454  C.ar    1  <O>11      -0.0487
  20 C14       5.3220     4.5727    -1.1344  C.ar    1  <O>11      -0.0610
  21 C15       4.6340     3.4632    -1.6132  C.ar    1  <O>11      -0.0611
  22 C16       5.3080     2.2556    -1.8031  C.ar    1  <O>11      -0.0516
  23 C17       6.6890     2.1407    -1.5242  C.ar    1  <O>11       0.0195
  24 H1        5.0690     0.0560    -0.9090  H       1  <O>11       0.1491
  25 H2        5.4820    -2.6700    -1.6740  H       1  <O>11       0.0465
  26 H3        4.7190    -1.8210    -3.0400  H       1  <O>11       0.0465
  27 H4        2.8970    -1.0650    -1.5520  H       1  <O>11       0.0328
  28 H5        3.6600    -1.9140    -0.1860  H       1  <O>11       0.0328
  29 H6       10.4186     1.8900    -0.8061  H       1  <O>11       0.1921
  30 H7        1.8525    -2.3391    -3.3485  H       1  <O>11       0.0620
  31 H8        0.7320    -4.3930    -3.9951  H       1  <O>11       0.0619
  32 H9        1.0681    -6.4265    -2.7066  H       1  <O>11       0.0646
  33 H10       3.6642    -4.3539    -0.1147  H       1  <O>11       0.0649
  34 H11       7.1857     5.2997    -0.4842  H       1  <O>11       0.0625
  35 H12       4.8267     5.4670    -0.9932  H       1  <O>11       0.0618
  36 H13       3.6269     3.5324    -1.8279  H       1  <O>11       0.0618
  37 H14       4.7900     1.4341    -2.1523  H       1  <O>11       0.0624
@<TRIPOS>BOND
     1     1     2    2
     2     2     3   am
     3     3     4    1
     4     4     5    1
     5     5     6    1
     6     6     7   ar
     7     7     8   ar
     8     8     9   ar
     9     9    10   ar
    10    10    11    1
    11    10    12   ar
    12     6    12   ar
    13     2    13    1
    14    13    14   ar
    15    14    15   ar
    16    15    16   ar
    17    16    17    2
    18    16    18   ar
    19    18    19   ar
    20    19    20   ar
    21    20    21   ar
    22    21    22   ar
    23    22    23   ar
    24    13    23   ar
    25    18    23   ar
    26     3    24    1
    27     4    25    1
    28     4    26    1
    29     5    27    1
    30     5    28    1
    31    15    29    1
    32     7    30    1
    33     8    31    1
    34     9    32    1
    35    12    33    1
    36    19    34    1
    37    20    35    1
    38    21    36    1
    39    22    37    1
@<TRIPOS>MOLECULE
mol45_1_11
 37 39 0 0 0
SMALL
USER_CHARGES
****
VDW energy = -71.87
@<TRIPOS>ATOM
   1 O1        7.3129    -1.0371    -2.8426  O.2     1  <O>11      -0.2684
   2 C1        6.7640    -0.2742    -2.0616  C.2     1  <O>11       0.2647
   3 N1        5.5270    -0.5800    -1.5610  N.am    1  <O>11      -0.3097
   4 C2        4.8640    -1.8180    -1.9600  C.3     1  <O>11       0.0159
   5 C3        3.5150    -1.9160    -1.2660  C.3     1  <O>11      -0.0120
   6 C4        2.8400    -3.1760    -1.6720  C.ar    1  <O>11      -0.0432
   7 C5        1.5700    -3.4970    -1.1620  C.ar    1  <O>11      -0.0584
   8 C6        0.9410    -4.6900    -1.5360  C.ar    1  <O>11      -0.0588
   9 C7        1.5680    -5.5690    -2.4220  C.ar    1  <O>11      -0.0264
  10 C8        2.8300    -5.2460    -2.9350  C.ar    1  <O>11       0.1237
  11 F1        3.4420    -6.1110    -3.8050  F       1  <O>11      -0.2055
  12 C9        3.4650    -4.0580    -2.5700  C.ar    1  <O>11      -0.0232
  13 C10       7.4210     0.9530    -1.6660  C.ar    1  <O>11       0.1533
  14 N2        8.2115     0.8700    -0.5687  N.ar    1  <O>11      -0.1656
  15 N3        8.7772     1.9952    -0.0736  N.ar    1  <O>11      -0.2420
  16 C11       8.5466     3.1761    -0.6940  C.ar    1  <O>11       0.2725
  17 O2        9.0834     4.3202    -0.0739  O.2     1  <O>11      -0.2658
  18 C12       7.8206     3.3018    -1.8874  C.ar    1  <O>11       0.0501
  19 C13       7.6261     4.5249    -2.5697  C.ar    1  <O>11      -0.0487
  20 C14       6.8657     4.5853    -3.7370  C.ar    1  <O>11      -0.0610
  21 C15       6.2783     3.4299    -4.2409  C.ar    1  <O>11      -0.0611
  22 C16       6.4524     2.2147    -3.5766  C.ar    1  <O>11      -0.0516
  23 C17       7.2277     2.1338    -2.3974  C.ar    1  <O>11       0.0195
  24 H1        5.0690     0.0560    -0.9090  H       1  <O>11       0.1491
  25 H2        5.4820    -2.6700    -1.6740  H       1  <O>11       0.0465
  26 H3        4.7190    -1.8210    -3.0400  H       1  <O>11       0.0465
  27 H4        2.8970    -1.0650    -1.5520  H       1  <O>11       0.0328
  28 H5        3.6600    -1.9140    -0.1860  H       1  <O>11       0.0328
  29 H6        9.3639     1.9538     0.7479  H       1  <O>11       0.1921
  30 H7        1.0997    -2.8506    -0.5094  H       1  <O>11       0.0620
  31 H8        0.0100    -4.9212    -1.1555  H       1  <O>11       0.0619
  32 H9        1.1048    -6.4495    -2.6963  H       1  <O>11       0.0646
  33 H10       4.3926    -3.8275    -2.9592  H       1  <O>11       0.0649
  34 H11       8.0539     5.3872    -2.1976  H       1  <O>11       0.0625
  35 H12       6.7391     5.4853    -4.2259  H       1  <O>11       0.0618
  36 H13       5.7146     3.4709    -5.1044  H       1  <O>11       0.0618
  37 H14       6.0081     1.3622    -3.9521  H       1  <O>11       0.0624
@<TRIPOS>BOND
     1     1     2    2
     2     2     3   am
     3     3     4    1
     4     4     5    1
     5     5     6    1
     6     6     7   ar
     7     7     8   ar
     8     8     9   ar
     9     9    10   ar
    10    10    11    1
    11    10    12   ar
    12     6    12   ar
    13     2    13    1
    14    13    14   ar
    15    14    15   ar
    16    15    16   ar
    17    16    17    2
    18    16    18   ar
    19    18    19   ar
    20    19    20   ar
    21    20    21   ar
    22    21    22   ar
    23    22    23   ar
    24    13    23   ar
    25    18    23   ar
    26     3    24    1
    27     4    25    1
    28     4    26    1
    29     5    27    1
    30     5    28    1
    31    15    29    1
    32     7    30    1
    33     8    31    1
    34     9    32    1
    35    12    33    1
    36    19    34    1
    37    20    35    1
    38    21    36    1
    39    22    37    1
@<TRIPOS>MOLECULE
mol45_1_12
 37 39 0 0 0
SMALL
USER_CHARGES
****
VDW energy = -71.51
@<TRIPOS>ATOM
   1 O1        7.3129    -1.0371    -2.8426  O.2     1  <O>11      -0.2684
   2 C1        6.7640    -0.2742    -2.0616  C.2     1  <O>11       0.2647
   3 N1        5.5270    -0.5800    -1.5610  N.am    1  <O>11      -0.3097
   4 C2        4.8640    -1.8180    -1.9600  C.3     1  <O>11       0.0159
   5 C3        3.5150    -1.9160    -1.2660  C.3     1  <O>11      -0.0120
   6 C4        2.8400    -3.1760    -1.6720  C.ar    1  <O>11      -0.0432
   7 C5        1.5700    -3.4970    -1.1620  C.ar    1  <O>11      -0.0584
   8 C6        0.9410    -4.6900    -1.5360  C.ar    1  <O>11      -0.0588
   9 C7        1.5680    -5.5690    -2.4220  C.ar    1  <O>11      -0.0264
  10 C8        2.8300    -5.2460    -2.9350  C.ar    1  <O>11       0.1237
  11 F1        3.4420    -6.1110    -3.8050  F       1  <O>11      -0.2055
  12 C9        3.4650    -4.0580    -2.5700  C.ar    1  <O>11      -0.0232
  13 C10       7.4210     0.9530    -1.6660  C.ar    1  <O>11       0.1533
  14 N2        7.1648     2.0340    -2.4416  N.ar    1  <O>11      -0.1656
  15 N3        7.8217     3.1925    -2.2006  N.ar    1  <O>11      -0.2420
  16 C11       8.7125     3.2448    -1.1826  C.ar    1  <O>11       0.2725
  17 O2        9.4319     4.4471    -1.0463  O.2     1  <O>11      -0.2658
  18 C12       8.9398     2.1876    -0.2894  C.ar    1  <O>11       0.0501
  19 C13       9.8266     2.2575     0.8097  C.ar    1  <O>11      -0.0487
  20 C14      10.0302     1.1572     1.6418  C.ar    1  <O>11      -0.0610
  21 C15       9.3608    -0.0351     1.3888  C.ar    1  <O>11      -0.0611
  22 C16       8.4876    -0.1257     0.3036  C.ar    1  <O>11      -0.0516
  23 C17       8.2622     0.9826    -0.5444  C.ar    1  <O>11       0.0195
  24 H1        5.0690     0.0560    -0.9090  H       1  <O>11       0.1491
  25 H2        5.4820    -2.6700    -1.6740  H       1  <O>11       0.0465
  26 H3        4.7190    -1.8210    -3.0400  H       1  <O>11       0.0465
  27 H4        2.8970    -1.0650    -1.5520  H       1  <O>11       0.0328
  28 H5        3.6600    -1.9140    -0.1860  H       1  <O>11       0.0328
  29 H6        7.6489     4.0069    -2.7728  H       1  <O>11       0.1921
  30 H7        1.0997    -2.8506    -0.5094  H       1  <O>11       0.0620
  31 H8        0.0100    -4.9212    -1.1555  H       1  <O>11       0.0619
  32 H9        1.1048    -6.4495    -2.6963  H       1  <O>11       0.0646
  33 H10       4.3926    -3.8275    -2.9592  H       1  <O>11       0.0649
  34 H11      10.3315     3.1374     0.9991  H       1  <O>11       0.0625
  35 H12      10.6763     1.2275     2.4434  H       1  <O>11       0.0618
  36 H13       9.5093    -0.8516     2.0024  H       1  <O>11       0.0618
  37 H14       7.9990    -1.0155     0.1174  H       1  <O>11       0.0624
@<TRIPOS>BOND
     1     1     2    2
     2     2     3   am
     3     3     4    1
     4     4     5    1
     5     5     6    1
     6     6     7   ar
     7     7     8   ar
     8     8     9   ar
     9     9    10   ar
    10    10    11    1
    11    10    12   ar
    12     6    12   ar
    13     2    13    1
    14    13    14   ar
    15    14    15   ar
    16    15    16   ar
    17    16    17    2
    18    16    18   ar
    19    18    19   ar
    20    19    20   ar
    21    20    21   ar
    22    21    22   ar
    23    22    23   ar
    24    13    23   ar
    25    18    23   ar
    26     3    24    1
    27     4    25    1
    28     4    26    1
    29     5    27    1
    30     5    28    1
    31    15    29    1
    32     7    30    1
    33     8    31    1
    34     9    32    1
    35    12    33    1
    36    19    34    1
    37    20    35    1
    38    21    36    1
    39    22    37    1
@<TRIPOS>MOLECULE
mol45_1_13
 37 39 0 0 0
SMALL
USER_CHARGES
****
VDW energy = -67.98
@<TRIPOS>ATOM
   1 O1        7.3129    -1.0371    -2.8426  O.2     1  <O>11      -0.2684
   2 C1        6.7640    -0.2742    -2.0616  C.2     1  <O>11       0.2647
   3 N1        5.5270    -0.5800    -1.5610  N.am    1  <O>11      -0.3097
   4 C2        4.8640    -1.8180    -1.9600  C.3     1  <O>11       0.0159
   5 C3        5.8658    -2.9611    -1.9296  C.3     1  <O>11      -0.0120
   6 C4        5.1911    -4.2212    -2.3357  C.ar    1  <O>11      -0.0432
   7 C5        5.1551    -4.6031    -3.6880  C.ar    1  <O>11      -0.0584
   8 C6        4.5087    -5.7842    -4.0702  C.ar    1  <O>11      -0.0588
   9 C7        3.8980    -6.5949    -3.1107  C.ar    1  <O>11      -0.0264
  10 C8        3.9397    -6.2178    -1.7630  C.ar    1  <O>11       0.1237
  11 F1        3.3397    -7.0165    -0.8240  F       1  <O>11      -0.2055
  12 C9        4.5834    -5.0431    -1.3712  C.ar    1  <O>11      -0.0232
  13 C10       7.4210     0.9530    -1.6660  C.ar    1  <O>11       0.1533
  14 N2        8.2115     0.8700    -0.5687  N.ar    1  <O>11      -0.1656
  15 N3        8.7772     1.9952    -0.0736  N.ar    1  <O>11      -0.2420
  16 C11       8.5466     3.1761    -0.6940  C.ar    1  <O>11       0.2725
  17 O2        9.0834     4.3202    -0.0739  O.2     1  <O>11      -0.2658
  18 C12       7.8206     3.3018    -1.8874  C.ar    1  <O>11       0.0501
  19 C13       7.6261     4.5249    -2.5697  C.ar    1  <O>11      -0.0487
  20 C14       6.8657     4.5853    -3.7370  C.ar    1  <O>11      -0.0610
  21 C15       6.2783     3.4299    -4.2409  C.ar    1  <O>11      -0.0611
  22 C16       6.4524     2.2147    -3.5766  C.ar    1  <O>11      -0.0516
  23 C17       7.2277     2.1338    -2.3974  C.ar    1  <O>11       0.0195
  24 H1        5.0690     0.0560    -0.9090  H       1  <O>11       0.1491
  25 H2        4.4681    -1.7092    -2.9705  H       1  <O>11       0.0465
  26 H3        4.0471    -2.0313    -1.2711  H       1  <O>11       0.0465
  27 H4        6.2612    -3.0704    -0.9198  H       1  <O>11       0.0328
  28 H5        6.6822    -2.7483    -2.6192  H       1  <O>11       0.0328
  29 H6        9.3639     1.9538     0.7479  H       1  <O>11       0.1921
  30 H7        5.6070    -4.0104    -4.4018  H       1  <O>11       0.0620
  31 H8        4.4832    -6.0572    -5.0651  H       1  <O>11       0.0619
  32 H9        3.4199    -7.4648    -3.3929  H       1  <O>11       0.0646
  33 H10       4.6129    -4.7782    -0.3742  H       1  <O>11       0.0649
  34 H11       8.0539     5.3872    -2.1976  H       1  <O>11       0.0625
  35 H12       6.7391     5.4853    -4.2259  H       1  <O>11       0.0618
  36 H13       5.7146     3.4709    -5.1044  H       1  <O>11       0.0618
  37 H14       6.0081     1.3622    -3.9521  H       1  <O>11       0.0624
@<TRIPOS>BOND
     1     1     2    2
     2     2     3   am
     3     3     4    1
     4     4     5    1
     5     5     6    1
     6     6     7   ar
     7     7     8   ar
     8     8     9   ar
     9     9    10   ar
    10    10    11    1
    11    10    12   ar
    12     6    12   ar
    13     2    13    1
    14    13    14   ar
    15    14    15   ar
    16    15    16   ar
    17    16    17    2
    18    16    18   ar
    19    18    19   ar
    20    19    20   ar
    21    20    21   ar
    22    21    22   ar
    23    22    23   ar
    24    13    23   ar
    25    18    23   ar
    26     3    24    1
    27     4    25    1
    28     4    26    1
    29     5    27    1
    30     5    28    1
    31    15    29    1
    32     7    30    1
    33     8    31    1
    34     9    32    1
    35    12    33    1
    36    19    34    1
    37    20    35    1
    38    21    36    1
    39    22    37    1
@<TRIPOS>MOLECULE
mol45_1_14
 37 39 0 0 0
SMALL
USER_CHARGES
****
VDW energy = -67.84
@<TRIPOS>ATOM
   1 O1        7.3129    -1.0371    -2.8426  O.2     1  <O>11      -0.2684
   2 C1        6.7640    -0.2742    -2.0616  C.2     1  <O>11       0.2647
   3 N1        5.5270    -0.5800    -1.5610  N.am    1  <O>11      -0.3097
   4 C2        4.8640    -1.8180    -1.9600  C.3     1  <O>11       0.0159
   5 C3        3.5150    -1.9160    -1.2660  C.3     1  <O>11      -0.0120
   6 C4        2.8400    -3.1760    -1.6720  C.ar    1  <O>11      -0.0432
   7 C5        3.0384    -4.3567    -0.9353  C.ar    1  <O>11      -0.0584
   8 C6        2.4115    -5.5453    -1.3263  C.ar    1  <O>11      -0.0588
   9 C7        1.5806    -5.5671    -2.4487  C.ar    1  <O>11      -0.0264
  10 C8        1.3778    -4.3896    -3.1785  C.ar    1  <O>11       0.1237
  11 F1        0.5610    -4.4148    -4.2793  F       1  <O>11      -0.2055
  12 C9        1.9967    -3.1986    -2.7959  C.ar    1  <O>11      -0.0232
  13 C10       7.4210     0.9530    -1.6660  C.ar    1  <O>11       0.1533
  14 N2        8.0873     1.6067    -2.6480  N.ar    1  <O>11      -0.1656
  15 N3        8.8141     2.7052    -2.3372  N.ar    1  <O>11      -0.2420
  16 C11       8.8491     3.1296    -1.0522  C.ar    1  <O>11       0.2725
  17 O2        9.6995     4.2177    -0.7791  O.2     1  <O>11      -0.2658
  18 C12       8.0992     2.5502    -0.0184  C.ar    1  <O>11       0.0501
  19 C13       8.0882     3.0258     1.3132  C.ar    1  <O>11      -0.0487
  20 C14       7.3434     2.3830     2.3014  C.ar    1  <O>11      -0.0610
  21 C15       6.6030     1.2498     1.9828  C.ar    1  <O>11      -0.0611
  22 C16       6.6080     0.7607     0.6755  C.ar    1  <O>11      -0.0516
  23 C17       7.3498     1.4054    -0.3405  C.ar    1  <O>11       0.0195
  24 H1        5.0690     0.0560    -0.9090  H       1  <O>11       0.1491
  25 H2        5.4820    -2.6700    -1.6740  H       1  <O>11       0.0465
  26 H3        4.7190    -1.8210    -3.0400  H       1  <O>11       0.0465
  27 H4        2.8970    -1.0650    -1.5520  H       1  <O>11       0.0328
  28 H5        3.6600    -1.9140    -0.1860  H       1  <O>11       0.0328
  29 H6        9.3231     3.2015    -3.0550  H       1  <O>11       0.1921
  30 H7        3.6486    -4.3470    -0.1032  H       1  <O>11       0.0620
  31 H8        2.5638    -6.4094    -0.7829  H       1  <O>11       0.0619
  32 H9        1.1198    -6.4441    -2.7379  H       1  <O>11       0.0646
  33 H10       1.8351    -2.3354    -3.3380  H       1  <O>11       0.0649
  34 H11       8.6406     3.8625     1.5578  H       1  <O>11       0.0625
  35 H12       7.3416     2.7473     3.2669  H       1  <O>11       0.0618
  36 H13       6.0509     0.7713     2.7117  H       1  <O>11       0.0618
  37 H14       6.0618    -0.0847     0.4472  H       1  <O>11       0.0624
@<TRIPOS>BOND
     1     1     2    2
     2     2     3   am
     3     3     4    1
     4     4     5    1
     5     5     6    1
     6     6     7   ar
     7     7     8   ar
     8     8     9   ar
     9     9    10   ar
    10    10    11    1
    11    10    12   ar
    12     6    12   ar
    13     2    13    1
    14    13    14   ar
    15    14    15   ar
    16    15    16   ar
    17    16    17    2
    18    16    18   ar
    19    18    19   ar
    20    19    20   ar
    21    20    21   ar
    22    21    22   ar
    23    22    23   ar
    24    13    23   ar
    25    18    23   ar
    26     3    24    1
    27     4    25    1
    28     4    26    1
    29     5    27    1
    30     5    28    1
    31    15    29    1
    32     7    30    1
    33     8    31    1
    34     9    32    1
    35    12    33    1
    36    19    34    1
    37    20    35    1
    38    21    36    1
    39    22    37    1
@<TRIPOS>MOLECULE
mol45_1_15
 37 39 0 0 0
SMALL
USER_CHARGES
****
VDW energy = -66.61
@<TRIPOS>ATOM
   1 O1        7.3129    -1.0371    -2.8426  O.2     1  <O>11      -0.2684
   2 C1        6.7640    -0.2742    -2.0616  C.2     1  <O>11       0.2647
   3 N1        5.5270    -0.5800    -1.5610  N.am    1  <O>11      -0.3097
   4 C2        4.8640    -1.8180    -1.9600  C.3     1  <O>11       0.0159
   5 C3        5.8658    -2.9611    -1.9296  C.3     1  <O>11      -0.0120
   6 C4        5.1911    -4.2212    -2.3357  C.ar    1  <O>11      -0.0432
   7 C5        4.5955    -4.3305    -3.6043  C.ar    1  <O>11      -0.0584
   8 C6        3.9499    -5.5139    -3.9804  C.ar    1  <O>11      -0.0588
   9 C7        3.8959    -6.5971    -3.1003  C.ar    1  <O>11      -0.0264
  10 C8        4.4949    -6.4904    -1.8394  C.ar    1  <O>11       0.1237
  11 F1        4.4404    -7.5560    -0.9785  F       1  <O>11      -0.2055
  12 C9        5.1429    -5.3155    -1.4552  C.ar    1  <O>11      -0.0232
  13 C10       7.4210     0.9530    -1.6660  C.ar    1  <O>11       0.1533
  14 N2        8.2115     0.8700    -0.5687  N.ar    1  <O>11      -0.1656
  15 N3        8.7772     1.9952    -0.0736  N.ar    1  <O>11      -0.2420
  16 C11       8.5466     3.1761    -0.6940  C.ar    1  <O>11       0.2725
  17 O2        9.0834     4.3202    -0.0739  O.2     1  <O>11      -0.2658
  18 C12       7.8206     3.3018    -1.8874  C.ar    1  <O>11       0.0501
  19 C13       7.6261     4.5249    -2.5697  C.ar    1  <O>11      -0.0487
  20 C14       6.8657     4.5853    -3.7370  C.ar    1  <O>11      -0.0610
  21 C15       6.2783     3.4299    -4.2409  C.ar    1  <O>11      -0.0611
  22 C16       6.4524     2.2147    -3.5766  C.ar    1  <O>11      -0.0516
  23 C17       7.2277     2.1338    -2.3974  C.ar    1  <O>11       0.0195
  24 H1        5.0690     0.0560    -0.9090  H       1  <O>11       0.1491
  25 H2        4.4681    -1.7092    -2.9705  H       1  <O>11       0.0465
  26 H3        4.0471    -2.0313    -1.2711  H       1  <O>11       0.0465
  27 H4        6.2612    -3.0704    -0.9198  H       1  <O>11       0.0328
  28 H5        6.6822    -2.7483    -2.6192  H       1  <O>11       0.0328
  29 H6        9.3639     1.9538     0.7479  H       1  <O>11       0.1921
  30 H7        4.6344    -3.5352    -4.2606  H       1  <O>11       0.0620
  31 H8        3.5119    -5.5865    -4.9120  H       1  <O>11       0.0619
  32 H9        3.4183    -7.4690    -3.3772  H       1  <O>11       0.0646
  33 H10       5.5861    -5.2504    -0.5255  H       1  <O>11       0.0649
  34 H11       8.0539     5.3872    -2.1976  H       1  <O>11       0.0625
  35 H12       6.7391     5.4853    -4.2259  H       1  <O>11       0.0618
  36 H13       5.7146     3.4709    -5.1044  H       1  <O>11       0.0618
  37 H14       6.0081     1.3622    -3.9521  H       1  <O>11       0.0624
@<TRIPOS>BOND
     1     1     2    2
     2     2     3   am
     3     3     4    1
     4     4     5    1
     5     5     6    1
     6     6     7   ar
     7     7     8   ar
     8     8     9   ar
     9     9    10   ar
    10    10    11    1
    11    10    12   ar
    12     6    12   ar
    13     2    13    1
    14    13    14   ar
    15    14    15   ar
    16    15    16   ar
    17    16    17    2
    18    16    18   ar
    19    18    19   ar
    20    19    20   ar
    21    20    21   ar
    22    21    22   ar
    23    22    23   ar
    24    13    23   ar
    25    18    23   ar
    26     3    24    1
    27     4    25    1
    28     4    26    1
    29     5    27    1
    30     5    28    1
    31    15    29    1
    32     7    30    1
    33     8    31    1
    34     9    32    1
    35    12    33    1
    36    19    34    1
    37    20    35    1
    38    21    36    1
    39    22    37    1
@<TRIPOS>MOLECULE
mol45_1_16
 37 39 0 0 0
SMALL
USER_CHARGES
****
VDW energy = -63.48
@<TRIPOS>ATOM
   1 O1        7.3129    -1.0371    -2.8426  O.2     1  <O>11      -0.2684
   2 C1        6.7640    -0.2742    -2.0616  C.2     1  <O>11       0.2647
   3 N1        5.5270    -0.5800    -1.5610  N.am    1  <O>11      -0.3097
   4 C2        4.8640    -1.8180    -1.9600  C.3     1  <O>11       0.0159
   5 C3        3.5150    -1.9160    -1.2660  C.3     1  <O>11      -0.0120
   6 C4        2.8400    -3.1760    -1.6720  C.ar    1  <O>11      -0.0432
   7 C5        1.5700    -3.4970    -1.1620  C.ar    1  <O>11      -0.0584
   8 C6        0.9410    -4.6900    -1.5360  C.ar    1  <O>11      -0.0588
   9 C7        1.5680    -5.5690    -2.4220  C.ar    1  <O>11      -0.0264
  10 C8        2.8300    -5.2460    -2.9350  C.ar    1  <O>11       0.1237
  11 F1        3.4420    -6.1110    -3.8050  F       1  <O>11      -0.2055
  12 C9        3.4650    -4.0580    -2.5700  C.ar    1  <O>11      -0.0232
  13 C10       7.4210     0.9530    -1.6660  C.ar    1  <O>11       0.1533
  14 N2        8.7558     0.8632    -1.4517  N.ar    1  <O>11      -0.1656
  15 N3        9.4244     1.9405    -0.9786  N.ar    1  <O>11      -0.2420
  16 C11       8.7432     3.0857    -0.7401  C.ar    1  <O>11       0.2725
  17 O2        9.4769     4.1367    -0.1580  O.2     1  <O>11      -0.2658
  18 C12       7.3843     3.2620    -1.0391  C.ar    1  <O>11       0.0501
  19 C13       6.6826     4.4742    -0.8454  C.ar    1  <O>11      -0.0487
  20 C14       5.3220     4.5727    -1.1344  C.ar    1  <O>11      -0.0610
  21 C15       4.6340     3.4632    -1.6132  C.ar    1  <O>11      -0.0611
  22 C16       5.3080     2.2556    -1.8031  C.ar    1  <O>11      -0.0516
  23 C17       6.6890     2.1407    -1.5242  C.ar    1  <O>11       0.0195
  24 H1        5.0690     0.0560    -0.9090  H       1  <O>11       0.1491
  25 H2        5.4820    -2.6700    -1.6740  H       1  <O>11       0.0465
  26 H3        4.7190    -1.8210    -3.0400  H       1  <O>11       0.0465
  27 H4        2.8970    -1.0650    -1.5520  H       1  <O>11       0.0328
  28 H5        3.6600    -1.9140    -0.1860  H       1  <O>11       0.0328
  29 H6       10.4186     1.8900    -0.8061  H       1  <O>11       0.1921
  30 H7        1.0997    -2.8506    -0.5094  H       1  <O>11       0.0620
  31 H8        0.0100    -4.9212    -1.1555  H       1  <O>11       0.0619
  32 H9        1.1048    -6.4495    -2.6963  H       1  <O>11       0.0646
  33 H10       4.3926    -3.8275    -2.9592  H       1  <O>11       0.0649
  34 H11       7.1857     5.2997    -0.4842  H       1  <O>11       0.0625
  35 H12       4.8267     5.4670    -0.9932  H       1  <O>11       0.0618
  36 H13       3.6269     3.5324    -1.8279  H       1  <O>11       0.0618
  37 H14       4.7900     1.4341    -2.1523  H       1  <O>11       0.0624
@<TRIPOS>BOND
     1     1     2    2
     2     2     3   am
     3     3     4    1
     4     4     5    1
     5     5     6    1
     6     6     7   ar
     7     7     8   ar
     8     8     9   ar
     9     9    10   ar
    10    10    11    1
    11    10    12   ar
    12     6    12   ar
    13     2    13    1
    14    13    14   ar
    15    14    15   ar
    16    15    16   ar
    17    16    17    2
    18    16    18   ar
    19    18    19   ar
    20    19    20   ar
    21    20    21   ar
    22    21    22   ar
    23    22    23   ar
    24    13    23   ar
    25    18    23   ar
    26     3    24    1
    27     4    25    1
    28     4    26    1
    29     5    27    1
    30     5    28    1
    31    15    29    1
    32     7    30    1
    33     8    31    1
    34     9    32    1
    35    12    33    1
    36    19    34    1
    37    20    35    1
    38    21    36    1
    39    22    37    1
@<TRIPOS>MOLECULE
mol45_1_17
 37 39 0 0 0
SMALL
USER_CHARGES
****
VDW energy = -62.72
@<TRIPOS>ATOM
   1 O1        7.3129    -1.0371    -2.8426  O.2     1  <O>11      -0.2684
   2 C1        6.7640    -0.2742    -2.0616  C.2     1  <O>11       0.2647
   3 N1        5.5270    -0.5800    -1.5610  N.am    1  <O>11      -0.3097
   4 C2        4.8640    -1.8180    -1.9600  C.3     1  <O>11       0.0159
   5 C3        3.5150    -1.9160    -1.2660  C.3     1  <O>11      -0.0120
   6 C4        3.7146    -1.9127     0.2065  C.ar    1  <O>11      -0.0432
   7 C5        2.6105    -1.9959     1.0726  C.ar    1  <O>11      -0.0584
   8 C6        2.7995    -1.9803     2.4592  C.ar    1  <O>11      -0.0588
   9 C7        4.0865    -1.8864     2.9936  C.ar    1  <O>11      -0.0264
  10 C8        5.1865    -1.8102     2.1308  C.ar    1  <O>11       0.1237
  11 F1        6.4484    -1.7188     2.6591  F       1  <O>11      -0.2055
  12 C9        5.0092    -1.8269     0.7466  C.ar    1  <O>11      -0.0232
  13 C10       7.4210     0.9530    -1.6660  C.ar    1  <O>11       0.1533
  14 N2        8.2115     0.8700    -0.5687  N.ar    1  <O>11      -0.1656
  15 N3        8.7772     1.9952    -0.0736  N.ar    1  <O>11      -0.2420
  16 C11       8.5466     3.1761    -0.6940  C.ar    1  <O>11       0.2725
  17 O2        9.0834     4.3202    -0.0739  O.2     1  <O>11      -0.2658
  18 C12       7.8206     3.3018    -1.8874  C.ar    1  <O>11       0.0501
  19 C13       7.6261     4.5249    -2.5697  C.ar    1  <O>11      -0.0487
  20 C14       6.8657     4.5853    -3.7370  C.ar    1  <O>11      -0.0610
  21 C15       6.2783     3.4299    -4.2409  C.ar    1  <O>11      -0.0611
  22 C16       6.4524     2.2147    -3.5766  C.ar    1  <O>11      -0.0516
  23 C17       7.2277     2.1338    -2.3974  C.ar    1  <O>11       0.0195
  24 H1        5.0690     0.0560    -0.9090  H       1  <O>11       0.1491
  25 H2        5.4820    -2.6700    -1.6740  H       1  <O>11       0.0465
  26 H3        4.7190    -1.8210    -3.0400  H       1  <O>11       0.0465
  27 H4        3.0204    -2.8407    -1.5629  H       1  <O>11       0.0328
  28 H5        2.8966    -1.0649    -1.5500  H       1  <O>11       0.0328
  29 H6        9.3639     1.9538     0.7479  H       1  <O>11       0.1921
  30 H7        1.6571    -2.0686     0.6845  H       1  <O>11       0.0620
  31 H8        1.9845    -2.0385     3.0896  H       1  <O>11       0.0619
  32 H9        4.2256    -1.8732     4.0161  H       1  <O>11       0.0646
  33 H10       5.8279    -1.7763     0.1204  H       1  <O>11       0.0649
  34 H11       8.0539     5.3872    -2.1976  H       1  <O>11       0.0625
  35 H12       6.7391     5.4853    -4.2259  H       1  <O>11       0.0618
  36 H13       5.7146     3.4709    -5.1044  H       1  <O>11       0.0618
  37 H14       6.0081     1.3622    -3.9521  H       1  <O>11       0.0624
@<TRIPOS>BOND
     1     1     2    2
     2     2     3   am
     3     3     4    1
     4     4     5    1
     5     5     6    1
     6     6     7   ar
     7     7     8   ar
     8     8     9   ar
     9     9    10   ar
    10    10    11    1
    11    10    12   ar
    12     6    12   ar
    13     2    13    1
    14    13    14   ar
    15    14    15   ar
    16    15    16   ar
    17    16    17    2
    18    16    18   ar
    19    18    19   ar
    20    19    20   ar
    21    20    21   ar
    22    21    22   ar
    23    22    23   ar
    24    13    23   ar
    25    18    23   ar
    26     3    24    1
    27     4    25    1
    28     4    26    1
    29     5    27    1
    30     5    28    1
    31    15    29    1
    32     7    30    1
    33     8    31    1
    34     9    32    1
    35    12    33    1
    36    19    34    1
    37    20    35    1
    38    21    36    1
    39    22    37    1
@<TRIPOS>MOLECULE
mol45_1_18
 37 39 0 0 0
SMALL
USER_CHARGES
****
VDW energy = -62.63
@<TRIPOS>ATOM
   1 O1        7.3129    -1.0371    -2.8426  O.2     1  <O>11      -0.2684
   2 C1        6.7640    -0.2742    -2.0616  C.2     1  <O>11       0.2647
   3 N1        5.5270    -0.5800    -1.5610  N.am    1  <O>11      -0.3097
   4 C2        4.8640    -1.8180    -1.9600  C.3     1  <O>11       0.0159
   5 C3        3.5150    -1.9160    -1.2660  C.3     1  <O>11      -0.0120
   6 C4        2.6730    -0.7550    -1.6548  C.ar    1  <O>11      -0.0432
   7 C5        1.3720    -0.6178    -1.1402  C.ar    1  <O>11      -0.0584
   8 C6        0.5759     0.4699    -1.5170  C.ar    1  <O>11      -0.0588
   9 C7        1.0690     1.4298    -2.4037  C.ar    1  <O>11      -0.0264
  10 C8        2.3671     1.2965    -2.9109  C.ar    1  <O>11       0.1237
  11 F1        2.8479     2.2412    -3.7805  F       1  <O>11      -0.2055
  12 C9        3.1699     0.2168    -2.5401  C.ar    1  <O>11      -0.0232
  13 C10       7.4210     0.9530    -1.6660  C.ar    1  <O>11       0.1533
  14 N2        8.2115     0.8700    -0.5687  N.ar    1  <O>11      -0.1656
  15 N3        8.7772     1.9952    -0.0736  N.ar    1  <O>11      -0.2420
  16 C11       8.5466     3.1761    -0.6940  C.ar    1  <O>11       0.2725
  17 O2        9.0834     4.3202    -0.0739  O.2     1  <O>11      -0.2658
  18 C12       7.8206     3.3018    -1.8874  C.ar    1  <O>11       0.0501
  19 C13       7.6261     4.5249    -2.5697  C.ar    1  <O>11      -0.0487
  20 C14       6.8657     4.5853    -3.7370  C.ar    1  <O>11      -0.0610
  21 C15       6.2783     3.4299    -4.2409  C.ar    1  <O>11      -0.0611
  22 C16       6.4524     2.2147    -3.5766  C.ar    1  <O>11      -0.0516
  23 C17       7.2277     2.1338    -2.3974  C.ar    1  <O>11       0.0195
  24 H1        5.0690     0.0560    -0.9090  H       1  <O>11       0.1491
  25 H2        5.4820    -2.6700    -1.6740  H       1  <O>11       0.0465
  26 H3        4.7190    -1.8210    -3.0400  H       1  <O>11       0.0465
  27 H4        3.6613    -1.9125    -0.1860  H       1  <O>11       0.0328
  28 H5        3.0188    -2.8395    -1.5631  H       1  <O>11       0.0328
  29 H6        9.3639     1.9538     0.7479  H       1  <O>11       0.1921
  30 H7        1.0026    -1.3217    -0.4823  H       1  <O>11       0.0620
  31 H8       -0.3794     0.5630    -1.1381  H       1  <O>11       0.0619
  32 H9        0.4812     2.2308    -2.6828  H       1  <O>11       0.0646
  33 H10       4.1274     0.1321    -2.9156  H       1  <O>11       0.0649
  34 H11       8.0539     5.3872    -2.1976  H       1  <O>11       0.0625
  35 H12       6.7391     5.4853    -4.2259  H       1  <O>11       0.0618
  36 H13       5.7146     3.4709    -5.1044  H       1  <O>11       0.0618
  37 H14       6.0081     1.3622    -3.9521  H       1  <O>11       0.0624
@<TRIPOS>BOND
     1     1     2    2
     2     2     3   am
     3     3     4    1
     4     4     5    1
     5     5     6    1
     6     6     7   ar
     7     7     8   ar
     8     8     9   ar
     9     9    10   ar
    10    10    11    1
    11    10    12   ar
    12     6    12   ar
    13     2    13    1
    14    13    14   ar
    15    14    15   ar
    16    15    16   ar
    17    16    17    2
    18    16    18   ar
    19    18    19   ar
    20    19    20   ar
    21    20    21   ar
    22    21    22   ar
    23    22    23   ar
    24    13    23   ar
    25    18    23   ar
    26     3    24    1
    27     4    25    1
    28     4    26    1
    29     5    27    1
    30     5    28    1
    31    15    29    1
    32     7    30    1
    33     8    31    1
    34     9    32    1
    35    12    33    1
    36    19    34    1
    37    20    35    1
    38    21    36    1
    39    22    37    1
@<TRIPOS>MOLECULE
mol45_1_19
 37 39 0 0 0
SMALL
USER_CHARGES
****
VDW energy = -62.19
@<TRIPOS>ATOM
   1 O1        7.3129    -1.0371    -2.8426  O.2     1  <O>11      -0.2684
   2 C1        6.7640    -0.2742    -2.0616  C.2     1  <O>11       0.2647
   3 N1        5.5270    -0.5800    -1.5610  N.am    1  <O>11      -0.3097
   4 C2        4.8640    -1.8180    -1.9600  C.3     1  <O>11       0.0159
   5 C3        3.5150    -1.9160    -1.2660  C.3     1  <O>11      -0.0120
   6 C4        2.8400    -3.1760    -1.6720  C.ar    1  <O>11      -0.0432
   7 C5        3.0384    -4.3567    -0.9353  C.ar    1  <O>11      -0.0584
   8 C6        2.4115    -5.5453    -1.3263  C.ar    1  <O>11      -0.0588
   9 C7        1.5806    -5.5671    -2.4487  C.ar    1  <O>11      -0.0264
  10 C8        1.3778    -4.3896    -3.1785  C.ar    1  <O>11       0.1237
  11 F1        0.5610    -4.4148    -4.2793  F       1  <O>11      -0.2055
  12 C9        1.9967    -3.1986    -2.7959  C.ar    1  <O>11      -0.0232
  13 C10       7.4210     0.9530    -1.6660  C.ar    1  <O>11       0.1533
  14 N2        6.7349     1.7341    -0.7971  N.ar    1  <O>11      -0.1656
  15 N3        7.2339     2.9461    -0.4601  N.ar    1  <O>11      -0.2420
  16 C11       8.4130     3.3440    -0.9930  C.ar    1  <O>11       0.2725
  17 O2        8.8280     4.6520    -0.6791  O.2     1  <O>11      -0.2658
  18 C12       9.2101     2.5349    -1.8159  C.ar    1  <O>11       0.0501
  19 C13      10.4691     2.9249    -2.3278  C.ar    1  <O>11      -0.0487
  20 C14      11.1972     2.0828    -3.1677  C.ar    1  <O>11      -0.0610
  21 C15      10.6802     0.8408    -3.5196  C.ar    1  <O>11      -0.0611
  22 C16       9.4351     0.4419    -3.0308  C.ar    1  <O>11      -0.0516
  23 C17       8.6881     1.2789    -2.1709  C.ar    1  <O>11       0.0195
  24 H1        5.0690     0.0560    -0.9090  H       1  <O>11       0.1491
  25 H2        5.4820    -2.6700    -1.6740  H       1  <O>11       0.0465
  26 H3        4.7190    -1.8210    -3.0400  H       1  <O>11       0.0465
  27 H4        2.8970    -1.0650    -1.5520  H       1  <O>11       0.0328
  28 H5        3.6600    -1.9140    -0.1860  H       1  <O>11       0.0328
  29 H6        6.7329     3.5451     0.1808  H       1  <O>11       0.1921
  30 H7        3.6486    -4.3470    -0.1032  H       1  <O>11       0.0620
  31 H8        2.5638    -6.4094    -0.7829  H       1  <O>11       0.0619
  32 H9        1.1198    -6.4441    -2.7379  H       1  <O>11       0.0646
  33 H10       1.8351    -2.3354    -3.3380  H       1  <O>11       0.0649
  34 H11      10.8556     3.8480    -2.0757  H       1  <O>11       0.0625
  35 H12      12.1176     2.3806    -3.5272  H       1  <O>11       0.0618
  36 H13      11.2161     0.2151    -4.1412  H       1  <O>11       0.0618
  37 H14       9.0541    -0.4784    -3.3012  H       1  <O>11       0.0624
@<TRIPOS>BOND
     1     1     2    2
     2     2     3   am
     3     3     4    1
     4     4     5    1
     5     5     6    1
     6     6     7   ar
     7     7     8   ar
     8     8     9   ar
     9     9    10   ar
    10    10    11    1
    11    10    12   ar
    12     6    12   ar
    13     2    13    1
    14    13    14   ar
    15    14    15   ar
    16    15    16   ar
    17    16    17    2
    18    16    18   ar
    19    18    19   ar
    20    19    20   ar
    21    20    21   ar
    22    21    22   ar
    23    22    23   ar
    24    13    23   ar
    25    18    23   ar
    26     3    24    1
    27     4    25    1
    28     4    26    1
    29     5    27    1
    30     5    28    1
    31    15    29    1
    32     7    30    1
    33     8    31    1
    34     9    32    1
    35    12    33    1
    36    19    34    1
    37    20    35    1
    38    21    36    1
    39    22    37    1
@<TRIPOS>MOLECULE
mol45_1_20
 37 39 0 0 0
SMALL
USER_CHARGES
****
VDW energy = -59.94
@<TRIPOS>ATOM
   1 O1        7.3129    -1.0371    -2.8426  O.2     1  <O>11      -0.2684
   2 C1        6.7640    -0.2742    -2.0616  C.2     1  <O>11       0.2647
   3 N1        5.5270    -0.5800    -1.5610  N.am    1  <O>11      -0.3097
   4 C2        4.8640    -1.8180    -1.9600  C.3     1  <O>11       0.0159
   5 C3        5.8658    -2.9611    -1.9296  C.3     1  <O>11      -0.0120
   6 C4        5.1911    -4.2212    -2.3357  C.ar    1  <O>11      -0.0432
   7 C5        5.9115    -5.4273    -2.3868  C.ar    1  <O>11      -0.0584
   8 C6        5.2774    -6.6110    -2.7812  C.ar    1  <O>11      -0.0588
   9 C7        3.9232    -6.6044    -3.1230  C.ar    1  <O>11      -0.0264
  10 C8        3.2043    -5.4043    -3.0657  C.ar    1  <O>11       0.1237
  11 F1        1.8750    -5.4019    -3.4013  F       1  <O>11      -0.2055
  12 C9        3.8266    -4.2188    -2.6718  C.ar    1  <O>11      -0.0232
  13 C10       7.4210     0.9530    -1.6660  C.ar    1  <O>11       0.1533
  14 N2        8.2115     0.8700    -0.5687  N.ar    1  <O>11      -0.1656
  15 N3        8.7772     1.9952    -0.0736  N.ar    1  <O>11      -0.2420
  16 C11       8.5466     3.1761    -0.6940  C.ar    1  <O>11       0.2725
  17 O2        9.0834     4.3202    -0.0739  O.2     1  <O>11      -0.2658
  18 C12       7.8206     3.3018    -1.8874  C.ar    1  <O>11       0.0501
  19 C13       7.6261     4.5249    -2.5697  C.ar    1  <O>11      -0.0487
  20 C14       6.8657     4.5853    -3.7370  C.ar    1  <O>11      -0.0610
  21 C15       6.2783     3.4299    -4.2409  C.ar    1  <O>11      -0.0611
  22 C16       6.4524     2.2147    -3.5766  C.ar    1  <O>11      -0.0516
  23 C17       7.2277     2.1338    -2.3974  C.ar    1  <O>11       0.0195
  24 H1        5.0690     0.0560    -0.9090  H       1  <O>11       0.1491
  25 H2        4.4681    -1.7092    -2.9705  H       1  <O>11       0.0465
  26 H3        4.0471    -2.0313    -1.2711  H       1  <O>11       0.0465
  27 H4        6.2612    -3.0704    -0.9198  H       1  <O>11       0.0328
  28 H5        6.6822    -2.7483    -2.6192  H       1  <O>11       0.0328
  29 H6        9.3639     1.9538     0.7479  H       1  <O>11       0.1921
  30 H7        6.9115    -5.4399    -2.1325  H       1  <O>11       0.0620
  31 H8        5.8127    -7.4924    -2.8196  H       1  <O>11       0.0619
  32 H9        3.4562    -7.4770    -3.4156  H       1  <O>11       0.0646
  33 H10       3.2852    -3.3414    -2.6275  H       1  <O>11       0.0649
  34 H11       8.0539     5.3872    -2.1976  H       1  <O>11       0.0625
  35 H12       6.7391     5.4853    -4.2259  H       1  <O>11       0.0618
  36 H13       5.7146     3.4709    -5.1044  H       1  <O>11       0.0618
  37 H14       6.0081     1.3622    -3.9521  H       1  <O>11       0.0624
@<TRIPOS>BOND
     1     1     2    2
     2     2     3   am
     3     3     4    1
     4     4     5    1
     5     5     6    1
     6     6     7   ar
     7     7     8   ar
     8     8     9   ar
     9     9    10   ar
    10    10    11    1
    11    10    12   ar
    12     6    12   ar
    13     2    13    1
    14    13    14   ar
    15    14    15   ar
    16    15    16   ar
    17    16    17    2
    18    16    18   ar
    19    18    19   ar
    20    19    20   ar
    21    20    21   ar
    22    21    22   ar
    23    22    23   ar
    24    13    23   ar
    25    18    23   ar
    26     3    24    1
    27     4    25    1
    28     4    26    1
    29     5    27    1
    30     5    28    1
    31    15    29    1
    32     7    30    1
    33     8    31    1
    34     9    32    1
    35    12    33    1
    36    19    34    1
    37    20    35    1
    38    21    36    1
    39    22    37    1
@<TRIPOS>MOLECULE
mol45_1_21
 37 39 0 0 0
SMALL
USER_CHARGES
****
VDW energy = -59.75
@<TRIPOS>ATOM
   1 O1        7.3129    -1.0371    -2.8426  O.2     1  <O>11      -0.2684
   2 C1        6.7640    -0.2742    -2.0616  C.2     1  <O>11       0.2647
   3 N1        5.5270    -0.5800    -1.5610  N.am    1  <O>11      -0.3097
   4 C2        4.8640    -1.8180    -1.9600  C.3     1  <O>11       0.0159
   5 C3        3.5150    -1.9160    -1.2660  C.3     1  <O>11      -0.0120
   6 C4        2.6730    -0.7550    -1.6548  C.ar    1  <O>11      -0.0432
   7 C5        1.8335    -0.8321    -2.7797  C.ar    1  <O>11      -0.0584
   8 C6        1.0503     0.2666    -3.1515  C.ar    1  <O>11      -0.0588
   9 C7        1.0932     1.4467    -2.4057  C.ar    1  <O>11      -0.0264
  10 C8        1.9244     1.5211    -1.2815  C.ar    1  <O>11       0.1237
  11 F1        1.9633     2.6809    -0.5515  F       1  <O>11      -0.2055
  12 C9        2.7079     0.4306    -0.9010  C.ar    1  <O>11      -0.0232
  13 C10       7.4210     0.9530    -1.6660  C.ar    1  <O>11       0.1533
  14 N2        6.7349     1.7341    -0.7971  N.ar    1  <O>11      -0.1656
  15 N3        7.2339     2.9461    -0.4601  N.ar    1  <O>11      -0.2420
  16 C11       8.4130     3.3440    -0.9930  C.ar    1  <O>11       0.2725
  17 O2        8.8280     4.6520    -0.6791  O.2     1  <O>11      -0.2658
  18 C12       9.2101     2.5349    -1.8159  C.ar    1  <O>11       0.0501
  19 C13      10.4691     2.9249    -2.3278  C.ar    1  <O>11      -0.0487
  20 C14      11.1972     2.0828    -3.1677  C.ar    1  <O>11      -0.0610
  21 C15      10.6802     0.8408    -3.5196  C.ar    1  <O>11      -0.0611
  22 C16       9.4351     0.4419    -3.0308  C.ar    1  <O>11      -0.0516
  23 C17       8.6881     1.2789    -2.1709  C.ar    1  <O>11       0.0195
  24 H1        5.0690     0.0560    -0.9090  H       1  <O>11       0.1491
  25 H2        5.4820    -2.6700    -1.6740  H       1  <O>11       0.0465
  26 H3        4.7190    -1.8210    -3.0400  H       1  <O>11       0.0465
  27 H4        3.6613    -1.9125    -0.1860  H       1  <O>11       0.0328
  28 H5        3.0188    -2.8395    -1.5631  H       1  <O>11       0.0328
  29 H6        6.7329     3.5451     0.1808  H       1  <O>11       0.1921
  30 H7        1.7946    -1.7020    -3.3334  H       1  <O>11       0.0620
  31 H8        0.4385     0.2045    -3.9802  H       1  <O>11       0.0619
  32 H9        0.5169     2.2573    -2.6810  H       1  <O>11       0.0646
  33 H10       3.3123     0.4948    -0.0670  H       1  <O>11       0.0649
  34 H11      10.8556     3.8480    -2.0757  H       1  <O>11       0.0625
  35 H12      12.1176     2.3806    -3.5272  H       1  <O>11       0.0618
  36 H13      11.2161     0.2151    -4.1412  H       1  <O>11       0.0618
  37 H14       9.0541    -0.4784    -3.3012  H       1  <O>11       0.0624
@<TRIPOS>BOND
     1     1     2    2
     2     2     3   am
     3     3     4    1
     4     4     5    1
     5     5     6    1
     6     6     7   ar
     7     7     8   ar
     8     8     9   ar
     9     9    10   ar
    10    10    11    1
    11    10    12   ar
    12     6    12   ar
    13     2    13    1
    14    13    14   ar
    15    14    15   ar
    16    15    16   ar
    17    16    17    2
    18    16    18   ar
    19    18    19   ar
    20    19    20   ar
    21    20    21   ar
    22    21    22   ar
    23    22    23   ar
    24    13    23   ar
    25    18    23   ar
    26     3    24    1
    27     4    25    1
    28     4    26    1
    29     5    27    1
    30     5    28    1
    31    15    29    1
    32     7    30    1
    33     8    31    1
    34     9    32    1
    35    12    33    1
    36    19    34    1
    37    20    35    1
    38    21    36    1
    39    22    37    1
@<TRIPOS>MOLECULE
mol45_1_22
 37 39 0 0 0
SMALL
USER_CHARGES
****
VDW energy = -59.50
@<TRIPOS>ATOM
   1 O1        7.3129    -1.0371    -2.8426  O.2     1  <O>11      -0.2684
   2 C1        6.7640    -0.2742    -2.0616  C.2     1  <O>11       0.2647
   3 N1        5.5270    -0.5800    -1.5610  N.am    1  <O>11      -0.3097
   4 C2        4.8640    -1.8180    -1.9600  C.3     1  <O>11       0.0159
   5 C3        3.5150    -1.9160    -1.2660  C.3     1  <O>11      -0.0120
   6 C4        3.7146    -1.9127     0.2065  C.ar    1  <O>11      -0.0432
   7 C5        3.7265    -0.7006     0.9184  C.ar    1  <O>11      -0.0584
   8 C6        3.9268    -0.6985     2.3035  C.ar    1  <O>11      -0.0588
   9 C7        4.1123    -1.9006     2.9901  C.ar    1  <O>11      -0.0264
  10 C8        4.0938    -3.1082     2.2819  C.ar    1  <O>11       0.1237
  11 F1        4.2756    -4.2861     2.9594  F       1  <O>11      -0.2055
  12 C9        3.8929    -3.1214     0.9008  C.ar    1  <O>11      -0.0232
  13 C10       7.4210     0.9530    -1.6660  C.ar    1  <O>11       0.1533
  14 N2        6.7349     1.7341    -0.7971  N.ar    1  <O>11      -0.1656
  15 N3        7.2339     2.9461    -0.4601  N.ar    1  <O>11      -0.2420
  16 C11       8.4130     3.3440    -0.9930  C.ar    1  <O>11       0.2725
  17 O2        8.8280     4.6520    -0.6791  O.2     1  <O>11      -0.2658
  18 C12       9.2101     2.5349    -1.8159  C.ar    1  <O>11       0.0501
  19 C13      10.4691     2.9249    -2.3278  C.ar    1  <O>11      -0.0487
  20 C14      11.1972     2.0828    -3.1677  C.ar    1  <O>11      -0.0610
  21 C15      10.6802     0.8408    -3.5196  C.ar    1  <O>11      -0.0611
  22 C16       9.4351     0.4419    -3.0308  C.ar    1  <O>11      -0.0516
  23 C17       8.6881     1.2789    -2.1709  C.ar    1  <O>11       0.0195
  24 H1        5.0690     0.0560    -0.9090  H       1  <O>11       0.1491
  25 H2        5.4820    -2.6700    -1.6740  H       1  <O>11       0.0465
  26 H3        4.7190    -1.8210    -3.0400  H       1  <O>11       0.0465
  27 H4        3.0204    -2.8407    -1.5629  H       1  <O>11       0.0328
  28 H5        2.8966    -1.0649    -1.5500  H       1  <O>11       0.0328
  29 H6        6.7329     3.5451     0.1808  H       1  <O>11       0.1921
  30 H7        3.5869     0.1909     0.4178  H       1  <O>11       0.0620
  31 H8        3.9375     0.1950     2.8198  H       1  <O>11       0.0619
  32 H9        4.2617    -1.8987     4.0113  H       1  <O>11       0.0646
  33 H10       3.8752    -4.0180     0.3901  H       1  <O>11       0.0649
  34 H11      10.8556     3.8480    -2.0757  H       1  <O>11       0.0625
  35 H12      12.1176     2.3806    -3.5272  H       1  <O>11       0.0618
  36 H13      11.2161     0.2151    -4.1412  H       1  <O>11       0.0618
  37 H14       9.0541    -0.4784    -3.3012  H       1  <O>11       0.0624
@<TRIPOS>BOND
     1     1     2    2
     2     2     3   am
     3     3     4    1
     4     4     5    1
     5     5     6    1
     6     6     7   ar
     7     7     8   ar
     8     8     9   ar
     9     9    10   ar
    10    10    11    1
    11    10    12   ar
    12     6    12   ar
    13     2    13    1
    14    13    14   ar
    15    14    15   ar
    16    15    16   ar
    17    16    17    2
    18    16    18   ar
    19    18    19   ar
    20    19    20   ar
    21    20    21   ar
    22    21    22   ar
    23    22    23   ar
    24    13    23   ar
    25    18    23   ar
    26     3    24    1
    27     4    25    1
    28     4    26    1
    29     5    27    1
    30     5    28    1
    31    15    29    1
    32     7    30    1
    33     8    31    1
    34     9    32    1
    35    12    33    1
    36    19    34    1
    37    20    35    1
    38    21    36    1
    39    22    37    1
@<TRIPOS>MOLECULE
mol45_1_23
 37 39 0 0 0
SMALL
USER_CHARGES
****
VDW energy = -53.76
@<TRIPOS>ATOM
   1 O1        7.3129    -1.0371    -2.8426  O.2     1  <O>11      -0.2684
   2 C1        6.7640    -0.2742    -2.0616  C.2     1  <O>11       0.2647
   3 N1        5.5270    -0.5800    -1.5610  N.am    1  <O>11      -0.3097
   4 C2        4.8640    -1.8180    -1.9600  C.3     1  <O>11       0.0159
   5 C3        3.5150    -1.9160    -1.2660  C.3     1  <O>11      -0.0120
   6 C4        2.8400    -3.1760    -1.6720  C.ar    1  <O>11      -0.0432
   7 C5        1.5700    -3.4970    -1.1620  C.ar    1  <O>11      -0.0584
   8 C6        0.9410    -4.6900    -1.5360  C.ar    1  <O>11      -0.0588
   9 C7        1.5680    -5.5690    -2.4220  C.ar    1  <O>11      -0.0264
  10 C8        2.8300    -5.2460    -2.9350  C.ar    1  <O>11       0.1237
  11 F1        3.4420    -6.1110    -3.8050  F       1  <O>11      -0.2055
  12 C9        3.4650    -4.0580    -2.5700  C.ar    1  <O>11      -0.0232
  13 C10       7.4210     0.9530    -1.6660  C.ar    1  <O>11       0.1533
  14 N2        6.7350     1.7340    -0.7970  N.ar    1  <O>11      -0.1656
  15 N3        7.2340     2.9460    -0.4600  N.ar    1  <O>11      -0.2420
  16 C11       8.4130     3.3440    -0.9930  C.ar    1  <O>11       0.2725
  17 O2        8.8280     4.6520    -0.6790  O.2     1  <O>11      -0.2658
  18 C12       9.2100     2.5350    -1.8160  C.ar    1  <O>11       0.0501
  19 C13      10.4690     2.9250    -2.3280  C.ar    1  <O>11      -0.0487
  20 C14      11.1970     2.0830    -3.1680  C.ar    1  <O>11      -0.0610
  21 C15      10.6800     0.8410    -3.5200  C.ar    1  <O>11      -0.0611
  22 C16       9.4350     0.4420    -3.0310  C.ar    1  <O>11      -0.0516
  23 C17       8.6880     1.2790    -2.1710  C.ar    1  <O>11       0.0195
  24 H1        5.0690     0.0560    -0.9090  H       1  <O>11       0.1491
  25 H2        5.4820    -2.6700    -1.6740  H       1  <O>11       0.0465
  26 H3        4.7190    -1.8210    -3.0400  H       1  <O>11       0.0465
  27 H4        2.8970    -1.0650    -1.5520  H       1  <O>11       0.0328
  28 H5        3.6600    -1.9140    -0.1860  H       1  <O>11       0.0328
  29 H6        6.7330     3.5450     0.1810  H       1  <O>11       0.1921
  30 H7        1.0997    -2.8506    -0.5094  H       1  <O>11       0.0620
  31 H8        0.0100    -4.9212    -1.1555  H       1  <O>11       0.0619
  32 H9        1.1048    -6.4495    -2.6963  H       1  <O>11       0.0646
  33 H10       4.3926    -3.8275    -2.9592  H       1  <O>11       0.0649
  34 H11      10.8555     3.8481    -2.0759  H       1  <O>11       0.0625
  35 H12      12.1173     2.3809    -3.5276  H       1  <O>11       0.0618
  36 H13      11.2159     0.2154    -4.1417  H       1  <O>11       0.0618
  37 H14       9.0540    -0.4782    -3.3015  H       1  <O>11       0.0624
@<TRIPOS>BOND
     1     1     2    2
     2     2     3   am
     3     3     4    1
     4     4     5    1
     5     5     6    1
     6     6     7   ar
     7     7     8   ar
     8     8     9   ar
     9     9    10   ar
    10    10    11    1
    11    10    12   ar
    12     6    12   ar
    13     2    13    1
    14    13    14   ar
    15    14    15   ar
    16    15    16   ar
    17    16    17    2
    18    16    18   ar
    19    18    19   ar
    20    19    20   ar
    21    20    21   ar
    22    21    22   ar
    23    22    23   ar
    24    13    23   ar
    25    18    23   ar
    26     3    24    1
    27     4    25    1
    28     4    26    1
    29     5    27    1
    30     5    28    1
    31    15    29    1
    32     7    30    1
    33     8    31    1
    34     9    32    1
    35    12    33    1
    36    19    34    1
    37    20    35    1
    38    21    36    1
    39    22    37    1
@<TRIPOS>MOLECULE
mol45_1_24
 37 39 0 0 0
SMALL
USER_CHARGES
****
VDW energy = -51.39
@<TRIPOS>ATOM
   1 O1        7.3129    -1.0371    -2.8426  O.2     1  <O>11      -0.2684
   2 C1        6.7640    -0.2742    -2.0616  C.2     1  <O>11       0.2647
   3 N1        5.5270    -0.5800    -1.5610  N.am    1  <O>11      -0.3097
   4 C2        4.8640    -1.8180    -1.9600  C.3     1  <O>11       0.0159
   5 C3        5.8658    -2.9611    -1.9296  C.3     1  <O>11      -0.0120
   6 C4        5.1911    -4.2212    -2.3357  C.ar    1  <O>11      -0.0432
   7 C5        5.9113    -5.4274    -2.3860  C.ar    1  <O>11      -0.0584
   8 C6        5.2772    -6.6112    -2.7804  C.ar    1  <O>11      -0.0588
   9 C7        3.9232    -6.6044    -3.1230  C.ar    1  <O>11      -0.0264
  10 C8        3.2045    -5.4042    -3.0665  C.ar    1  <O>11       0.1237
  11 F1        1.8754    -5.4016    -3.4029  F       1  <O>11      -0.2055
  12 C9        3.8268    -4.2187    -2.6726  C.ar    1  <O>11      -0.0232
  13 C10       7.4210     0.9530    -1.6660  C.ar    1  <O>11       0.1533
  14 N2        8.7558     0.8632    -1.4517  N.ar    1  <O>11      -0.1656
  15 N3        9.4244     1.9405    -0.9786  N.ar    1  <O>11      -0.2420
  16 C11       8.7432     3.0857    -0.7401  C.ar    1  <O>11       0.2725
  17 O2        9.4769     4.1367    -0.1580  O.2     1  <O>11      -0.2658
  18 C12       7.3843     3.2620    -1.0391  C.ar    1  <O>11       0.0501
  19 C13       6.6826     4.4742    -0.8454  C.ar    1  <O>11      -0.0487
  20 C14       5.3220     4.5727    -1.1344  C.ar    1  <O>11      -0.0610
  21 C15       4.6340     3.4632    -1.6132  C.ar    1  <O>11      -0.0611
  22 C16       5.3080     2.2556    -1.8031  C.ar    1  <O>11      -0.0516
  23 C17       6.6890     2.1407    -1.5242  C.ar    1  <O>11       0.0195
  24 H1        5.0690     0.0560    -0.9090  H       1  <O>11       0.1491
  25 H2        4.4681    -1.7092    -2.9705  H       1  <O>11       0.0465
  26 H3        4.0471    -2.0313    -1.2711  H       1  <O>11       0.0465
  27 H4        6.2612    -3.0704    -0.9198  H       1  <O>11       0.0328
  28 H5        6.6822    -2.7483    -2.6192  H       1  <O>11       0.0328
  29 H6       10.4186     1.8900    -0.8061  H       1  <O>11       0.1921
  30 H7        6.9112    -5.4402    -2.1312  H       1  <O>11       0.0620
  31 H8        5.8124    -7.4927    -2.8183  H       1  <O>11       0.0619
  32 H9        3.4562    -7.4770    -3.4156  H       1  <O>11       0.0646
  33 H10       3.2855    -3.3411    -2.6288  H       1  <O>11       0.0649
  34 H11       7.1857     5.2997    -0.4842  H       1  <O>11       0.0625
  35 H12       4.8267     5.4670    -0.9932  H       1  <O>11       0.0618
  36 H13       3.6269     3.5324    -1.8279  H       1  <O>11       0.0618
  37 H14       4.7900     1.4341    -2.1523  H       1  <O>11       0.0624
@<TRIPOS>BOND
     1     1     2    2
     2     2     3   am
     3     3     4    1
     4     4     5    1
     5     5     6    1
     6     6     7   ar
     7     7     8   ar
     8     8     9   ar
     9     9    10   ar
    10    10    11    1
    11    10    12   ar
    12     6    12   ar
    13     2    13    1
    14    13    14   ar
    15    14    15   ar
    16    15    16   ar
    17    16    17    2
    18    16    18   ar
    19    18    19   ar
    20    19    20   ar
    21    20    21   ar
    22    21    22   ar
    23    22    23   ar
    24    13    23   ar
    25    18    23   ar
    26     3    24    1
    27     4    25    1
    28     4    26    1
    29     5    27    1
    30     5    28    1
    31    15    29    1
    32     7    30    1
    33     8    31    1
    34     9    32    1
    35    12    33    1
    36    19    34    1
    37    20    35    1
    38    21    36    1
    39    22    37    1
@<TRIPOS>MOLECULE
mol45_1_25
 37 39 0 0 0
SMALL
USER_CHARGES
****
VDW energy = -50.09
@<TRIPOS>ATOM
   1 O1        7.3129    -1.0371    -2.8426  O.2     1  <O>11      -0.2684
   2 C1        6.7640    -0.2742    -2.0616  C.2     1  <O>11       0.2647
   3 N1        5.5270    -0.5800    -1.5610  N.am    1  <O>11      -0.3097
   4 C2        4.8640    -1.8180    -1.9600  C.3     1  <O>11       0.0159
   5 C3        5.8658    -2.9611    -1.9296  C.3     1  <O>11      -0.0120
   6 C4        5.1911    -4.2212    -2.3357  C.ar    1  <O>11      -0.0432
   7 C5        5.1551    -4.6031    -3.6880  C.ar    1  <O>11      -0.0584
   8 C6        4.5087    -5.7842    -4.0702  C.ar    1  <O>11      -0.0588
   9 C7        3.8980    -6.5949    -3.1107  C.ar    1  <O>11      -0.0264
  10 C8        3.9397    -6.2178    -1.7630  C.ar    1  <O>11       0.1237
  11 F1        3.3397    -7.0165    -0.8240  F       1  <O>11      -0.2055
  12 C9        4.5834    -5.0431    -1.3712  C.ar    1  <O>11      -0.0232
  13 C10       7.4210     0.9530    -1.6660  C.ar    1  <O>11       0.1533
  14 N2        6.7349     1.7341    -0.7971  N.ar    1  <O>11      -0.1656
  15 N3        7.2339     2.9461    -0.4601  N.ar    1  <O>11      -0.2420
  16 C11       8.4130     3.3440    -0.9930  C.ar    1  <O>11       0.2725
  17 O2        8.8280     4.6520    -0.6791  O.2     1  <O>11      -0.2658
  18 C12       9.2101     2.5349    -1.8159  C.ar    1  <O>11       0.0501
  19 C13      10.4691     2.9249    -2.3278  C.ar    1  <O>11      -0.0487
  20 C14      11.1972     2.0828    -3.1677  C.ar    1  <O>11      -0.0610
  21 C15      10.6802     0.8408    -3.5196  C.ar    1  <O>11      -0.0611
  22 C16       9.4351     0.4419    -3.0308  C.ar    1  <O>11      -0.0516
  23 C17       8.6881     1.2789    -2.1709  C.ar    1  <O>11       0.0195
  24 H1        5.0690     0.0560    -0.9090  H       1  <O>11       0.1491
  25 H2        4.4681    -1.7092    -2.9705  H       1  <O>11       0.0465
  26 H3        4.0471    -2.0313    -1.2711  H       1  <O>11       0.0465
  27 H4        6.2612    -3.0704    -0.9198  H       1  <O>11       0.0328
  28 H5        6.6822    -2.7483    -2.6192  H       1  <O>11       0.0328
  29 H6        6.7329     3.5451     0.1808  H       1  <O>11       0.1921
  30 H7        5.6070    -4.0104    -4.4018  H       1  <O>11       0.0620
  31 H8        4.4832    -6.0572    -5.0651  H       1  <O>11       0.0619
  32 H9        3.4199    -7.4648    -3.3929  H       1  <O>11       0.0646
  33 H10       4.6129    -4.7782    -0.3742  H       1  <O>11       0.0649
  34 H11      10.8556     3.8480    -2.0757  H       1  <O>11       0.0625
  35 H12      12.1176     2.3806    -3.5272  H       1  <O>11       0.0618
  36 H13      11.2161     0.2151    -4.1412  H       1  <O>11       0.0618
  37 H14       9.0541    -0.4784    -3.3012  H       1  <O>11       0.0624
@<TRIPOS>BOND
     1     1     2    2
     2     2     3   am
     3     3     4    1
     4     4     5    1
     5     5     6    1
     6     6     7   ar
     7     7     8   ar
     8     8     9   ar
     9     9    10   ar
    10    10    11    1
    11    10    12   ar
    12     6    12   ar
    13     2    13    1
    14    13    14   ar
    15    14    15   ar
    16    15    16   ar
    17    16    17    2
    18    16    18   ar
    19    18    19   ar
    20    19    20   ar
    21    20    21   ar
    22    21    22   ar
    23    22    23   ar
    24    13    23   ar
    25    18    23   ar
    26     3    24    1
    27     4    25    1
    28     4    26    1
    29     5    27    1
    30     5    28    1
    31    15    29    1
    32     7    30    1
    33     8    31    1
    34     9    32    1
    35    12    33    1
    36    19    34    1
    37    20    35    1
    38    21    36    1
    39    22    37    1
@<TRIPOS>MOLECULE
mol45_1_26
 37 39 0 0 0
SMALL
USER_CHARGES
****
VDW energy = -47.48
@<TRIPOS>ATOM
   1 O1        7.3129    -1.0371    -2.8426  O.2     1  <O>11      -0.2684
   2 C1        6.7640    -0.2742    -2.0616  C.2     1  <O>11       0.2647
   3 N1        5.5270    -0.5800    -1.5610  N.am    1  <O>11      -0.3097
   4 C2        4.8640    -1.8180    -1.9600  C.3     1  <O>11       0.0159
   5 C3        5.8658    -2.9611    -1.9296  C.3     1  <O>11      -0.0120
   6 C4        5.1911    -4.2212    -2.3357  C.ar    1  <O>11      -0.0432
   7 C5        5.9115    -5.4273    -2.3868  C.ar    1  <O>11      -0.0584
   8 C6        5.2774    -6.6110    -2.7812  C.ar    1  <O>11      -0.0588
   9 C7        3.9232    -6.6044    -3.1230  C.ar    1  <O>11      -0.0264
  10 C8        3.2043    -5.4043    -3.0657  C.ar    1  <O>11       0.1237
  11 F1        1.8750    -5.4019    -3.4013  F       1  <O>11      -0.2055
  12 C9        3.8266    -4.2188    -2.6718  C.ar    1  <O>11      -0.0232
  13 C10       7.4210     0.9530    -1.6660  C.ar    1  <O>11       0.1533
  14 N2        8.0873     1.6067    -2.6480  N.ar    1  <O>11      -0.1656
  15 N3        8.8141     2.7052    -2.3372  N.ar    1  <O>11      -0.2420
  16 C11       8.8491     3.1296    -1.0522  C.ar    1  <O>11       0.2725
  17 O2        9.6995     4.2177    -0.7791  O.2     1  <O>11      -0.2658
  18 C12       8.0992     2.5502    -0.0184  C.ar    1  <O>11       0.0501
  19 C13       8.0882     3.0258     1.3132  C.ar    1  <O>11      -0.0487
  20 C14       7.3434     2.3830     2.3014  C.ar    1  <O>11      -0.0610
  21 C15       6.6030     1.2498     1.9828  C.ar    1  <O>11      -0.0611
  22 C16       6.6080     0.7607     0.6755  C.ar    1  <O>11      -0.0516
  23 C17       7.3498     1.4054    -0.3405  C.ar    1  <O>11       0.0195
  24 H1        5.0690     0.0560    -0.9090  H       1  <O>11       0.1491
  25 H2        4.4681    -1.7092    -2.9705  H       1  <O>11       0.0465
  26 H3        4.0471    -2.0313    -1.2711  H       1  <O>11       0.0465
  27 H4        6.2612    -3.0704    -0.9198  H       1  <O>11       0.0328
  28 H5        6.6822    -2.7483    -2.6192  H       1  <O>11       0.0328
  29 H6        9.3231     3.2015    -3.0550  H       1  <O>11       0.1921
  30 H7        6.9115    -5.4399    -2.1325  H       1  <O>11       0.0620
  31 H8        5.8127    -7.4924    -2.8196  H       1  <O>11       0.0619
  32 H9        3.4562    -7.4770    -3.4156  H       1  <O>11       0.0646
  33 H10       3.2852    -3.3414    -2.6275  H       1  <O>11       0.0649
  34 H11       8.6406     3.8625     1.5578  H       1  <O>11       0.0625
  35 H12       7.3416     2.7473     3.2669  H       1  <O>11       0.0618
  36 H13       6.0509     0.7713     2.7117  H       1  <O>11       0.0618
  37 H14       6.0618    -0.0847     0.4472  H       1  <O>11       0.0624
@<TRIPOS>BOND
     1     1     2    2
     2     2     3   am
     3     3     4    1
     4     4     5    1
     5     5     6    1
     6     6     7   ar
     7     7     8   ar
     8     8     9   ar
     9     9    10   ar
    10    10    11    1
    11    10    12   ar
    12     6    12   ar
    13     2    13    1
    14    13    14   ar
    15    14    15   ar
    16    15    16   ar
    17    16    17    2
    18    16    18   ar
    19    18    19   ar
    20    19    20   ar
    21    20    21   ar
    22    21    22   ar
    23    22    23   ar
    24    13    23   ar
    25    18    23   ar
    26     3    24    1
    27     4    25    1
    28     4    26    1
    29     5    27    1
    30     5    28    1
    31    15    29    1
    32     7    30    1
    33     8    31    1
    34     9    32    1
    35    12    33    1
    36    19    34    1
    37    20    35    1
    38    21    36    1
    39    22    37    1
@<TRIPOS>MOLECULE
mol45_1_27
 37 39 0 0 0
SMALL
USER_CHARGES
****
VDW energy = -43.78
@<TRIPOS>ATOM
   1 O1        7.3129    -1.0371    -2.8426  O.2     1  <O>11      -0.2684
   2 C1        6.7640    -0.2742    -2.0616  C.2     1  <O>11       0.2647
   3 N1        5.5270    -0.5800    -1.5610  N.am    1  <O>11      -0.3097
   4 C2        4.8640    -1.8180    -1.9600  C.3     1  <O>11       0.0159
   5 C3        3.5150    -1.9160    -1.2660  C.3     1  <O>11      -0.0120
   6 C4        3.7146    -1.9127     0.2065  C.ar    1  <O>11      -0.0432
   7 C5        4.3374    -0.8209     0.8358  C.ar    1  <O>11      -0.0584
   8 C6        4.5356    -0.8248     2.2213  C.ar    1  <O>11      -0.0588
   9 C7        4.1125    -1.9114     2.9901  C.ar    1  <O>11      -0.0264
  10 C8        3.4863    -2.9959     2.3640  C.ar    1  <O>11       0.1237
  11 F1        3.0718    -4.0603     3.1221  F       1  <O>11      -0.2055
  12 C9        3.2821    -3.0010     0.9834  C.ar    1  <O>11      -0.0232
  13 C10       7.4210     0.9530    -1.6660  C.ar    1  <O>11       0.1533
  14 N2        8.2115     0.8700    -0.5687  N.ar    1  <O>11      -0.1656
  15 N3        8.7772     1.9952    -0.0736  N.ar    1  <O>11      -0.2420
  16 C11       8.5466     3.1761    -0.6940  C.ar    1  <O>11       0.2725
  17 O2        9.0834     4.3202    -0.0739  O.2     1  <O>11      -0.2658
  18 C12       7.8206     3.3018    -1.8874  C.ar    1  <O>11       0.0501
  19 C13       7.6261     4.5249    -2.5697  C.ar    1  <O>11      -0.0487
  20 C14       6.8657     4.5853    -3.7370  C.ar    1  <O>11      -0.0610
  21 C15       6.2783     3.4299    -4.2409  C.ar    1  <O>11      -0.0611
  22 C16       6.4524     2.2147    -3.5766  C.ar    1  <O>11      -0.0516
  23 C17       7.2277     2.1338    -2.3974  C.ar    1  <O>11       0.0195
  24 H1        5.0690     0.0560    -0.9090  H       1  <O>11       0.1491
  25 H2        5.4820    -2.6700    -1.6740  H       1  <O>11       0.0465
  26 H3        4.7190    -1.8210    -3.0400  H       1  <O>11       0.0465
  27 H4        3.0204    -2.8407    -1.5629  H       1  <O>11       0.0328
  28 H5        2.8966    -1.0649    -1.5500  H       1  <O>11       0.0328
  29 H6        9.3639     1.9538     0.7479  H       1  <O>11       0.1921
  30 H7        4.6496    -0.0134     0.2742  H       1  <O>11       0.0620
  31 H8        4.9963    -0.0215     2.6767  H       1  <O>11       0.0619
  32 H9        4.2603    -1.9150     4.0115  H       1  <O>11       0.0646
  33 H10       2.8140    -3.8032     0.5335  H       1  <O>11       0.0649
  34 H11       8.0539     5.3872    -2.1976  H       1  <O>11       0.0625
  35 H12       6.7391     5.4853    -4.2259  H       1  <O>11       0.0618
  36 H13       5.7146     3.4709    -5.1044  H       1  <O>11       0.0618
  37 H14       6.0081     1.3622    -3.9521  H       1  <O>11       0.0624
@<TRIPOS>BOND
     1     1     2    2
     2     2     3   am
     3     3     4    1
     4     4     5    1
     5     5     6    1
     6     6     7   ar
     7     7     8   ar
     8     8     9   ar
     9     9    10   ar
    10    10    11    1
    11    10    12   ar
    12     6    12   ar
    13     2    13    1
    14    13    14   ar
    15    14    15   ar
    16    15    16   ar
    17    16    17    2
    18    16    18   ar
    19    18    19   ar
    20    19    20   ar
    21    20    21   ar
    22    21    22   ar
    23    22    23   ar
    24    13    23   ar
    25    18    23   ar
    26     3    24    1
    27     4    25    1
    28     4    26    1
    29     5    27    1
    30     5    28    1
    31    15    29    1
    32     7    30    1
    33     8    31    1
    34     9    32    1
    35    12    33    1
    36    19    34    1
    37    20    35    1
    38    21    36    1
    39    22    37    1
@<TRIPOS>MOLECULE
mol45_1_28
 37 39 0 0 0
SMALL
USER_CHARGES
****
VDW energy = -43.54
@<TRIPOS>ATOM
   1 O1        7.3129    -1.0371    -2.8426  O.2     1  <O>11      -0.2684
   2 C1        6.7640    -0.2742    -2.0616  C.2     1  <O>11       0.2647
   3 N1        5.5270    -0.5800    -1.5610  N.am    1  <O>11      -0.3097
   4 C2        4.8714     0.3320    -0.6284  C.3     1  <O>11       0.0159
   5 C3        3.5196    -0.2376    -0.2294  C.3     1  <O>11      -0.0120
   6 C4        2.6743    -0.4006    -1.4406  C.ar    1  <O>11      -0.0432
   7 C5        3.0932    -1.2349    -2.4915  C.ar    1  <O>11      -0.0584
   8 C6        2.3015    -1.3777    -3.6368  C.ar    1  <O>11      -0.0588
   9 C7        1.0872    -0.6959    -3.7430  C.ar    1  <O>11      -0.0264
  10 C8        0.6669     0.1299    -2.6934  C.ar    1  <O>11       0.1237
  11 F1       -0.5260     0.7969    -2.8010  F       1  <O>11      -0.2055
  12 C9        1.4479     0.2776    -1.5462  C.ar    1  <O>11      -0.0232
  13 C10       7.4210     0.9530    -1.6660  C.ar    1  <O>11       0.1533
  14 N2        8.2115     0.8700    -0.5687  N.ar    1  <O>11      -0.1656
  15 N3        8.7772     1.9952    -0.0736  N.ar    1  <O>11      -0.2420
  16 C11       8.5466     3.1761    -0.6940  C.ar    1  <O>11       0.2725
  17 O2        9.0834     4.3202    -0.0739  O.2     1  <O>11      -0.2658
  18 C12       7.8206     3.3018    -1.8874  C.ar    1  <O>11       0.0501
  19 C13       7.6261     4.5249    -2.5697  C.ar    1  <O>11      -0.0487
  20 C14       6.8657     4.5853    -3.7370  C.ar    1  <O>11      -0.0610
  21 C15       6.2783     3.4299    -4.2409  C.ar    1  <O>11      -0.0611
  22 C16       6.4524     2.2147    -3.5766  C.ar    1  <O>11      -0.0516
  23 C17       7.2277     2.1338    -2.3974  C.ar    1  <O>11       0.0195
  24 H1        5.0631    -1.4439    -1.8399  H       1  <O>11       0.1491
  25 H2        4.7295     1.3017    -1.1071  H       1  <O>11       0.0465
  26 H3        5.4920     0.4527     0.2591  H       1  <O>11       0.0465
  27 H4        3.0295     0.4437     0.4660  H       1  <O>11       0.0328
  28 H5        3.6595    -1.2070     0.2483  H       1  <O>11       0.0328
  29 H6        9.3639     1.9538     0.7479  H       1  <O>11       0.1921
  30 H7        3.9878    -1.7440    -2.4183  H       1  <O>11       0.0620
  31 H8        2.6164    -1.9893    -4.4060  H       1  <O>11       0.0619
  32 H9        0.5044    -0.7999    -4.5883  H       1  <O>11       0.0646
  33 H10       1.1252     0.8843    -0.7763  H       1  <O>11       0.0649
  34 H11       8.0539     5.3872    -2.1976  H       1  <O>11       0.0625
  35 H12       6.7391     5.4853    -4.2259  H       1  <O>11       0.0618
  36 H13       5.7146     3.4709    -5.1044  H       1  <O>11       0.0618
  37 H14       6.0081     1.3622    -3.9521  H       1  <O>11       0.0624
@<TRIPOS>BOND
     1     1     2    2
     2     2     3   am
     3     3     4    1
     4     4     5    1
     5     5     6    1
     6     6     7   ar
     7     7     8   ar
     8     8     9   ar
     9     9    10   ar
    10    10    11    1
    11    10    12   ar
    12     6    12   ar
    13     2    13    1
    14    13    14   ar
    15    14    15   ar
    16    15    16   ar
    17    16    17    2
    18    16    18   ar
    19    18    19   ar
    20    19    20   ar
    21    20    21   ar
    22    21    22   ar
    23    22    23   ar
    24    13    23   ar
    25    18    23   ar
    26     3    24    1
    27     4    25    1
    28     4    26    1
    29     5    27    1
    30     5    28    1
    31    15    29    1
    32     7    30    1
    33     8    31    1
    34     9    32    1
    35    12    33    1
    36    19    34    1
    37    20    35    1
    38    21    36    1
    39    22    37    1
@<TRIPOS>MOLECULE
mol45_1_29
 37 39 0 0 0
SMALL
USER_CHARGES
****
VDW energy = -42.38
@<TRIPOS>ATOM
   1 O1        7.3129    -1.0371    -2.8426  O.2     1  <O>11      -0.2684
   2 C1        6.7640    -0.2742    -2.0616  C.2     1  <O>11       0.2647
   3 N1        5.5270    -0.5800    -1.5610  N.am    1  <O>11      -0.3097
   4 C2        4.8714     0.3320    -0.6284  C.3     1  <O>11       0.0159
   5 C3        3.5196    -0.2376    -0.2294  C.3     1  <O>11      -0.0120
   6 C4        2.8521     0.6905     0.7198  C.ar    1  <O>11      -0.0432
   7 C5        2.0143     1.7131     0.2419  C.ar    1  <O>11      -0.0584
   8 C6        1.3961     2.5940     1.1367  C.ar    1  <O>11      -0.0588
   9 C7        1.6032     2.4616     2.5116  C.ar    1  <O>11      -0.0264
  10 C8        2.4324     1.4390     2.9878  C.ar    1  <O>11       0.1237
  11 F1        2.6327     1.3117     4.3382  F       1  <O>11      -0.2055
  12 C9        3.0520     0.5541     2.1042  C.ar    1  <O>11      -0.0232
  13 C10       7.4210     0.9530    -1.6660  C.ar    1  <O>11       0.1533
  14 N2        6.7349     1.7341    -0.7971  N.ar    1  <O>11      -0.1656
  15 N3        7.2339     2.9461    -0.4601  N.ar    1  <O>11      -0.2420
  16 C11       8.4130     3.3440    -0.9930  C.ar    1  <O>11       0.2725
  17 O2        8.8280     4.6520    -0.6791  O.2     1  <O>11      -0.2658
  18 C12       9.2101     2.5349    -1.8159  C.ar    1  <O>11       0.0501
  19 C13      10.4691     2.9249    -2.3278  C.ar    1  <O>11      -0.0487
  20 C14      11.1972     2.0828    -3.1677  C.ar    1  <O>11      -0.0610
  21 C15      10.6802     0.8408    -3.5196  C.ar    1  <O>11      -0.0611
  22 C16       9.4351     0.4419    -3.0308  C.ar    1  <O>11      -0.0516
  23 C17       8.6881     1.2789    -2.1709  C.ar    1  <O>11       0.0195
  24 H1        5.0631    -1.4439    -1.8399  H       1  <O>11       0.1491
  25 H2        4.7295     1.3017    -1.1071  H       1  <O>11       0.0465
  26 H3        5.4920     0.4527     0.2591  H       1  <O>11       0.0465
  27 H4        3.6610    -1.2064     0.2495  H       1  <O>11       0.0328
  28 H5        2.8985    -0.3573    -1.1167  H       1  <O>11       0.0328
  29 H6        6.7329     3.5451     0.1808  H       1  <O>11       0.1921
  30 H7        1.8545     1.8147    -0.7725  H       1  <O>11       0.0620
  31 H8        0.7847     3.3445     0.7791  H       1  <O>11       0.0619
  32 H9        1.1487     3.1123     3.1712  H       1  <O>11       0.0646
  33 H10       3.6563    -0.1997     2.4670  H       1  <O>11       0.0649
  34 H11      10.8556     3.8480    -2.0757  H       1  <O>11       0.0625
  35 H12      12.1176     2.3806    -3.5272  H       1  <O>11       0.0618
  36 H13      11.2161     0.2151    -4.1412  H       1  <O>11       0.0618
  37 H14       9.0541    -0.4784    -3.3012  H       1  <O>11       0.0624
@<TRIPOS>BOND
     1     1     2    2
     2     2     3   am
     3     3     4    1
     4     4     5    1
     5     5     6    1
     6     6     7   ar
     7     7     8   ar
     8     8     9   ar
     9     9    10   ar
    10    10    11    1
    11    10    12   ar
    12     6    12   ar
    13     2    13    1
    14    13    14   ar
    15    14    15   ar
    16    15    16   ar
    17    16    17    2
    18    16    18   ar
    19    18    19   ar
    20    19    20   ar
    21    20    21   ar
    22    21    22   ar
    23    22    23   ar
    24    13    23   ar
    25    18    23   ar
    26     3    24    1
    27     4    25    1
    28     4    26    1
    29     5    27    1
    30     5    28    1
    31    15    29    1
    32     7    30    1
    33     8    31    1
    34     9    32    1
    35    12    33    1
    36    19    34    1
    37    20    35    1
    38    21    36    1
    39    22    37    1
@<TRIPOS>MOLECULE
mol45_1_30
 37 39 0 0 0
SMALL
USER_CHARGES
****
VDW energy = -34.70
@<TRIPOS>ATOM
   1 O1        7.3129    -1.0371    -2.8426  O.2     1  <O>11      -0.2684
   2 C1        6.7640    -0.2742    -2.0616  C.2     1  <O>11       0.2647
   3 N1        5.5270    -0.5800    -1.5610  N.am    1  <O>11      -0.3097
   4 C2        4.8714     0.3320    -0.6284  C.3     1  <O>11       0.0159
   5 C3        3.5196    -0.2376    -0.2294  C.3     1  <O>11      -0.0120
   6 C4        2.8521     0.6905     0.7198  C.ar    1  <O>11      -0.0432
   7 C5        1.5819     0.3835     1.2378  C.ar    1  <O>11      -0.0584
   8 C6        0.9494     1.2647     2.1223  C.ar    1  <O>11      -0.0588
   9 C7        1.5768     2.4538     2.5007  C.ar    1  <O>11      -0.0264
  10 C8        2.8448     2.7563     1.9898  C.ar    1  <O>11       0.1237
  11 F1        3.4578     3.9241     2.3640  F       1  <O>11      -0.2055
  12 C9        3.4850     1.8835     1.1088  C.ar    1  <O>11      -0.0232
  13 C10       7.4210     0.9530    -1.6660  C.ar    1  <O>11       0.1533
  14 N2        6.7350     1.7340    -0.7970  N.ar    1  <O>11      -0.1656
  15 N3        7.2340     2.9460    -0.4600  N.ar    1  <O>11      -0.2420
  16 C11       8.4130     3.3440    -0.9930  C.ar    1  <O>11       0.2725
  17 O2        8.8280     4.6520    -0.6790  O.2     1  <O>11      -0.2658
  18 C12       9.2100     2.5350    -1.8160  C.ar    1  <O>11       0.0501
  19 C13      10.4690     2.9250    -2.3280  C.ar    1  <O>11      -0.0487
  20 C14      11.1970     2.0830    -3.1680  C.ar    1  <O>11      -0.0610
  21 C15      10.6800     0.8410    -3.5200  C.ar    1  <O>11      -0.0611
  22 C16       9.4350     0.4420    -3.0310  C.ar    1  <O>11      -0.0516
  23 C17       8.6880     1.2790    -2.1710  C.ar    1  <O>11       0.0195
  24 H1        5.0631    -1.4439    -1.8399  H       1  <O>11       0.1491
  25 H2        4.7295     1.3017    -1.1071  H       1  <O>11       0.0465
  26 H3        5.4920     0.4527     0.2591  H       1  <O>11       0.0465
  27 H4        3.6610    -1.2064     0.2495  H       1  <O>11       0.0328
  28 H5        2.8985    -0.3573    -1.1167  H       1  <O>11       0.0328
  29 H6        6.7330     3.5450     0.1810  H       1  <O>11       0.1921
  30 H7        1.1140    -0.4948     0.9649  H       1  <O>11       0.0620
  31 H8        0.0155     1.0349     2.4965  H       1  <O>11       0.0619
  32 H9        1.1095     3.1043     3.1515  H       1  <O>11       0.0646
  33 H10       4.4222     2.1140     0.7433  H       1  <O>11       0.0649
  34 H11      10.8555     3.8481    -2.0759  H       1  <O>11       0.0625
  35 H12      12.1173     2.3809    -3.5276  H       1  <O>11       0.0618
  36 H13      11.2159     0.2154    -4.1417  H       1  <O>11       0.0618
  37 H14       9.0540    -0.4782    -3.3015  H       1  <O>11       0.0624
@<TRIPOS>BOND
     1     1     2    2
     2     2     3   am
     3     3     4    1
     4     4     5    1
     5     5     6    1
     6     6     7   ar
     7     7     8   ar
     8     8     9   ar
     9     9    10   ar
    10    10    11    1
    11    10    12   ar
    12     6    12   ar
    13     2    13    1
    14    13    14   ar
    15    14    15   ar
    16    15    16   ar
    17    16    17    2
    18    16    18   ar
    19    18    19   ar
    20    19    20   ar
    21    20    21   ar
    22    21    22   ar
    23    22    23   ar
    24    13    23   ar
    25    18    23   ar
    26     3    24    1
    27     4    25    1
    28     4    26    1
    29     5    27    1
    30     5    28    1
    31    15    29    1
    32     7    30    1
    33     8    31    1
    34     9    32    1
    35    12    33    1
    36    19    34    1
    37    20    35    1
    38    21    36    1
    39    22    37    1
