@<TRIPOS>MOLECULE
mol44_1_1
 32 33 0 0 0
SMALL
USER_CHARGES
****
VDW energy = 106.31
@<TRIPOS>ATOM
   1 O1        2.8275    -7.9910    -5.9239  O.2     1  <O>11      -0.2917
   2 C1        3.3598    -9.0478    -5.6186  C.2     1  <O>11       0.1676
   3 C2        2.8830    -9.8060    -4.4250  C.3     1  <O>11       0.0356
   4 C3        3.2094    -9.0501    -3.1994  C.ar    1  <O>11      -0.0399
   5 C4        4.5210    -9.0595    -2.7193  C.ar    1  <O>11      -0.0582
   6 C5        4.8342    -8.3559    -1.5519  C.ar    1  <O>11      -0.0615
   7 C6        3.8432    -7.6442    -0.8717  C.ar    1  <O>11      -0.0617
   8 C7        2.5352    -7.6396    -1.3682  C.ar    1  <O>11      -0.0615
   9 C8        2.2116    -8.3366    -2.5335  C.ar    1  <O>11      -0.0582
  10 C9        4.4600    -9.5670    -6.4200  C.ar    1  <O>11       0.0236
  11 C10       4.2750   -10.6998    -7.2296  C.ar    1  <O>11      -0.0059
  12 C11       5.3357   -11.2049    -7.9887  C.ar    1  <O>11       0.1612
  13 O2        5.1551   -12.2518    -8.7286  O.3     1  <O>11      -0.5032
  14 C12       6.5863   -10.5842    -7.9519  C.ar    1  <O>11       0.1889
  15 O3        7.5715   -11.0478    -8.6521  O.3     1  <O>11      -0.5018
  16 C13       6.7702    -9.4522    -7.1486  C.ar    1  <O>11       0.1671
  17 N1        8.0616    -8.8153    -7.1126  N.4     1  <O>11       0.0097
  18 O4        8.2774    -8.0878    -8.3487  O.2     1  <O>11      -0.1299
  19 O5        9.0935    -9.8214    -6.9590  O.2     1  <O>11      -0.3960
  20 C14       5.7169    -8.9394    -6.3889  C.ar    1  <O>11      -0.0173
  21 H1        1.8039    -9.9449    -4.4903  H       1  <O>11       0.0394
  22 H2        3.3734   -10.7794    -4.3932  H       1  <O>11       0.0394
  23 H3        5.9803   -12.4716    -9.1867  H       1  <O>11       0.2923
  24 H4        8.3582   -10.4983    -8.5075  H       1  <O>11       0.2924
  25 H5        5.2545    -9.5824    -3.2230  H       1  <O>11       0.0620
  26 H6        5.8013    -8.3625    -1.1916  H       1  <O>11       0.0618
  27 H7        4.0741    -7.1258    -0.0097  H       1  <O>11       0.0618
  28 H8        1.8012    -7.1149    -0.8672  H       1  <O>11       0.0618
  29 H9        1.2463    -8.3245    -2.8981  H       1  <O>11       0.0620
  30 H10       3.3527   -11.1615    -7.2645  H       1  <O>11       0.0662
  31 H11       9.0954   -10.3795    -6.2064  H       1  <O>11       0.3292
  32 H12       5.8613    -8.1005    -5.8054  H       1  <O>11       0.0648
@<TRIPOS>BOND
     1     1     2    2
     2     2     3    1
     3     3     4    1
     4     4     5   ar
     5     5     6   ar
     6     6     7   ar
     7     7     8   ar
     8     8     9   ar
     9     4     9   ar
    10     2    10    1
    11    10    11   ar
    12    11    12   ar
    13    12    13    1
    14    12    14   ar
    15    14    15    1
    16    14    16   ar
    17    16    17    1
    18    17    18    2
    19    17    19    1
    20    16    20   ar
    21    10    20   ar
    22     3    21    1
    23     3    22    1
    24    13    23    1
    25    15    24    1
    26     5    25    1
    27     6    26    1
    28     7    27    1
    29     8    28    1
    30     9    29    1
    31    11    30    1
    32    19    31    1
    33    20    32    1
@<TRIPOS>MOLECULE
mol44_1_2
 32 33 0 0 0
SMALL
USER_CHARGES
****
VDW energy = 106.99
@<TRIPOS>ATOM
   1 O1        2.8275    -7.9910    -5.9239  O.2     1  <O>11      -0.2917
   2 C1        3.3598    -9.0478    -5.6186  C.2     1  <O>11       0.1676
   3 C2        2.8830    -9.8060    -4.4250  C.3     1  <O>11       0.0356
   4 C3        3.2094    -9.0501    -3.1994  C.ar    1  <O>11      -0.0399
   5 C4        2.2866    -8.1290    -2.6982  C.ar    1  <O>11      -0.0582
   6 C5        2.5949    -7.4005    -1.5448  C.ar    1  <O>11      -0.0615
   7 C6        3.8160    -7.5950    -0.8947  C.ar    1  <O>11      -0.0617
   8 C7        4.7275    -8.5253    -1.4057  C.ar    1  <O>11      -0.0615
   9 C8        4.4297    -9.2594    -2.5550  C.ar    1  <O>11      -0.0582
  10 C9        4.4600    -9.5670    -6.4200  C.ar    1  <O>11       0.0236
  11 C10       4.2053   -10.4195    -7.5069  C.ar    1  <O>11      -0.0059
  12 C11       5.2634   -10.9275    -8.2677  C.ar    1  <O>11       0.1612
  13 O2        5.0175   -11.7155    -9.2651  O.3     1  <O>11      -0.5032
  14 C12       6.5817   -10.5876    -7.9560  C.ar    1  <O>11       0.1889
  15 O3        7.5647   -11.0553    -8.6566  O.3     1  <O>11      -0.5018
  16 C13       6.8360    -9.7341    -6.8755  C.ar    1  <O>11       0.1671
  17 N1        8.1970    -9.3865    -6.5567  N.4     1  <O>11       0.0097
  18 O4        8.6989    -8.4445    -7.5389  O.2     1  <O>11      -0.1299
  19 O5        9.0178   -10.5808    -6.5708  O.2     1  <O>11      -0.3960
  20 C14       5.7864    -9.2203    -6.1115  C.ar    1  <O>11      -0.0173
  21 H1        1.8039    -9.9449    -4.4903  H       1  <O>11       0.0394
  22 H2        3.3734   -10.7794    -4.3932  H       1  <O>11       0.0394
  23 H3        5.8507   -11.9769    -9.6851  H       1  <O>11       0.2923
  24 H4        8.4033   -10.7186    -8.3029  H       1  <O>11       0.2924
  25 H5        1.3830    -7.9870    -3.1760  H       1  <O>11       0.0620
  26 H6        1.9176    -6.7166    -1.1725  H       1  <O>11       0.0618
  27 H7        4.0439    -7.0567    -0.0443  H       1  <O>11       0.0618
  28 H8        5.6305    -8.6704    -0.9275  H       1  <O>11       0.0618
  29 H9        5.1035    -9.9486    -2.9236  H       1  <O>11       0.0620
  30 H10       3.2335   -10.6721    -7.7452  H       1  <O>11       0.0662
  31 H11       8.8234   -11.2899    -5.9900  H       1  <O>11       0.3292
  32 H12       5.9844    -8.5867    -5.3213  H       1  <O>11       0.0648
@<TRIPOS>BOND
     1     1     2    2
     2     2     3    1
     3     3     4    1
     4     4     5   ar
     5     5     6   ar
     6     6     7   ar
     7     7     8   ar
     8     8     9   ar
     9     4     9   ar
    10     2    10    1
    11    10    11   ar
    12    11    12   ar
    13    12    13    1
    14    12    14   ar
    15    14    15    1
    16    14    16   ar
    17    16    17    1
    18    17    18    2
    19    17    19    1
    20    16    20   ar
    21    10    20   ar
    22     3    21    1
    23     3    22    1
    24    13    23    1
    25    15    24    1
    26     5    25    1
    27     6    26    1
    28     7    27    1
    29     8    28    1
    30     9    29    1
    31    11    30    1
    32    19    31    1
    33    20    32    1
@<TRIPOS>MOLECULE
mol44_1_3
 32 33 0 0 0
SMALL
USER_CHARGES
****
VDW energy = 108.68
@<TRIPOS>ATOM
   1 O1        2.8275    -7.9910    -5.9239  O.2     1  <O>11      -0.2917
   2 C1        3.3598    -9.0478    -5.6186  C.2     1  <O>11       0.1676
   3 C2        2.8830    -9.8060    -4.4250  C.3     1  <O>11       0.0356
   4 C3        4.0421   -10.3713    -3.7061  C.ar    1  <O>11      -0.0399
   5 C4        4.6548    -9.6209    -2.6999  C.ar    1  <O>11      -0.0582
   6 C5        5.7610   -10.1454    -2.0237  C.ar    1  <O>11      -0.0615
   7 C6        6.2485   -11.4135    -2.3487  C.ar    1  <O>11      -0.0617
   8 C7        5.6204   -12.1555    -3.3550  C.ar    1  <O>11      -0.0615
   9 C8        4.5145   -11.6429    -4.0351  C.ar    1  <O>11      -0.0582
  10 C9        4.4600    -9.5670    -6.4200  C.ar    1  <O>11       0.0236
  11 C10       4.2750   -10.6998    -7.2296  C.ar    1  <O>11      -0.0059
  12 C11       5.3357   -11.2049    -7.9887  C.ar    1  <O>11       0.1612
  13 O2        5.1551   -12.2518    -8.7286  O.3     1  <O>11      -0.5032
  14 C12       6.5863   -10.5842    -7.9519  C.ar    1  <O>11       0.1889
  15 O3        7.5715   -11.0478    -8.6521  O.3     1  <O>11      -0.5018
  16 C13       6.7702    -9.4522    -7.1486  C.ar    1  <O>11       0.1671
  17 N1        8.0616    -8.8153    -7.1126  N.4     1  <O>11       0.0097
  18 O4        8.2774    -8.0878    -8.3487  O.2     1  <O>11      -0.1299
  19 O5        9.0935    -9.8214    -6.9590  O.2     1  <O>11      -0.3960
  20 C14       5.7169    -8.9394    -6.3889  C.ar    1  <O>11      -0.0173
  21 H1        2.3363    -9.1346    -3.7629  H       1  <O>11       0.0394
  22 H2        2.2253   -10.6140    -4.7468  H       1  <O>11       0.0394
  23 H3        5.9803   -12.4716    -9.1867  H       1  <O>11       0.2923
  24 H4        8.3582   -10.4983    -8.5075  H       1  <O>11       0.2924
  25 H5        4.2935    -8.6853    -2.4569  H       1  <O>11       0.0620
  26 H6        6.2190    -9.5934    -1.2817  H       1  <O>11       0.0618
  27 H7        7.0654   -11.8001    -1.8504  H       1  <O>11       0.0618
  28 H8        5.9790   -13.0924    -3.5972  H       1  <O>11       0.0618
  29 H9        4.0518   -12.1974    -4.7723  H       1  <O>11       0.0620
  30 H10       3.3527   -11.1615    -7.2645  H       1  <O>11       0.0662
  31 H11       9.0954   -10.3795    -6.2064  H       1  <O>11       0.3292
  32 H12       5.8613    -8.1005    -5.8054  H       1  <O>11       0.0648
@<TRIPOS>BOND
     1     1     2    2
     2     2     3    1
     3     3     4    1
     4     4     5   ar
     5     5     6   ar
     6     6     7   ar
     7     7     8   ar
     8     8     9   ar
     9     4     9   ar
    10     2    10    1
    11    10    11   ar
    12    11    12   ar
    13    12    13    1
    14    12    14   ar
    15    14    15    1
    16    14    16   ar
    17    16    17    1
    18    17    18    2
    19    17    19    1
    20    16    20   ar
    21    10    20   ar
    22     3    21    1
    23     3    22    1
    24    13    23    1
    25    15    24    1
    26     5    25    1
    27     6    26    1
    28     7    27    1
    29     8    28    1
    30     9    29    1
    31    11    30    1
    32    19    31    1
    33    20    32    1
@<TRIPOS>MOLECULE
mol44_1_4
 32 33 0 0 0
SMALL
USER_CHARGES
****
VDW energy = 109.34
@<TRIPOS>ATOM
   1 O1        2.8275    -7.9910    -5.9239  O.2     1  <O>11      -0.2917
   2 C1        3.3598    -9.0478    -5.6186  C.2     1  <O>11       0.1676
   3 C2        2.8830    -9.8060    -4.4250  C.3     1  <O>11       0.0356
   4 C3        2.8825   -11.2511    -4.7281  C.ar    1  <O>11      -0.0399
   5 C4        1.8583   -11.7844    -5.5139  C.ar    1  <O>11      -0.0582
   6 C5        1.8450   -13.1545    -5.7942  C.ar    1  <O>11      -0.0615
   7 C6        2.8516   -13.9849    -5.2955  C.ar    1  <O>11      -0.0617
   8 C7        3.8740   -13.4348    -4.5147  C.ar    1  <O>11      -0.0615
   9 C8        3.8984   -12.0685    -4.2302  C.ar    1  <O>11      -0.0582
  10 C9        4.4600    -9.5670    -6.4200  C.ar    1  <O>11       0.0236
  11 C10       5.7211    -9.7810    -5.8396  C.ar    1  <O>11      -0.0059
  12 C11       6.7800   -10.2675    -6.6133  C.ar    1  <O>11       0.1612
  13 O2        7.9392   -10.4575    -6.0689  O.3     1  <O>11      -0.5032
  14 C12       6.5911   -10.5491    -7.9681  C.ar    1  <O>11       0.1889
  15 O3        7.5679   -10.9991    -8.6887  O.3     1  <O>11      -0.5018
  16 C13       5.3330   -10.3404    -8.5462  C.ar    1  <O>11       0.1671
  17 N1        5.1422   -10.6312    -9.9440  N.4     1  <O>11       0.0097
  18 O4        5.0960   -12.0680   -10.1377  O.2     1  <O>11      -0.1299
  19 O5        6.2418   -10.0770   -10.7083  O.2     1  <O>11      -0.3960
  20 C14       4.2693    -9.8571    -7.7817  C.ar    1  <O>11      -0.0173
  21 H1        3.5462    -9.6112    -3.5823  H       1  <O>11       0.0394
  22 H2        1.8713    -9.4872    -4.1724  H       1  <O>11       0.0394
  23 H3        8.5584   -10.7946    -6.7338  H       1  <O>11       0.2923
  24 H4        7.2611   -11.1384    -9.5989  H       1  <O>11       0.2924
  25 H5        1.1160   -11.1712    -5.8854  H       1  <O>11       0.0620
  26 H6        1.0886   -13.5537    -6.3717  H       1  <O>11       0.0618
  27 H7        2.8412   -14.9960    -5.5015  H       1  <O>11       0.0618
  28 H8        4.6185   -14.0463    -4.1447  H       1  <O>11       0.0618
  29 H9        4.6585   -11.6676    -3.6587  H       1  <O>11       0.0620
  30 H10       5.8670    -9.5784    -4.8383  H       1  <O>11       0.0662
  31 H11       6.4077    -9.1550   -10.6896  H       1  <O>11       0.3292
  32 H12       3.3443    -9.7132    -8.2161  H       1  <O>11       0.0648
@<TRIPOS>BOND
     1     1     2    2
     2     2     3    1
     3     3     4    1
     4     4     5   ar
     5     5     6   ar
     6     6     7   ar
     7     7     8   ar
     8     8     9   ar
     9     4     9   ar
    10     2    10    1
    11    10    11   ar
    12    11    12   ar
    13    12    13    1
    14    12    14   ar
    15    14    15    1
    16    14    16   ar
    17    16    17    1
    18    17    18    2
    19    17    19    1
    20    16    20   ar
    21    10    20   ar
    22     3    21    1
    23     3    22    1
    24    13    23    1
    25    15    24    1
    26     5    25    1
    27     6    26    1
    28     7    27    1
    29     8    28    1
    30     9    29    1
    31    11    30    1
    32    19    31    1
    33    20    32    1
@<TRIPOS>MOLECULE
mol44_1_5
 32 33 0 0 0
SMALL
USER_CHARGES
****
VDW energy = 109.71
@<TRIPOS>ATOM
   1 O1        2.8275    -7.9910    -5.9239  O.2     1  <O>11      -0.2917
   2 C1        3.3598    -9.0478    -5.6186  C.2     1  <O>11       0.1676
   3 C2        2.8830    -9.8060    -4.4250  C.3     1  <O>11       0.0356
   4 C3        2.8825   -11.2511    -4.7281  C.ar    1  <O>11      -0.0399
   5 C4        1.8583   -11.7844    -5.5139  C.ar    1  <O>11      -0.0582
   6 C5        1.8450   -13.1545    -5.7942  C.ar    1  <O>11      -0.0615
   7 C6        2.8516   -13.9849    -5.2955  C.ar    1  <O>11      -0.0617
   8 C7        3.8740   -13.4348    -4.5147  C.ar    1  <O>11      -0.0615
   9 C8        3.8984   -12.0685    -4.2302  C.ar    1  <O>11      -0.0582
  10 C9        4.4600    -9.5670    -6.4200  C.ar    1  <O>11       0.0236
  11 C10       4.2053   -10.4195    -7.5069  C.ar    1  <O>11      -0.0059
  12 C11       5.2634   -10.9275    -8.2677  C.ar    1  <O>11       0.1612
  13 O2        5.0175   -11.7155    -9.2651  O.3     1  <O>11      -0.5032
  14 C12       6.5817   -10.5876    -7.9560  C.ar    1  <O>11       0.1889
  15 O3        7.5647   -11.0553    -8.6566  O.3     1  <O>11      -0.5018
  16 C13       6.8360    -9.7341    -6.8755  C.ar    1  <O>11       0.1671
  17 N1        8.1970    -9.3865    -6.5567  N.4     1  <O>11       0.0097
  18 O4        8.6989    -8.4445    -7.5389  O.2     1  <O>11      -0.1299
  19 O5        9.0178   -10.5808    -6.5708  O.2     1  <O>11      -0.3960
  20 C14       5.7864    -9.2203    -6.1115  C.ar    1  <O>11      -0.0173
  21 H1        3.5462    -9.6112    -3.5823  H       1  <O>11       0.0394
  22 H2        1.8713    -9.4872    -4.1724  H       1  <O>11       0.0394
  23 H3        5.8507   -11.9769    -9.6851  H       1  <O>11       0.2923
  24 H4        8.4033   -10.7186    -8.3029  H       1  <O>11       0.2924
  25 H5        1.1160   -11.1712    -5.8854  H       1  <O>11       0.0620
  26 H6        1.0886   -13.5537    -6.3717  H       1  <O>11       0.0618
  27 H7        2.8412   -14.9960    -5.5015  H       1  <O>11       0.0618
  28 H8        4.6185   -14.0463    -4.1447  H       1  <O>11       0.0618
  29 H9        4.6585   -11.6676    -3.6587  H       1  <O>11       0.0620
  30 H10       3.2335   -10.6721    -7.7452  H       1  <O>11       0.0662
  31 H11       8.8234   -11.2899    -5.9900  H       1  <O>11       0.3292
  32 H12       5.9844    -8.5867    -5.3213  H       1  <O>11       0.0648
@<TRIPOS>BOND
     1     1     2    2
     2     2     3    1
     3     3     4    1
     4     4     5   ar
     5     5     6   ar
     6     6     7   ar
     7     7     8   ar
     8     8     9   ar
     9     4     9   ar
    10     2    10    1
    11    10    11   ar
    12    11    12   ar
    13    12    13    1
    14    12    14   ar
    15    14    15    1
    16    14    16   ar
    17    16    17    1
    18    17    18    2
    19    17    19    1
    20    16    20   ar
    21    10    20   ar
    22     3    21    1
    23     3    22    1
    24    13    23    1
    25    15    24    1
    26     5    25    1
    27     6    26    1
    28     7    27    1
    29     8    28    1
    30     9    29    1
    31    11    30    1
    32    19    31    1
    33    20    32    1
@<TRIPOS>MOLECULE
mol44_1_6
 32 33 0 0 0
SMALL
USER_CHARGES
****
VDW energy = 109.71
@<TRIPOS>ATOM
   1 O1        2.8275    -7.9910    -5.9239  O.2     1  <O>11      -0.2917
   2 C1        3.3598    -9.0478    -5.6186  C.2     1  <O>11       0.1676
   3 C2        2.8830    -9.8060    -4.4250  C.3     1  <O>11       0.0356
   4 C3        3.2094    -9.0501    -3.1994  C.ar    1  <O>11      -0.0399
   5 C4        2.6845    -7.7672    -3.0273  C.ar    1  <O>11      -0.0582
   6 C5        3.0000    -7.0408    -1.8746  C.ar    1  <O>11      -0.0615
   7 C6        3.8313    -7.5954    -0.8986  C.ar    1  <O>11      -0.0617
   8 C7        4.3448    -8.8838    -1.0826  C.ar    1  <O>11      -0.0615
   9 C8        4.0350    -9.6187    -2.2282  C.ar    1  <O>11      -0.0582
  10 C9        4.4600    -9.5670    -6.4200  C.ar    1  <O>11       0.0236
  11 C10       4.2750   -10.6998    -7.2296  C.ar    1  <O>11      -0.0059
  12 C11       5.3357   -11.2049    -7.9887  C.ar    1  <O>11       0.1612
  13 O2        5.1551   -12.2518    -8.7286  O.3     1  <O>11      -0.5032
  14 C12       6.5863   -10.5842    -7.9519  C.ar    1  <O>11       0.1889
  15 O3        7.5715   -11.0478    -8.6521  O.3     1  <O>11      -0.5018
  16 C13       6.7702    -9.4522    -7.1486  C.ar    1  <O>11       0.1671
  17 N1        8.0616    -8.8153    -7.1126  N.4     1  <O>11       0.0097
  18 O4        8.2774    -8.0878    -8.3487  O.2     1  <O>11      -0.1299
  19 O5        9.0935    -9.8214    -6.9590  O.2     1  <O>11      -0.3960
  20 C14       5.7169    -8.9394    -6.3889  C.ar    1  <O>11      -0.0173
  21 H1        1.8039    -9.9449    -4.4903  H       1  <O>11       0.0394
  22 H2        3.3734   -10.7794    -4.3932  H       1  <O>11       0.0394
  23 H3        5.9803   -12.4716    -9.1867  H       1  <O>11       0.2923
  24 H4        8.3582   -10.4983    -8.5075  H       1  <O>11       0.2924
  25 H5        2.0676    -7.3579    -3.7463  H       1  <O>11       0.0620
  26 H6        2.6170    -6.0913    -1.7445  H       1  <O>11       0.0618
  27 H7        4.0650    -7.0590    -0.0484  H       1  <O>11       0.0618
  28 H8        4.9595    -9.2956    -0.3633  H       1  <O>11       0.0618
  29 H9        4.4118   -10.5710    -2.3555  H       1  <O>11       0.0620
  30 H10       3.3527   -11.1615    -7.2645  H       1  <O>11       0.0662
  31 H11       9.0954   -10.3795    -6.2064  H       1  <O>11       0.3292
  32 H12       5.8613    -8.1005    -5.8054  H       1  <O>11       0.0648
@<TRIPOS>BOND
     1     1     2    2
     2     2     3    1
     3     3     4    1
     4     4     5   ar
     5     5     6   ar
     6     6     7   ar
     7     7     8   ar
     8     8     9   ar
     9     4     9   ar
    10     2    10    1
    11    10    11   ar
    12    11    12   ar
    13    12    13    1
    14    12    14   ar
    15    14    15    1
    16    14    16   ar
    17    16    17    1
    18    17    18    2
    19    17    19    1
    20    16    20   ar
    21    10    20   ar
    22     3    21    1
    23     3    22    1
    24    13    23    1
    25    15    24    1
    26     5    25    1
    27     6    26    1
    28     7    27    1
    29     8    28    1
    30     9    29    1
    31    11    30    1
    32    19    31    1
    33    20    32    1
@<TRIPOS>MOLECULE
mol44_1_7
 32 33 0 0 0
SMALL
USER_CHARGES
****
VDW energy = 110.03
@<TRIPOS>ATOM
   1 O1        2.8275    -7.9910    -5.9239  O.2     1  <O>11      -0.2917
   2 C1        3.3598    -9.0478    -5.6186  C.2     1  <O>11       0.1676
   3 C2        2.8830    -9.8060    -4.4250  C.3     1  <O>11       0.0356
   4 C3        2.8825   -11.2511    -4.7281  C.ar    1  <O>11      -0.0399
   5 C4        1.8583   -11.7844    -5.5139  C.ar    1  <O>11      -0.0582
   6 C5        1.8450   -13.1545    -5.7942  C.ar    1  <O>11      -0.0615
   7 C6        2.8516   -13.9849    -5.2955  C.ar    1  <O>11      -0.0617
   8 C7        3.8740   -13.4348    -4.5147  C.ar    1  <O>11      -0.0615
   9 C8        3.8984   -12.0685    -4.2302  C.ar    1  <O>11      -0.0582
  10 C9        4.4600    -9.5670    -6.4200  C.ar    1  <O>11       0.0236
  11 C10       5.7862    -9.2202    -6.1136  C.ar    1  <O>11      -0.0059
  12 C11       6.8407    -9.7091    -6.8917  C.ar    1  <O>11       0.1612
  13 O2        8.0590    -9.3800    -6.6025  O.3     1  <O>11      -0.5032
  14 C12       6.5843   -10.5502    -7.9768  C.ar    1  <O>11       0.1889
  15 O3        7.5565   -11.0051    -8.7004  O.3     1  <O>11      -0.5018
  16 C13       5.2628   -10.9000    -8.2800  C.ar    1  <O>11       0.1671
  17 N1        5.0022   -11.7670    -9.4004  N.4     1  <O>11       0.0097
  18 O4        5.3819   -13.1249    -9.0603  O.2     1  <O>11      -0.1299
  19 O5        5.7725   -11.3234   -10.5452  O.2     1  <O>11      -0.3960
  20 C14       4.2037   -10.4187    -7.5079  C.ar    1  <O>11      -0.0173
  21 H1        3.5462    -9.6112    -3.5823  H       1  <O>11       0.0394
  22 H2        1.8713    -9.4872    -4.1724  H       1  <O>11       0.0394
  23 H3        8.6660    -9.7983    -7.2316  H       1  <O>11       0.2923
  24 H4        7.1993   -11.5691    -9.4048  H       1  <O>11       0.2924
  25 H5        1.1160   -11.1712    -5.8854  H       1  <O>11       0.0620
  26 H6        1.0886   -13.5537    -6.3717  H       1  <O>11       0.0618
  27 H7        2.8412   -14.9960    -5.5015  H       1  <O>11       0.0618
  28 H8        4.6185   -14.0463    -4.1447  H       1  <O>11       0.0618
  29 H9        4.6585   -11.6676    -3.6587  H       1  <O>11       0.0620
  30 H10       5.9834    -8.6020    -5.3111  H       1  <O>11       0.0662
  31 H11       5.6442   -10.4621   -10.8909  H       1  <O>11       0.3292
  32 H12       3.2339   -10.6881    -7.7360  H       1  <O>11       0.0648
@<TRIPOS>BOND
     1     1     2    2
     2     2     3    1
     3     3     4    1
     4     4     5   ar
     5     5     6   ar
     6     6     7   ar
     7     7     8   ar
     8     8     9   ar
     9     4     9   ar
    10     2    10    1
    11    10    11   ar
    12    11    12   ar
    13    12    13    1
    14    12    14   ar
    15    14    15    1
    16    14    16   ar
    17    16    17    1
    18    17    18    2
    19    17    19    1
    20    16    20   ar
    21    10    20   ar
    22     3    21    1
    23     3    22    1
    24    13    23    1
    25    15    24    1
    26     5    25    1
    27     6    26    1
    28     7    27    1
    29     8    28    1
    30     9    29    1
    31    11    30    1
    32    19    31    1
    33    20    32    1
@<TRIPOS>MOLECULE
mol44_1_8
 32 33 0 0 0
SMALL
USER_CHARGES
****
VDW energy = 110.11
@<TRIPOS>ATOM
   1 O1        2.8275    -7.9910    -5.9239  O.2     1  <O>11      -0.2917
   2 C1        3.3598    -9.0478    -5.6186  C.2     1  <O>11       0.1676
   3 C2        2.8830    -9.8060    -4.4250  C.3     1  <O>11       0.0356
   4 C3        1.7686    -9.0743    -3.7904  C.ar    1  <O>11      -0.0399
   5 C4        2.0462    -7.9531    -3.0051  C.ar    1  <O>11      -0.0582
   6 C5        0.9962    -7.2630    -2.3908  C.ar    1  <O>11      -0.0615
   7 C6       -0.3228    -7.6889    -2.5643  C.ar    1  <O>11      -0.0617
   8 C7       -0.5854    -8.8104    -3.3585  C.ar    1  <O>11      -0.0615
   9 C8        0.4544    -9.5056    -3.9780  C.ar    1  <O>11      -0.0582
  10 C9        4.4600    -9.5670    -6.4200  C.ar    1  <O>11       0.0236
  11 C10       5.7862    -9.2202    -6.1136  C.ar    1  <O>11      -0.0059
  12 C11       6.8407    -9.7091    -6.8917  C.ar    1  <O>11       0.1612
  13 O2        8.0590    -9.3800    -6.6025  O.3     1  <O>11      -0.5032
  14 C12       6.5843   -10.5502    -7.9768  C.ar    1  <O>11       0.1889
  15 O3        7.5565   -11.0051    -8.7004  O.3     1  <O>11      -0.5018
  16 C13       5.2628   -10.9000    -8.2800  C.ar    1  <O>11       0.1671
  17 N1        5.0022   -11.7670    -9.4004  N.4     1  <O>11       0.0097
  18 O4        5.3819   -13.1249    -9.0603  O.2     1  <O>11      -0.1299
  19 O5        5.7725   -11.3234   -10.5452  O.2     1  <O>11      -0.3960
  20 C14       4.2037   -10.4187    -7.5079  C.ar    1  <O>11      -0.0173
  21 H1        2.5404   -10.7932    -4.7349  H       1  <O>11       0.0394
  22 H2        3.7009    -9.9126    -3.7118  H       1  <O>11       0.0394
  23 H3        8.6660    -9.7983    -7.2316  H       1  <O>11       0.2923
  24 H4        7.1993   -11.5691    -9.4048  H       1  <O>11       0.2924
  25 H5        3.0201    -7.6358    -2.8790  H       1  <O>11       0.0620
  26 H6        1.1967    -6.4358    -1.8071  H       1  <O>11       0.0618
  27 H7       -1.0975    -7.1803    -2.1101  H       1  <O>11       0.0618
  28 H8       -1.5590    -9.1273    -3.4877  H       1  <O>11       0.0618
  29 H9        0.2540   -10.3285    -4.5675  H       1  <O>11       0.0620
  30 H10       5.9834    -8.6020    -5.3111  H       1  <O>11       0.0662
  31 H11       5.6442   -10.4621   -10.8909  H       1  <O>11       0.3292
  32 H12       3.2339   -10.6881    -7.7360  H       1  <O>11       0.0648
@<TRIPOS>BOND
     1     1     2    2
     2     2     3    1
     3     3     4    1
     4     4     5   ar
     5     5     6   ar
     6     6     7   ar
     7     7     8   ar
     8     8     9   ar
     9     4     9   ar
    10     2    10    1
    11    10    11   ar
    12    11    12   ar
    13    12    13    1
    14    12    14   ar
    15    14    15    1
    16    14    16   ar
    17    16    17    1
    18    17    18    2
    19    17    19    1
    20    16    20   ar
    21    10    20   ar
    22     3    21    1
    23     3    22    1
    24    13    23    1
    25    15    24    1
    26     5    25    1
    27     6    26    1
    28     7    27    1
    29     8    28    1
    30     9    29    1
    31    11    30    1
    32    19    31    1
    33    20    32    1
@<TRIPOS>MOLECULE
mol44_1_9
 32 33 0 0 0
SMALL
USER_CHARGES
****
VDW energy = 112.31
@<TRIPOS>ATOM
   1 O1        2.8275    -7.9910    -5.9239  O.2     1  <O>11      -0.2917
   2 C1        3.3598    -9.0478    -5.6186  C.2     1  <O>11       0.1676
   3 C2        2.8830    -9.8060    -4.4250  C.3     1  <O>11       0.0356
   4 C3        4.0421   -10.3713    -3.7061  C.ar    1  <O>11      -0.0399
   5 C4        4.6733   -11.5089    -4.2144  C.ar    1  <O>11      -0.0582
   6 C5        5.7639   -12.0569    -3.5315  C.ar    1  <O>11      -0.0615
   7 C6        6.2228   -11.4686    -2.3505  C.ar    1  <O>11      -0.0617
   8 C7        5.5836   -10.3260    -1.8570  C.ar    1  <O>11      -0.0615
   9 C8        4.4955    -9.7694    -2.5312  C.ar    1  <O>11      -0.0582
  10 C9        4.4600    -9.5670    -6.4200  C.ar    1  <O>11       0.0236
  11 C10       4.2750   -10.6998    -7.2296  C.ar    1  <O>11      -0.0059
  12 C11       5.3357   -11.2049    -7.9887  C.ar    1  <O>11       0.1612
  13 O2        5.1551   -12.2518    -8.7286  O.3     1  <O>11      -0.5032
  14 C12       6.5863   -10.5842    -7.9519  C.ar    1  <O>11       0.1889
  15 O3        7.5715   -11.0478    -8.6521  O.3     1  <O>11      -0.5018
  16 C13       6.7702    -9.4522    -7.1486  C.ar    1  <O>11       0.1671
  17 N1        8.0616    -8.8153    -7.1126  N.4     1  <O>11       0.0097
  18 O4        8.2774    -8.0878    -8.3487  O.2     1  <O>11      -0.1299
  19 O5        9.0935    -9.8214    -6.9590  O.2     1  <O>11      -0.3960
  20 C14       5.7169    -8.9394    -6.3889  C.ar    1  <O>11      -0.0173
  21 H1        2.3363    -9.1346    -3.7629  H       1  <O>11       0.0394
  22 H2        2.2253   -10.6140    -4.7468  H       1  <O>11       0.0394
  23 H3        5.9803   -12.4716    -9.1867  H       1  <O>11       0.2923
  24 H4        8.3582   -10.4983    -8.5075  H       1  <O>11       0.2924
  25 H5        4.3371   -11.9424    -5.0885  H       1  <O>11       0.0620
  26 H6        6.2316   -12.8992    -3.9015  H       1  <O>11       0.0618
  27 H7        7.0268   -11.8735    -1.8460  H       1  <O>11       0.0618
  28 H8        5.9204    -9.8899    -0.9844  H       1  <O>11       0.0618
  29 H9        4.0320    -8.9230    -2.1655  H       1  <O>11       0.0620
  30 H10       3.3527   -11.1615    -7.2645  H       1  <O>11       0.0662
  31 H11       9.0954   -10.3795    -6.2064  H       1  <O>11       0.3292
  32 H12       5.8613    -8.1005    -5.8054  H       1  <O>11       0.0648
@<TRIPOS>BOND
     1     1     2    2
     2     2     3    1
     3     3     4    1
     4     4     5   ar
     5     5     6   ar
     6     6     7   ar
     7     7     8   ar
     8     8     9   ar
     9     4     9   ar
    10     2    10    1
    11    10    11   ar
    12    11    12   ar
    13    12    13    1
    14    12    14   ar
    15    14    15    1
    16    14    16   ar
    17    16    17    1
    18    17    18    2
    19    17    19    1
    20    16    20   ar
    21    10    20   ar
    22     3    21    1
    23     3    22    1
    24    13    23    1
    25    15    24    1
    26     5    25    1
    27     6    26    1
    28     7    27    1
    29     8    28    1
    30     9    29    1
    31    11    30    1
    32    19    31    1
    33    20    32    1
@<TRIPOS>MOLECULE
mol44_1_10
 32 33 0 0 0
SMALL
USER_CHARGES
****
VDW energy = 114.65
@<TRIPOS>ATOM
   1 O1        2.8275    -7.9910    -5.9239  O.2     1  <O>11      -0.2917
   2 C1        3.3598    -9.0478    -5.6186  C.2     1  <O>11       0.1676
   3 C2        2.8830    -9.8060    -4.4250  C.3     1  <O>11       0.0356
   4 C3        2.8825   -11.2511    -4.7281  C.ar    1  <O>11      -0.0399
   5 C4        1.8583   -11.7844    -5.5139  C.ar    1  <O>11      -0.0582
   6 C5        1.8450   -13.1545    -5.7942  C.ar    1  <O>11      -0.0615
   7 C6        2.8516   -13.9849    -5.2955  C.ar    1  <O>11      -0.0617
   8 C7        3.8740   -13.4348    -4.5147  C.ar    1  <O>11      -0.0615
   9 C8        3.8984   -12.0685    -4.2302  C.ar    1  <O>11      -0.0582
  10 C9        4.4600    -9.5670    -6.4200  C.ar    1  <O>11       0.0236
  11 C10       4.2750   -10.6998    -7.2296  C.ar    1  <O>11      -0.0059
  12 C11       5.3357   -11.2049    -7.9887  C.ar    1  <O>11       0.1612
  13 O2        5.1551   -12.2518    -8.7286  O.3     1  <O>11      -0.5032
  14 C12       6.5863   -10.5842    -7.9519  C.ar    1  <O>11       0.1889
  15 O3        7.5715   -11.0478    -8.6521  O.3     1  <O>11      -0.5018
  16 C13       6.7702    -9.4522    -7.1486  C.ar    1  <O>11       0.1671
  17 N1        8.0616    -8.8153    -7.1126  N.4     1  <O>11       0.0097
  18 O4        8.2774    -8.0878    -8.3487  O.2     1  <O>11      -0.1299
  19 O5        9.0935    -9.8214    -6.9590  O.2     1  <O>11      -0.3960
  20 C14       5.7169    -8.9394    -6.3889  C.ar    1  <O>11      -0.0173
  21 H1        3.5462    -9.6112    -3.5823  H       1  <O>11       0.0394
  22 H2        1.8713    -9.4872    -4.1724  H       1  <O>11       0.0394
  23 H3        5.9803   -12.4716    -9.1867  H       1  <O>11       0.2923
  24 H4        8.3582   -10.4983    -8.5075  H       1  <O>11       0.2924
  25 H5        1.1160   -11.1712    -5.8854  H       1  <O>11       0.0620
  26 H6        1.0886   -13.5537    -6.3717  H       1  <O>11       0.0618
  27 H7        2.8412   -14.9960    -5.5015  H       1  <O>11       0.0618
  28 H8        4.6185   -14.0463    -4.1447  H       1  <O>11       0.0618
  29 H9        4.6585   -11.6676    -3.6587  H       1  <O>11       0.0620
  30 H10       3.3527   -11.1615    -7.2645  H       1  <O>11       0.0662
  31 H11       9.0954   -10.3795    -6.2064  H       1  <O>11       0.3292
  32 H12       5.8613    -8.1005    -5.8054  H       1  <O>11       0.0648
@<TRIPOS>BOND
     1     1     2    2
     2     2     3    1
     3     3     4    1
     4     4     5   ar
     5     5     6   ar
     6     6     7   ar
     7     7     8   ar
     8     8     9   ar
     9     4     9   ar
    10     2    10    1
    11    10    11   ar
    12    11    12   ar
    13    12    13    1
    14    12    14   ar
    15    14    15    1
    16    14    16   ar
    17    16    17    1
    18    17    18    2
    19    17    19    1
    20    16    20   ar
    21    10    20   ar
    22     3    21    1
    23     3    22    1
    24    13    23    1
    25    15    24    1
    26     5    25    1
    27     6    26    1
    28     7    27    1
    29     8    28    1
    30     9    29    1
    31    11    30    1
    32    19    31    1
    33    20    32    1
@<TRIPOS>MOLECULE
mol44_1_11
 32 33 0 0 0
SMALL
USER_CHARGES
****
VDW energy = 115.50
@<TRIPOS>ATOM
   1 O1        2.8275    -7.9910    -5.9239  O.2     1  <O>11      -0.2917
   2 C1        3.3598    -9.0478    -5.6186  C.2     1  <O>11       0.1676
   3 C2        2.8830    -9.8060    -4.4250  C.3     1  <O>11       0.0356
   4 C3        3.2094    -9.0501    -3.1994  C.ar    1  <O>11      -0.0399
   5 C4        2.8526    -9.5768    -1.9560  C.ar    1  <O>11      -0.0582
   6 C5        3.1475    -8.8599    -0.7919  C.ar    1  <O>11      -0.0615
   7 C6        3.7987    -7.6265    -0.8707  C.ar    1  <O>11      -0.0617
   8 C7        4.1548    -7.1148    -2.1232  C.ar    1  <O>11      -0.0615
   9 C8        3.8673    -7.8225    -3.2915  C.ar    1  <O>11      -0.0582
  10 C9        4.4600    -9.5670    -6.4200  C.ar    1  <O>11       0.0236
  11 C10       4.2750   -10.6998    -7.2296  C.ar    1  <O>11      -0.0059
  12 C11       5.3357   -11.2049    -7.9887  C.ar    1  <O>11       0.1612
  13 O2        5.1551   -12.2518    -8.7286  O.3     1  <O>11      -0.5032
  14 C12       6.5863   -10.5842    -7.9519  C.ar    1  <O>11       0.1889
  15 O3        7.5715   -11.0478    -8.6521  O.3     1  <O>11      -0.5018
  16 C13       6.7702    -9.4522    -7.1486  C.ar    1  <O>11       0.1671
  17 N1        8.0616    -8.8153    -7.1126  N.4     1  <O>11       0.0097
  18 O4        8.2774    -8.0878    -8.3487  O.2     1  <O>11      -0.1299
  19 O5        9.0935    -9.8214    -6.9590  O.2     1  <O>11      -0.3960
  20 C14       5.7169    -8.9394    -6.3889  C.ar    1  <O>11      -0.0173
  21 H1        1.8039    -9.9449    -4.4903  H       1  <O>11       0.0394
  22 H2        3.3734   -10.7794    -4.3932  H       1  <O>11       0.0394
  23 H3        5.9803   -12.4716    -9.1867  H       1  <O>11       0.2923
  24 H4        8.3582   -10.4983    -8.5075  H       1  <O>11       0.2924
  25 H5        2.3744   -10.4893    -1.8966  H       1  <O>11       0.0620
  26 H6        2.8831    -9.2435     0.1289  H       1  <O>11       0.0618
  27 H7        4.0154    -7.0970    -0.0118  H       1  <O>11       0.0618
  28 H8        4.6355    -6.2036    -2.1841  H       1  <O>11       0.0618
  29 H9        4.1379    -7.4427    -4.2121  H       1  <O>11       0.0620
  30 H10       3.3527   -11.1615    -7.2645  H       1  <O>11       0.0662
  31 H11       9.0954   -10.3795    -6.2064  H       1  <O>11       0.3292
  32 H12       5.8613    -8.1005    -5.8054  H       1  <O>11       0.0648
@<TRIPOS>BOND
     1     1     2    2
     2     2     3    1
     3     3     4    1
     4     4     5   ar
     5     5     6   ar
     6     6     7   ar
     7     7     8   ar
     8     8     9   ar
     9     4     9   ar
    10     2    10    1
    11    10    11   ar
    12    11    12   ar
    13    12    13    1
    14    12    14   ar
    15    14    15    1
    16    14    16   ar
    17    16    17    1
    18    17    18    2
    19    17    19    1
    20    16    20   ar
    21    10    20   ar
    22     3    21    1
    23     3    22    1
    24    13    23    1
    25    15    24    1
    26     5    25    1
    27     6    26    1
    28     7    27    1
    29     8    28    1
    30     9    29    1
    31    11    30    1
    32    19    31    1
    33    20    32    1
@<TRIPOS>MOLECULE
mol44_1_12
 32 33 0 0 0
SMALL
USER_CHARGES
****
VDW energy = 116.10
@<TRIPOS>ATOM
   1 O1        2.8275    -7.9910    -5.9239  O.2     1  <O>11      -0.2917
   2 C1        3.3598    -9.0478    -5.6186  C.2     1  <O>11       0.1676
   3 C2        2.8830    -9.8060    -4.4250  C.3     1  <O>11       0.0356
   4 C3        3.2094    -9.0501    -3.1994  C.ar    1  <O>11      -0.0399
   5 C4        2.8526    -9.5768    -1.9560  C.ar    1  <O>11      -0.0582
   6 C5        3.1475    -8.8599    -0.7919  C.ar    1  <O>11      -0.0615
   7 C6        3.7987    -7.6265    -0.8707  C.ar    1  <O>11      -0.0617
   8 C7        4.1548    -7.1148    -2.1232  C.ar    1  <O>11      -0.0615
   9 C8        3.8673    -7.8225    -3.2915  C.ar    1  <O>11      -0.0582
  10 C9        4.4600    -9.5670    -6.4200  C.ar    1  <O>11       0.0236
  11 C10       4.2053   -10.4195    -7.5069  C.ar    1  <O>11      -0.0059
  12 C11       5.2634   -10.9275    -8.2677  C.ar    1  <O>11       0.1612
  13 O2        5.0175   -11.7155    -9.2651  O.3     1  <O>11      -0.5032
  14 C12       6.5817   -10.5876    -7.9560  C.ar    1  <O>11       0.1889
  15 O3        7.5647   -11.0553    -8.6566  O.3     1  <O>11      -0.5018
  16 C13       6.8360    -9.7341    -6.8755  C.ar    1  <O>11       0.1671
  17 N1        8.1970    -9.3865    -6.5567  N.4     1  <O>11       0.0097
  18 O4        8.6989    -8.4445    -7.5389  O.2     1  <O>11      -0.1299
  19 O5        9.0178   -10.5808    -6.5708  O.2     1  <O>11      -0.3960
  20 C14       5.7864    -9.2203    -6.1115  C.ar    1  <O>11      -0.0173
  21 H1        1.8039    -9.9449    -4.4903  H       1  <O>11       0.0394
  22 H2        3.3734   -10.7794    -4.3932  H       1  <O>11       0.0394
  23 H3        5.8507   -11.9769    -9.6851  H       1  <O>11       0.2923
  24 H4        8.4033   -10.7186    -8.3029  H       1  <O>11       0.2924
  25 H5        2.3744   -10.4893    -1.8966  H       1  <O>11       0.0620
  26 H6        2.8831    -9.2435     0.1289  H       1  <O>11       0.0618
  27 H7        4.0154    -7.0970    -0.0118  H       1  <O>11       0.0618
  28 H8        4.6355    -6.2036    -2.1841  H       1  <O>11       0.0618
  29 H9        4.1379    -7.4427    -4.2121  H       1  <O>11       0.0620
  30 H10       3.2335   -10.6721    -7.7452  H       1  <O>11       0.0662
  31 H11       8.8234   -11.2899    -5.9900  H       1  <O>11       0.3292
  32 H12       5.9844    -8.5867    -5.3213  H       1  <O>11       0.0648
@<TRIPOS>BOND
     1     1     2    2
     2     2     3    1
     3     3     4    1
     4     4     5   ar
     5     5     6   ar
     6     6     7   ar
     7     7     8   ar
     8     8     9   ar
     9     4     9   ar
    10     2    10    1
    11    10    11   ar
    12    11    12   ar
    13    12    13    1
    14    12    14   ar
    15    14    15    1
    16    14    16   ar
    17    16    17    1
    18    17    18    2
    19    17    19    1
    20    16    20   ar
    21    10    20   ar
    22     3    21    1
    23     3    22    1
    24    13    23    1
    25    15    24    1
    26     5    25    1
    27     6    26    1
    28     7    27    1
    29     8    28    1
    30     9    29    1
    31    11    30    1
    32    19    31    1
    33    20    32    1
@<TRIPOS>MOLECULE
mol44_1_13
 32 33 0 0 0
SMALL
USER_CHARGES
****
VDW energy = 122.64
@<TRIPOS>ATOM
   1 O1        2.8275    -7.9910    -5.9239  O.2     1  <O>11      -0.2917
   2 C1        3.3598    -9.0478    -5.6186  C.2     1  <O>11       0.1676
   3 C2        2.8830    -9.8060    -4.4250  C.3     1  <O>11       0.0356
   4 C3        2.8825   -11.2511    -4.7281  C.ar    1  <O>11      -0.0399
   5 C4        4.0811   -11.8762    -5.0796  C.ar    1  <O>11      -0.0582
   6 C5        4.0853   -13.2421    -5.3802  C.ar    1  <O>11      -0.0615
   7 C6        2.8996   -13.9786    -5.3255  C.ar    1  <O>11      -0.0617
   8 C7        1.7080   -13.3394    -4.9662  C.ar    1  <O>11      -0.0615
   9 C8        1.6923   -11.9772    -4.6622  C.ar    1  <O>11      -0.0582
  10 C9        4.4600    -9.5670    -6.4200  C.ar    1  <O>11       0.0236
  11 C10       4.2053   -10.4195    -7.5069  C.ar    1  <O>11      -0.0059
  12 C11       5.2634   -10.9275    -8.2677  C.ar    1  <O>11       0.1612
  13 O2        5.0175   -11.7155    -9.2651  O.3     1  <O>11      -0.5032
  14 C12       6.5817   -10.5876    -7.9560  C.ar    1  <O>11       0.1889
  15 O3        7.5647   -11.0553    -8.6566  O.3     1  <O>11      -0.5018
  16 C13       6.8360    -9.7341    -6.8755  C.ar    1  <O>11       0.1671
  17 N1        8.1970    -9.3865    -6.5567  N.4     1  <O>11       0.0097
  18 O4        8.6989    -8.4445    -7.5389  O.2     1  <O>11      -0.1299
  19 O5        9.0178   -10.5808    -6.5708  O.2     1  <O>11      -0.3960
  20 C14       5.7864    -9.2203    -6.1115  C.ar    1  <O>11      -0.0173
  21 H1        3.5462    -9.6112    -3.5823  H       1  <O>11       0.0394
  22 H2        1.8713    -9.4872    -4.1724  H       1  <O>11       0.0394
  23 H3        5.8507   -11.9769    -9.6851  H       1  <O>11       0.2923
  24 H4        8.4033   -10.7186    -8.3029  H       1  <O>11       0.2924
  25 H5        4.9581   -11.3336    -5.1172  H       1  <O>11       0.0620
  26 H6        4.9679   -13.7077    -5.6435  H       1  <O>11       0.0618
  27 H7        2.9025   -14.9862    -5.5483  H       1  <O>11       0.0618
  28 H8        0.8307   -13.8813    -4.9255  H       1  <O>11       0.0618
  29 H9        0.8114   -11.5126    -4.3919  H       1  <O>11       0.0620
  30 H10       3.2335   -10.6721    -7.7452  H       1  <O>11       0.0662
  31 H11       8.8234   -11.2899    -5.9900  H       1  <O>11       0.3292
  32 H12       5.9844    -8.5867    -5.3213  H       1  <O>11       0.0648
@<TRIPOS>BOND
     1     1     2    2
     2     2     3    1
     3     3     4    1
     4     4     5   ar
     5     5     6   ar
     6     6     7   ar
     7     7     8   ar
     8     8     9   ar
     9     4     9   ar
    10     2    10    1
    11    10    11   ar
    12    11    12   ar
    13    12    13    1
    14    12    14   ar
    15    14    15    1
    16    14    16   ar
    17    16    17    1
    18    17    18    2
    19    17    19    1
    20    16    20   ar
    21    10    20   ar
    22     3    21    1
    23     3    22    1
    24    13    23    1
    25    15    24    1
    26     5    25    1
    27     6    26    1
    28     7    27    1
    29     8    28    1
    30     9    29    1
    31    11    30    1
    32    19    31    1
    33    20    32    1
@<TRIPOS>MOLECULE
mol44_1_14
 32 33 0 0 0
SMALL
USER_CHARGES
****
VDW energy = 126.18
@<TRIPOS>ATOM
   1 O1        2.8275    -7.9910    -5.9239  O.2     1  <O>11      -0.2917
   2 C1        3.3598    -9.0478    -5.6186  C.2     1  <O>11       0.1676
   3 C2        2.8830    -9.8060    -4.4250  C.3     1  <O>11       0.0356
   4 C3        4.0421   -10.3713    -3.7061  C.ar    1  <O>11      -0.0399
   5 C4        4.6548    -9.6209    -2.6999  C.ar    1  <O>11      -0.0582
   6 C5        5.7610   -10.1454    -2.0237  C.ar    1  <O>11      -0.0615
   7 C6        6.2485   -11.4135    -2.3487  C.ar    1  <O>11      -0.0617
   8 C7        5.6204   -12.1555    -3.3550  C.ar    1  <O>11      -0.0615
   9 C8        4.5145   -11.6429    -4.0351  C.ar    1  <O>11      -0.0582
  10 C9        4.4600    -9.5670    -6.4200  C.ar    1  <O>11       0.0236
  11 C10       4.2053   -10.4195    -7.5069  C.ar    1  <O>11      -0.0059
  12 C11       5.2634   -10.9275    -8.2677  C.ar    1  <O>11       0.1612
  13 O2        5.0175   -11.7155    -9.2651  O.3     1  <O>11      -0.5032
  14 C12       6.5817   -10.5876    -7.9560  C.ar    1  <O>11       0.1889
  15 O3        7.5647   -11.0553    -8.6566  O.3     1  <O>11      -0.5018
  16 C13       6.8360    -9.7341    -6.8755  C.ar    1  <O>11       0.1671
  17 N1        8.1970    -9.3865    -6.5567  N.4     1  <O>11       0.0097
  18 O4        8.3132    -9.1422    -5.1316  O.2     1  <O>11      -0.1299
  19 O5        8.5740    -8.1903    -7.2830  O.2     1  <O>11      -0.3960
  20 C14       5.7864    -9.2203    -6.1115  C.ar    1  <O>11      -0.0173
  21 H1        2.3363    -9.1346    -3.7629  H       1  <O>11       0.0394
  22 H2        2.2253   -10.6140    -4.7468  H       1  <O>11       0.0394
  23 H3        5.8507   -11.9769    -9.6851  H       1  <O>11       0.2923
  24 H4        8.4033   -10.7186    -8.3029  H       1  <O>11       0.2924
  25 H5        4.2935    -8.6853    -2.4569  H       1  <O>11       0.0620
  26 H6        6.2190    -9.5934    -1.2817  H       1  <O>11       0.0618
  27 H7        7.0654   -11.8001    -1.8504  H       1  <O>11       0.0618
  28 H8        5.9790   -13.0924    -3.5972  H       1  <O>11       0.0618
  29 H9        4.0518   -12.1974    -4.7723  H       1  <O>11       0.0620
  30 H10       3.2335   -10.6721    -7.7452  H       1  <O>11       0.0662
  31 H11       8.5526    -8.1847    -8.2198  H       1  <O>11       0.3292
  32 H12       5.9844    -8.5867    -5.3213  H       1  <O>11       0.0648
@<TRIPOS>BOND
     1     1     2    2
     2     2     3    1
     3     3     4    1
     4     4     5   ar
     5     5     6   ar
     6     6     7   ar
     7     7     8   ar
     8     8     9   ar
     9     4     9   ar
    10     2    10    1
    11    10    11   ar
    12    11    12   ar
    13    12    13    1
    14    12    14   ar
    15    14    15    1
    16    14    16   ar
    17    16    17    1
    18    17    18    2
    19    17    19    1
    20    16    20   ar
    21    10    20   ar
    22     3    21    1
    23     3    22    1
    24    13    23    1
    25    15    24    1
    26     5    25    1
    27     6    26    1
    28     7    27    1
    29     8    28    1
    30     9    29    1
    31    11    30    1
    32    19    31    1
    33    20    32    1
@<TRIPOS>MOLECULE
mol44_1_15
 32 33 0 0 0
SMALL
USER_CHARGES
****
VDW energy = 126.19
@<TRIPOS>ATOM
   1 O1        2.8275    -7.9910    -5.9239  O.2     1  <O>11      -0.2917
   2 C1        3.3598    -9.0478    -5.6186  C.2     1  <O>11       0.1676
   3 C2        2.8830    -9.8060    -4.4250  C.3     1  <O>11       0.0356
   4 C3        2.8825   -11.2511    -4.7281  C.ar    1  <O>11      -0.0399
   5 C4        2.0961   -11.7289    -5.7789  C.ar    1  <O>11      -0.0582
   6 C5        2.0814   -13.0982    -6.0632  C.ar    1  <O>11      -0.0615
   7 C6        2.8512   -13.9830    -5.3044  C.ar    1  <O>11      -0.0617
   8 C7        3.6382   -13.4884    -4.2587  C.ar    1  <O>11      -0.0615
   9 C8        3.6623   -12.1236    -3.9673  C.ar    1  <O>11      -0.0582
  10 C9        4.4600    -9.5670    -6.4200  C.ar    1  <O>11       0.0236
  11 C10       4.2750   -10.6998    -7.2296  C.ar    1  <O>11      -0.0059
  12 C11       5.3357   -11.2049    -7.9887  C.ar    1  <O>11       0.1612
  13 O2        5.1551   -12.2518    -8.7286  O.3     1  <O>11      -0.5032
  14 C12       6.5863   -10.5842    -7.9519  C.ar    1  <O>11       0.1889
  15 O3        7.5715   -11.0478    -8.6521  O.3     1  <O>11      -0.5018
  16 C13       6.7702    -9.4522    -7.1486  C.ar    1  <O>11       0.1671
  17 N1        8.0616    -8.8153    -7.1126  N.4     1  <O>11       0.0097
  18 O4        8.2774    -8.0878    -8.3487  O.2     1  <O>11      -0.1299
  19 O5        9.0935    -9.8214    -6.9590  O.2     1  <O>11      -0.3960
  20 C14       5.7169    -8.9394    -6.3889  C.ar    1  <O>11      -0.0173
  21 H1        3.5462    -9.6112    -3.5823  H       1  <O>11       0.0394
  22 H2        1.8713    -9.4872    -4.1724  H       1  <O>11       0.0394
  23 H3        5.9803   -12.4716    -9.1867  H       1  <O>11       0.2923
  24 H4        8.3582   -10.4983    -8.5075  H       1  <O>11       0.2924
  25 H5        1.5296   -11.0755    -6.3421  H       1  <O>11       0.0620
  26 H6        1.4995   -13.4563    -6.8366  H       1  <O>11       0.0618
  27 H7        2.8395   -14.9935    -5.5135  H       1  <O>11       0.0618
  28 H8        4.2075   -14.1402    -3.6963  H       1  <O>11       0.0618
  29 H9        4.2495   -11.7640    -3.1985  H       1  <O>11       0.0620
  30 H10       3.3527   -11.1615    -7.2645  H       1  <O>11       0.0662
  31 H11       9.0954   -10.3795    -6.2064  H       1  <O>11       0.3292
  32 H12       5.8613    -8.1005    -5.8054  H       1  <O>11       0.0648
@<TRIPOS>BOND
     1     1     2    2
     2     2     3    1
     3     3     4    1
     4     4     5   ar
     5     5     6   ar
     6     6     7   ar
     7     7     8   ar
     8     8     9   ar
     9     4     9   ar
    10     2    10    1
    11    10    11   ar
    12    11    12   ar
    13    12    13    1
    14    12    14   ar
    15    14    15    1
    16    14    16   ar
    17    16    17    1
    18    17    18    2
    19    17    19    1
    20    16    20   ar
    21    10    20   ar
    22     3    21    1
    23     3    22    1
    24    13    23    1
    25    15    24    1
    26     5    25    1
    27     6    26    1
    28     7    27    1
    29     8    28    1
    30     9    29    1
    31    11    30    1
    32    19    31    1
    33    20    32    1
@<TRIPOS>MOLECULE
mol44_1_16
 32 33 0 0 0
SMALL
USER_CHARGES
****
VDW energy = 126.47
@<TRIPOS>ATOM
   1 O1        2.8275    -7.9910    -5.9239  O.2     1  <O>11      -0.2917
   2 C1        3.3598    -9.0478    -5.6186  C.2     1  <O>11       0.1676
   3 C2        2.8830    -9.8060    -4.4250  C.3     1  <O>11       0.0356
   4 C3        2.8825   -11.2511    -4.7281  C.ar    1  <O>11      -0.0399
   5 C4        4.0283   -12.0052    -4.4647  C.ar    1  <O>11      -0.0582
   6 C5        4.0388   -13.3719    -4.7612  C.ar    1  <O>11      -0.0615
   7 C6        2.9096   -13.9811    -5.3134  C.ar    1  <O>11      -0.0617
   8 C7        1.7674   -13.2136    -5.5663  C.ar    1  <O>11      -0.0615
   9 C8        1.7450   -11.8492    -5.2725  C.ar    1  <O>11      -0.0582
  10 C9        4.4600    -9.5670    -6.4200  C.ar    1  <O>11       0.0236
  11 C10       4.2053   -10.4195    -7.5069  C.ar    1  <O>11      -0.0059
  12 C11       5.2634   -10.9275    -8.2677  C.ar    1  <O>11       0.1612
  13 O2        5.0175   -11.7155    -9.2651  O.3     1  <O>11      -0.5032
  14 C12       6.5817   -10.5876    -7.9560  C.ar    1  <O>11       0.1889
  15 O3        7.5647   -11.0553    -8.6566  O.3     1  <O>11      -0.5018
  16 C13       6.8360    -9.7341    -6.8755  C.ar    1  <O>11       0.1671
  17 N1        8.1970    -9.3865    -6.5567  N.4     1  <O>11       0.0097
  18 O4        8.3132    -9.1422    -5.1316  O.2     1  <O>11      -0.1299
  19 O5        8.5740    -8.1903    -7.2830  O.2     1  <O>11      -0.3960
  20 C14       5.7864    -9.2203    -6.1115  C.ar    1  <O>11      -0.0173
  21 H1        3.5462    -9.6112    -3.5823  H       1  <O>11       0.0394
  22 H2        1.8713    -9.4872    -4.1724  H       1  <O>11       0.0394
  23 H3        5.8507   -11.9769    -9.6851  H       1  <O>11       0.2923
  24 H4        8.4033   -10.7186    -8.3029  H       1  <O>11       0.2924
  25 H5        4.8619   -11.5566    -4.0537  H       1  <O>11       0.0620
  26 H6        4.8842   -13.9326    -4.5712  H       1  <O>11       0.0618
  27 H7        2.9177   -14.9894    -5.5332  H       1  <O>11       0.0618
  28 H8        0.9321   -13.6612    -5.9747  H       1  <O>11       0.0618
  29 H9        0.8975   -11.2895    -5.4556  H       1  <O>11       0.0620
  30 H10       3.2335   -10.6721    -7.7452  H       1  <O>11       0.0662
  31 H11       8.5526    -8.1847    -8.2198  H       1  <O>11       0.3292
  32 H12       5.9844    -8.5867    -5.3213  H       1  <O>11       0.0648
@<TRIPOS>BOND
     1     1     2    2
     2     2     3    1
     3     3     4    1
     4     4     5   ar
     5     5     6   ar
     6     6     7   ar
     7     7     8   ar
     8     8     9   ar
     9     4     9   ar
    10     2    10    1
    11    10    11   ar
    12    11    12   ar
    13    12    13    1
    14    12    14   ar
    15    14    15    1
    16    14    16   ar
    17    16    17    1
    18    17    18    2
    19    17    19    1
    20    16    20   ar
    21    10    20   ar
    22     3    21    1
    23     3    22    1
    24    13    23    1
    25    15    24    1
    26     5    25    1
    27     6    26    1
    28     7    27    1
    29     8    28    1
    30     9    29    1
    31    11    30    1
    32    19    31    1
    33    20    32    1
@<TRIPOS>MOLECULE
mol44_1_17
 32 33 0 0 0
SMALL
USER_CHARGES
****
VDW energy = 126.59
@<TRIPOS>ATOM
   1 O1        2.8275    -7.9910    -5.9239  O.2     1  <O>11      -0.2917
   2 C1        3.3598    -9.0478    -5.6186  C.2     1  <O>11       0.1676
   3 C2        2.8830    -9.8060    -4.4250  C.3     1  <O>11       0.0356
   4 C3        2.8825   -11.2511    -4.7281  C.ar    1  <O>11      -0.0399
   5 C4        4.0283   -12.0052    -4.4647  C.ar    1  <O>11      -0.0582
   6 C5        4.0388   -13.3719    -4.7612  C.ar    1  <O>11      -0.0615
   7 C6        2.9096   -13.9811    -5.3134  C.ar    1  <O>11      -0.0617
   8 C7        1.7674   -13.2136    -5.5663  C.ar    1  <O>11      -0.0615
   9 C8        1.7450   -11.8492    -5.2725  C.ar    1  <O>11      -0.0582
  10 C9        4.4600    -9.5670    -6.4200  C.ar    1  <O>11       0.0236
  11 C10       5.7211    -9.7810    -5.8396  C.ar    1  <O>11      -0.0059
  12 C11       6.7800   -10.2675    -6.6133  C.ar    1  <O>11       0.1612
  13 O2        7.9392   -10.4575    -6.0689  O.3     1  <O>11      -0.5032
  14 C12       6.5911   -10.5491    -7.9681  C.ar    1  <O>11       0.1889
  15 O3        7.5679   -10.9991    -8.6887  O.3     1  <O>11      -0.5018
  16 C13       5.3330   -10.3404    -8.5462  C.ar    1  <O>11       0.1671
  17 N1        5.1422   -10.6312    -9.9440  N.4     1  <O>11       0.0097
  18 O4        4.1246    -9.7518   -10.4870  O.2     1  <O>11      -0.1299
  19 O5        4.7209   -12.0093   -10.0987  O.2     1  <O>11      -0.3960
  20 C14       4.2693    -9.8571    -7.7817  C.ar    1  <O>11      -0.0173
  21 H1        3.5462    -9.6112    -3.5823  H       1  <O>11       0.0394
  22 H2        1.8713    -9.4872    -4.1724  H       1  <O>11       0.0394
  23 H3        8.5584   -10.7946    -6.7338  H       1  <O>11       0.2923
  24 H4        7.2611   -11.1384    -9.5989  H       1  <O>11       0.2924
  25 H5        4.8619   -11.5566    -4.0537  H       1  <O>11       0.0620
  26 H6        4.8842   -13.9326    -4.5712  H       1  <O>11       0.0618
  27 H7        2.9177   -14.9894    -5.5332  H       1  <O>11       0.0618
  28 H8        0.9321   -13.6612    -5.9747  H       1  <O>11       0.0618
  29 H9        0.8975   -11.2895    -5.4556  H       1  <O>11       0.0620
  30 H10       5.8670    -9.5784    -4.8383  H       1  <O>11       0.0662
  31 H11       5.2715   -12.7044    -9.7960  H       1  <O>11       0.3292
  32 H12       3.3443    -9.7132    -8.2161  H       1  <O>11       0.0648
@<TRIPOS>BOND
     1     1     2    2
     2     2     3    1
     3     3     4    1
     4     4     5   ar
     5     5     6   ar
     6     6     7   ar
     7     7     8   ar
     8     8     9   ar
     9     4     9   ar
    10     2    10    1
    11    10    11   ar
    12    11    12   ar
    13    12    13    1
    14    12    14   ar
    15    14    15    1
    16    14    16   ar
    17    16    17    1
    18    17    18    2
    19    17    19    1
    20    16    20   ar
    21    10    20   ar
    22     3    21    1
    23     3    22    1
    24    13    23    1
    25    15    24    1
    26     5    25    1
    27     6    26    1
    28     7    27    1
    29     8    28    1
    30     9    29    1
    31    11    30    1
    32    19    31    1
    33    20    32    1
@<TRIPOS>MOLECULE
mol44_1_18
 32 33 0 0 0
SMALL
USER_CHARGES
****
VDW energy = 126.65
@<TRIPOS>ATOM
   1 O1        2.8275    -7.9910    -5.9239  O.2     1  <O>11      -0.2917
   2 C1        3.3598    -9.0478    -5.6186  C.2     1  <O>11       0.1676
   3 C2        2.8830    -9.8060    -4.4250  C.3     1  <O>11       0.0356
   4 C3        1.7686    -9.0743    -3.7904  C.ar    1  <O>11      -0.0399
   5 C4        2.0462    -7.9531    -3.0051  C.ar    1  <O>11      -0.0582
   6 C5        0.9962    -7.2630    -2.3908  C.ar    1  <O>11      -0.0615
   7 C6       -0.3228    -7.6889    -2.5643  C.ar    1  <O>11      -0.0617
   8 C7       -0.5854    -8.8104    -3.3585  C.ar    1  <O>11      -0.0615
   9 C8        0.4544    -9.5056    -3.9780  C.ar    1  <O>11      -0.0582
  10 C9        4.4600    -9.5670    -6.4200  C.ar    1  <O>11       0.0236
  11 C10       4.2053   -10.4195    -7.5069  C.ar    1  <O>11      -0.0059
  12 C11       5.2634   -10.9275    -8.2677  C.ar    1  <O>11       0.1612
  13 O2        5.0175   -11.7155    -9.2651  O.3     1  <O>11      -0.5032
  14 C12       6.5817   -10.5876    -7.9560  C.ar    1  <O>11       0.1889
  15 O3        7.5647   -11.0553    -8.6566  O.3     1  <O>11      -0.5018
  16 C13       6.8360    -9.7341    -6.8755  C.ar    1  <O>11       0.1671
  17 N1        8.1970    -9.3865    -6.5567  N.4     1  <O>11       0.0097
  18 O4        8.3132    -9.1422    -5.1316  O.2     1  <O>11      -0.1299
  19 O5        8.5740    -8.1903    -7.2830  O.2     1  <O>11      -0.3960
  20 C14       5.7864    -9.2203    -6.1115  C.ar    1  <O>11      -0.0173
  21 H1        2.5404   -10.7932    -4.7349  H       1  <O>11       0.0394
  22 H2        3.7009    -9.9126    -3.7118  H       1  <O>11       0.0394
  23 H3        5.8507   -11.9769    -9.6851  H       1  <O>11       0.2923
  24 H4        8.4033   -10.7186    -8.3029  H       1  <O>11       0.2924
  25 H5        3.0201    -7.6358    -2.8790  H       1  <O>11       0.0620
  26 H6        1.1967    -6.4358    -1.8071  H       1  <O>11       0.0618
  27 H7       -1.0975    -7.1803    -2.1101  H       1  <O>11       0.0618
  28 H8       -1.5590    -9.1273    -3.4877  H       1  <O>11       0.0618
  29 H9        0.2540   -10.3285    -4.5675  H       1  <O>11       0.0620
  30 H10       3.2335   -10.6721    -7.7452  H       1  <O>11       0.0662
  31 H11       8.5526    -8.1847    -8.2198  H       1  <O>11       0.3292
  32 H12       5.9844    -8.5867    -5.3213  H       1  <O>11       0.0648
@<TRIPOS>BOND
     1     1     2    2
     2     2     3    1
     3     3     4    1
     4     4     5   ar
     5     5     6   ar
     6     6     7   ar
     7     7     8   ar
     8     8     9   ar
     9     4     9   ar
    10     2    10    1
    11    10    11   ar
    12    11    12   ar
    13    12    13    1
    14    12    14   ar
    15    14    15    1
    16    14    16   ar
    17    16    17    1
    18    17    18    2
    19    17    19    1
    20    16    20   ar
    21    10    20   ar
    22     3    21    1
    23     3    22    1
    24    13    23    1
    25    15    24    1
    26     5    25    1
    27     6    26    1
    28     7    27    1
    29     8    28    1
    30     9    29    1
    31    11    30    1
    32    19    31    1
    33    20    32    1
@<TRIPOS>MOLECULE
mol44_1_19
 32 33 0 0 0
SMALL
USER_CHARGES
****
VDW energy = 126.83
@<TRIPOS>ATOM
   1 O1        2.8275    -7.9910    -5.9239  O.2     1  <O>11      -0.2917
   2 C1        3.3598    -9.0478    -5.6186  C.2     1  <O>11       0.1676
   3 C2        2.8830    -9.8060    -4.4250  C.3     1  <O>11       0.0356
   4 C3        2.8825   -11.2511    -4.7281  C.ar    1  <O>11      -0.0399
   5 C4        1.8583   -11.7844    -5.5139  C.ar    1  <O>11      -0.0582
   6 C5        1.8450   -13.1545    -5.7942  C.ar    1  <O>11      -0.0615
   7 C6        2.8516   -13.9849    -5.2955  C.ar    1  <O>11      -0.0617
   8 C7        3.8740   -13.4348    -4.5147  C.ar    1  <O>11      -0.0615
   9 C8        3.8984   -12.0685    -4.2302  C.ar    1  <O>11      -0.0582
  10 C9        4.4600    -9.5670    -6.4200  C.ar    1  <O>11       0.0236
  11 C10       4.2053   -10.4195    -7.5069  C.ar    1  <O>11      -0.0059
  12 C11       5.2634   -10.9275    -8.2677  C.ar    1  <O>11       0.1612
  13 O2        5.0175   -11.7155    -9.2651  O.3     1  <O>11      -0.5032
  14 C12       6.5817   -10.5876    -7.9560  C.ar    1  <O>11       0.1889
  15 O3        7.5647   -11.0553    -8.6566  O.3     1  <O>11      -0.5018
  16 C13       6.8360    -9.7341    -6.8755  C.ar    1  <O>11       0.1671
  17 N1        8.1970    -9.3865    -6.5567  N.4     1  <O>11       0.0097
  18 O4        8.3132    -9.1422    -5.1316  O.2     1  <O>11      -0.1299
  19 O5        8.5740    -8.1903    -7.2830  O.2     1  <O>11      -0.3960
  20 C14       5.7864    -9.2203    -6.1115  C.ar    1  <O>11      -0.0173
  21 H1        3.5462    -9.6112    -3.5823  H       1  <O>11       0.0394
  22 H2        1.8713    -9.4872    -4.1724  H       1  <O>11       0.0394
  23 H3        5.8507   -11.9769    -9.6851  H       1  <O>11       0.2923
  24 H4        8.4033   -10.7186    -8.3029  H       1  <O>11       0.2924
  25 H5        1.1160   -11.1712    -5.8854  H       1  <O>11       0.0620
  26 H6        1.0886   -13.5537    -6.3717  H       1  <O>11       0.0618
  27 H7        2.8412   -14.9960    -5.5015  H       1  <O>11       0.0618
  28 H8        4.6185   -14.0463    -4.1447  H       1  <O>11       0.0618
  29 H9        4.6585   -11.6676    -3.6587  H       1  <O>11       0.0620
  30 H10       3.2335   -10.6721    -7.7452  H       1  <O>11       0.0662
  31 H11       8.5526    -8.1847    -8.2198  H       1  <O>11       0.3292
  32 H12       5.9844    -8.5867    -5.3213  H       1  <O>11       0.0648
@<TRIPOS>BOND
     1     1     2    2
     2     2     3    1
     3     3     4    1
     4     4     5   ar
     5     5     6   ar
     6     6     7   ar
     7     7     8   ar
     8     8     9   ar
     9     4     9   ar
    10     2    10    1
    11    10    11   ar
    12    11    12   ar
    13    12    13    1
    14    12    14   ar
    15    14    15    1
    16    14    16   ar
    17    16    17    1
    18    17    18    2
    19    17    19    1
    20    16    20   ar
    21    10    20   ar
    22     3    21    1
    23     3    22    1
    24    13    23    1
    25    15    24    1
    26     5    25    1
    27     6    26    1
    28     7    27    1
    29     8    28    1
    30     9    29    1
    31    11    30    1
    32    19    31    1
    33    20    32    1
@<TRIPOS>MOLECULE
mol44_1_20
 32 33 0 0 0
SMALL
USER_CHARGES
****
VDW energy = 128.66
@<TRIPOS>ATOM
   1 O1        2.8275    -7.9910    -5.9239  O.2     1  <O>11      -0.2917
   2 C1        3.3598    -9.0478    -5.6186  C.2     1  <O>11       0.1676
   3 C2        2.8830    -9.8060    -4.4250  C.3     1  <O>11       0.0356
   4 C3        4.0421   -10.3713    -3.7061  C.ar    1  <O>11      -0.0399
   5 C4        4.6548    -9.6209    -2.6999  C.ar    1  <O>11      -0.0582
   6 C5        5.7610   -10.1454    -2.0237  C.ar    1  <O>11      -0.0615
   7 C6        6.2485   -11.4135    -2.3487  C.ar    1  <O>11      -0.0617
   8 C7        5.6204   -12.1555    -3.3550  C.ar    1  <O>11      -0.0615
   9 C8        4.5145   -11.6429    -4.0351  C.ar    1  <O>11      -0.0582
  10 C9        4.4600    -9.5670    -6.4200  C.ar    1  <O>11       0.0236
  11 C10       4.3520   -10.8196    -7.0463  C.ar    1  <O>11      -0.0059
  12 C11       5.4140   -11.3226    -7.8050  C.ar    1  <O>11       0.1612
  13 O2        5.3052   -12.4800    -8.3748  O.3     1  <O>11      -0.5032
  14 C12       6.5889   -10.5815    -7.9501  C.ar    1  <O>11       0.1889
  15 O3        7.5749   -11.0426    -8.6508  O.3     1  <O>11      -0.5018
  16 C13       6.6954    -9.3307    -7.3299  C.ar    1  <O>11       0.1671
  17 N1        7.9090    -8.5697    -7.4813  N.4     1  <O>11       0.0097
  18 O4        8.1171    -7.7507    -6.3024  O.2     1  <O>11      -0.1299
  19 O5        7.8032    -7.7167    -8.6482  O.2     1  <O>11      -0.3960
  20 C14       5.6400    -8.8192    -6.5723  C.ar    1  <O>11      -0.0173
  21 H1        2.3363    -9.1346    -3.7629  H       1  <O>11       0.0394
  22 H2        2.2253   -10.6140    -4.7468  H       1  <O>11       0.0394
  23 H3        6.1203   -12.6814    -8.8586  H       1  <O>11       0.2923
  24 H4        8.3039   -10.4019    -8.6445  H       1  <O>11       0.2924
  25 H5        4.2935    -8.6853    -2.4569  H       1  <O>11       0.0620
  26 H6        6.2190    -9.5934    -1.2817  H       1  <O>11       0.0618
  27 H7        7.0654   -11.8001    -1.8504  H       1  <O>11       0.0618
  28 H8        5.9790   -13.0924    -3.5972  H       1  <O>11       0.0618
  29 H9        4.0518   -12.1974    -4.7723  H       1  <O>11       0.0620
  30 H10       3.4855   -11.3712    -6.9463  H       1  <O>11       0.0662
  31 H11       7.6664    -8.0951    -9.4944  H       1  <O>11       0.3292
  32 H12       5.7263    -7.8933    -6.1249  H       1  <O>11       0.0648
@<TRIPOS>BOND
     1     1     2    2
     2     2     3    1
     3     3     4    1
     4     4     5   ar
     5     5     6   ar
     6     6     7   ar
     7     7     8   ar
     8     8     9   ar
     9     4     9   ar
    10     2    10    1
    11    10    11   ar
    12    11    12   ar
    13    12    13    1
    14    12    14   ar
    15    14    15    1
    16    14    16   ar
    17    16    17    1
    18    17    18    2
    19    17    19    1
    20    16    20   ar
    21    10    20   ar
    22     3    21    1
    23     3    22    1
    24    13    23    1
    25    15    24    1
    26     5    25    1
    27     6    26    1
    28     7    27    1
    29     8    28    1
    30     9    29    1
    31    11    30    1
    32    19    31    1
    33    20    32    1
@<TRIPOS>MOLECULE
mol44_1_21
 32 33 0 0 0
SMALL
USER_CHARGES
****
VDW energy = 134.15
@<TRIPOS>ATOM
   1 O1        2.8275    -7.9910    -5.9239  O.2     1  <O>11      -0.2917
   2 C1        3.3598    -9.0478    -5.6186  C.2     1  <O>11       0.1676
   3 C2        2.8830    -9.8060    -4.4250  C.3     1  <O>11       0.0356
   4 C3        3.2094    -9.0501    -3.1994  C.ar    1  <O>11      -0.0399
   5 C4        2.2866    -8.1290    -2.6982  C.ar    1  <O>11      -0.0582
   6 C5        2.5949    -7.4005    -1.5448  C.ar    1  <O>11      -0.0615
   7 C6        3.8160    -7.5950    -0.8947  C.ar    1  <O>11      -0.0617
   8 C7        4.7275    -8.5253    -1.4057  C.ar    1  <O>11      -0.0615
   9 C8        4.4297    -9.2594    -2.5550  C.ar    1  <O>11      -0.0582
  10 C9        4.4600    -9.5670    -6.4200  C.ar    1  <O>11       0.0236
  11 C10       4.2053   -10.4195    -7.5069  C.ar    1  <O>11      -0.0059
  12 C11       5.2634   -10.9275    -8.2677  C.ar    1  <O>11       0.1612
  13 O2        5.0175   -11.7155    -9.2651  O.3     1  <O>11      -0.5032
  14 C12       6.5817   -10.5876    -7.9560  C.ar    1  <O>11       0.1889
  15 O3        7.5647   -11.0553    -8.6566  O.3     1  <O>11      -0.5018
  16 C13       6.8360    -9.7341    -6.8755  C.ar    1  <O>11       0.1671
  17 N1        8.1970    -9.3865    -6.5567  N.4     1  <O>11       0.0097
  18 O4        8.9443   -10.5903    -6.2467  O.2     1  <O>11      -0.1299
  19 O5        8.2144    -8.4999    -5.4103  O.2     1  <O>11      -0.3960
  20 C14       5.7864    -9.2203    -6.1115  C.ar    1  <O>11      -0.0173
  21 H1        1.8039    -9.9449    -4.4903  H       1  <O>11       0.0394
  22 H2        3.3734   -10.7794    -4.3932  H       1  <O>11       0.0394
  23 H3        5.8507   -11.9769    -9.6851  H       1  <O>11       0.2923
  24 H4        8.4033   -10.7186    -8.3029  H       1  <O>11       0.2924
  25 H5        1.3830    -7.9870    -3.1760  H       1  <O>11       0.0620
  26 H6        1.9176    -6.7166    -1.1725  H       1  <O>11       0.0618
  27 H7        4.0439    -7.0567    -0.0443  H       1  <O>11       0.0618
  28 H8        5.6305    -8.6704    -0.9275  H       1  <O>11       0.0618
  29 H9        5.1035    -9.9486    -2.9236  H       1  <O>11       0.0620
  30 H10       3.2335   -10.6721    -7.7452  H       1  <O>11       0.0662
  31 H11       7.7732    -7.6742    -5.4499  H       1  <O>11       0.3292
  32 H12       5.9844    -8.5867    -5.3213  H       1  <O>11       0.0648
@<TRIPOS>BOND
     1     1     2    2
     2     2     3    1
     3     3     4    1
     4     4     5   ar
     5     5     6   ar
     6     6     7   ar
     7     7     8   ar
     8     8     9   ar
     9     4     9   ar
    10     2    10    1
    11    10    11   ar
    12    11    12   ar
    13    12    13    1
    14    12    14   ar
    15    14    15    1
    16    14    16   ar
    17    16    17    1
    18    17    18    2
    19    17    19    1
    20    16    20   ar
    21    10    20   ar
    22     3    21    1
    23     3    22    1
    24    13    23    1
    25    15    24    1
    26     5    25    1
    27     6    26    1
    28     7    27    1
    29     8    28    1
    30     9    29    1
    31    11    30    1
    32    19    31    1
    33    20    32    1
@<TRIPOS>MOLECULE
mol44_1_22
 32 33 0 0 0
SMALL
USER_CHARGES
****
VDW energy = 135.67
@<TRIPOS>ATOM
   1 O1        2.8275    -7.9910    -5.9239  O.2     1  <O>11      -0.2917
   2 C1        3.3598    -9.0478    -5.6186  C.2     1  <O>11       0.1676
   3 C2        2.8830    -9.8060    -4.4250  C.3     1  <O>11       0.0356
   4 C3        4.0421   -10.3713    -3.7061  C.ar    1  <O>11      -0.0399
   5 C4        4.6548    -9.6209    -2.6999  C.ar    1  <O>11      -0.0582
   6 C5        5.7610   -10.1454    -2.0237  C.ar    1  <O>11      -0.0615
   7 C6        6.2485   -11.4135    -2.3487  C.ar    1  <O>11      -0.0617
   8 C7        5.6204   -12.1555    -3.3550  C.ar    1  <O>11      -0.0615
   9 C8        4.5145   -11.6429    -4.0351  C.ar    1  <O>11      -0.0582
  10 C9        4.4600    -9.5670    -6.4200  C.ar    1  <O>11       0.0236
  11 C10       4.2053   -10.4195    -7.5069  C.ar    1  <O>11      -0.0059
  12 C11       5.2634   -10.9275    -8.2677  C.ar    1  <O>11       0.1612
  13 O2        5.0175   -11.7155    -9.2651  O.3     1  <O>11      -0.5032
  14 C12       6.5817   -10.5876    -7.9560  C.ar    1  <O>11       0.1889
  15 O3        7.5647   -11.0553    -8.6566  O.3     1  <O>11      -0.5018
  16 C13       6.8360    -9.7341    -6.8755  C.ar    1  <O>11       0.1671
  17 N1        8.1970    -9.3865    -6.5567  N.4     1  <O>11       0.0097
  18 O4        8.9443   -10.5903    -6.2467  O.2     1  <O>11      -0.1299
  19 O5        8.2144    -8.4999    -5.4103  O.2     1  <O>11      -0.3960
  20 C14       5.7864    -9.2203    -6.1115  C.ar    1  <O>11      -0.0173
  21 H1        2.3363    -9.1346    -3.7629  H       1  <O>11       0.0394
  22 H2        2.2253   -10.6140    -4.7468  H       1  <O>11       0.0394
  23 H3        5.8507   -11.9769    -9.6851  H       1  <O>11       0.2923
  24 H4        8.4033   -10.7186    -8.3029  H       1  <O>11       0.2924
  25 H5        4.2935    -8.6853    -2.4569  H       1  <O>11       0.0620
  26 H6        6.2190    -9.5934    -1.2817  H       1  <O>11       0.0618
  27 H7        7.0654   -11.8001    -1.8504  H       1  <O>11       0.0618
  28 H8        5.9790   -13.0924    -3.5972  H       1  <O>11       0.0618
  29 H9        4.0518   -12.1974    -4.7723  H       1  <O>11       0.0620
  30 H10       3.2335   -10.6721    -7.7452  H       1  <O>11       0.0662
  31 H11       7.7732    -7.6742    -5.4499  H       1  <O>11       0.3292
  32 H12       5.9844    -8.5867    -5.3213  H       1  <O>11       0.0648
@<TRIPOS>BOND
     1     1     2    2
     2     2     3    1
     3     3     4    1
     4     4     5   ar
     5     5     6   ar
     6     6     7   ar
     7     7     8   ar
     8     8     9   ar
     9     4     9   ar
    10     2    10    1
    11    10    11   ar
    12    11    12   ar
    13    12    13    1
    14    12    14   ar
    15    14    15    1
    16    14    16   ar
    17    16    17    1
    18    17    18    2
    19    17    19    1
    20    16    20   ar
    21    10    20   ar
    22     3    21    1
    23     3    22    1
    24    13    23    1
    25    15    24    1
    26     5    25    1
    27     6    26    1
    28     7    27    1
    29     8    28    1
    30     9    29    1
    31    11    30    1
    32    19    31    1
    33    20    32    1
@<TRIPOS>MOLECULE
mol44_1_23
 32 33 0 0 0
SMALL
USER_CHARGES
****
VDW energy = 136.61
@<TRIPOS>ATOM
   1 O1        2.8275    -7.9910    -5.9239  O.2     1  <O>11      -0.2917
   2 C1        3.3598    -9.0478    -5.6186  C.2     1  <O>11       0.1676
   3 C2        2.8830    -9.8060    -4.4250  C.3     1  <O>11       0.0356
   4 C3        4.0421   -10.3713    -3.7061  C.ar    1  <O>11      -0.0399
   5 C4        4.6548    -9.6209    -2.6999  C.ar    1  <O>11      -0.0582
   6 C5        5.7610   -10.1454    -2.0237  C.ar    1  <O>11      -0.0615
   7 C6        6.2485   -11.4135    -2.3487  C.ar    1  <O>11      -0.0617
   8 C7        5.6204   -12.1555    -3.3550  C.ar    1  <O>11      -0.0615
   9 C8        4.5145   -11.6429    -4.0351  C.ar    1  <O>11      -0.0582
  10 C9        4.4600    -9.5670    -6.4200  C.ar    1  <O>11       0.0236
  11 C10       4.2750   -10.6998    -7.2296  C.ar    1  <O>11      -0.0059
  12 C11       5.3357   -11.2049    -7.9887  C.ar    1  <O>11       0.1612
  13 O2        5.1551   -12.2518    -8.7286  O.3     1  <O>11      -0.5032
  14 C12       6.5863   -10.5842    -7.9519  C.ar    1  <O>11       0.1889
  15 O3        7.5715   -11.0478    -8.6521  O.3     1  <O>11      -0.5018
  16 C13       6.7702    -9.4522    -7.1486  C.ar    1  <O>11       0.1671
  17 N1        8.0616    -8.8153    -7.1126  N.4     1  <O>11       0.0097
  18 O4        9.0538    -9.7593    -6.6348  O.2     1  <O>11      -0.1299
  19 O5        8.0138    -7.6737    -6.2209  O.2     1  <O>11      -0.3960
  20 C14       5.7169    -8.9394    -6.3889  C.ar    1  <O>11      -0.0173
  21 H1        2.3363    -9.1346    -3.7629  H       1  <O>11       0.0394
  22 H2        2.2253   -10.6140    -4.7468  H       1  <O>11       0.0394
  23 H3        5.9803   -12.4716    -9.1867  H       1  <O>11       0.2923
  24 H4        8.3582   -10.4983    -8.5075  H       1  <O>11       0.2924
  25 H5        4.2935    -8.6853    -2.4569  H       1  <O>11       0.0620
  26 H6        6.2190    -9.5934    -1.2817  H       1  <O>11       0.0618
  27 H7        7.0654   -11.8001    -1.8504  H       1  <O>11       0.0618
  28 H8        5.9790   -13.0924    -3.5972  H       1  <O>11       0.0618
  29 H9        4.0518   -12.1974    -4.7723  H       1  <O>11       0.0620
  30 H10       3.3527   -11.1615    -7.2645  H       1  <O>11       0.0662
  31 H11       7.4192    -6.9701    -6.3921  H       1  <O>11       0.3292
  32 H12       5.8613    -8.1005    -5.8054  H       1  <O>11       0.0648
@<TRIPOS>BOND
     1     1     2    2
     2     2     3    1
     3     3     4    1
     4     4     5   ar
     5     5     6   ar
     6     6     7   ar
     7     7     8   ar
     8     8     9   ar
     9     4     9   ar
    10     2    10    1
    11    10    11   ar
    12    11    12   ar
    13    12    13    1
    14    12    14   ar
    15    14    15    1
    16    14    16   ar
    17    16    17    1
    18    17    18    2
    19    17    19    1
    20    16    20   ar
    21    10    20   ar
    22     3    21    1
    23     3    22    1
    24    13    23    1
    25    15    24    1
    26     5    25    1
    27     6    26    1
    28     7    27    1
    29     8    28    1
    30     9    29    1
    31    11    30    1
    32    19    31    1
    33    20    32    1
@<TRIPOS>MOLECULE
mol44_1_24
 32 33 0 0 0
SMALL
USER_CHARGES
****
VDW energy = 137.86
@<TRIPOS>ATOM
   1 O1        2.8275    -7.9910    -5.9239  O.2     1  <O>11      -0.2917
   2 C1        3.3598    -9.0478    -5.6186  C.2     1  <O>11       0.1676
   3 C2        2.8830    -9.8060    -4.4250  C.3     1  <O>11       0.0356
   4 C3        2.8825   -11.2511    -4.7281  C.ar    1  <O>11      -0.0399
   5 C4        4.0811   -11.8762    -5.0796  C.ar    1  <O>11      -0.0582
   6 C5        4.0853   -13.2421    -5.3802  C.ar    1  <O>11      -0.0615
   7 C6        2.8996   -13.9786    -5.3255  C.ar    1  <O>11      -0.0617
   8 C7        1.7080   -13.3394    -4.9662  C.ar    1  <O>11      -0.0615
   9 C8        1.6923   -11.9772    -4.6622  C.ar    1  <O>11      -0.0582
  10 C9        4.4600    -9.5670    -6.4200  C.ar    1  <O>11       0.0236
  11 C10       4.2750   -10.6998    -7.2296  C.ar    1  <O>11      -0.0059
  12 C11       5.3357   -11.2049    -7.9887  C.ar    1  <O>11       0.1612
  13 O2        5.1551   -12.2518    -8.7286  O.3     1  <O>11      -0.5032
  14 C12       6.5863   -10.5842    -7.9519  C.ar    1  <O>11       0.1889
  15 O3        7.5715   -11.0478    -8.6521  O.3     1  <O>11      -0.5018
  16 C13       6.7702    -9.4522    -7.1486  C.ar    1  <O>11       0.1671
  17 N1        8.0616    -8.8153    -7.1126  N.4     1  <O>11       0.0097
  18 O4        8.2774    -8.0878    -8.3487  O.2     1  <O>11      -0.1299
  19 O5        9.0935    -9.8214    -6.9590  O.2     1  <O>11      -0.3960
  20 C14       5.7169    -8.9394    -6.3889  C.ar    1  <O>11      -0.0173
  21 H1        3.5462    -9.6112    -3.5823  H       1  <O>11       0.0394
  22 H2        1.8713    -9.4872    -4.1724  H       1  <O>11       0.0394
  23 H3        5.9803   -12.4716    -9.1867  H       1  <O>11       0.2923
  24 H4        8.3582   -10.4983    -8.5075  H       1  <O>11       0.2924
  25 H5        4.9581   -11.3336    -5.1172  H       1  <O>11       0.0620
  26 H6        4.9679   -13.7077    -5.6435  H       1  <O>11       0.0618
  27 H7        2.9025   -14.9862    -5.5483  H       1  <O>11       0.0618
  28 H8        0.8307   -13.8813    -4.9255  H       1  <O>11       0.0618
  29 H9        0.8114   -11.5126    -4.3919  H       1  <O>11       0.0620
  30 H10       3.3527   -11.1615    -7.2645  H       1  <O>11       0.0662
  31 H11       9.0954   -10.3795    -6.2064  H       1  <O>11       0.3292
  32 H12       5.8613    -8.1005    -5.8054  H       1  <O>11       0.0648
@<TRIPOS>BOND
     1     1     2    2
     2     2     3    1
     3     3     4    1
     4     4     5   ar
     5     5     6   ar
     6     6     7   ar
     7     7     8   ar
     8     8     9   ar
     9     4     9   ar
    10     2    10    1
    11    10    11   ar
    12    11    12   ar
    13    12    13    1
    14    12    14   ar
    15    14    15    1
    16    14    16   ar
    17    16    17    1
    18    17    18    2
    19    17    19    1
    20    16    20   ar
    21    10    20   ar
    22     3    21    1
    23     3    22    1
    24    13    23    1
    25    15    24    1
    26     5    25    1
    27     6    26    1
    28     7    27    1
    29     8    28    1
    30     9    29    1
    31    11    30    1
    32    19    31    1
    33    20    32    1
@<TRIPOS>MOLECULE
mol44_1_25
 32 33 0 0 0
SMALL
USER_CHARGES
****
VDW energy = 138.69
@<TRIPOS>ATOM
   1 O1        2.8275    -7.9910    -5.9239  O.2     1  <O>11      -0.2917
   2 C1        3.3598    -9.0478    -5.6186  C.2     1  <O>11       0.1676
   3 C2        2.8830    -9.8060    -4.4250  C.3     1  <O>11       0.0356
   4 C3        4.0421   -10.3713    -3.7061  C.ar    1  <O>11      -0.0399
   5 C4        4.6733   -11.5089    -4.2144  C.ar    1  <O>11      -0.0582
   6 C5        5.7639   -12.0569    -3.5315  C.ar    1  <O>11      -0.0615
   7 C6        6.2228   -11.4686    -2.3505  C.ar    1  <O>11      -0.0617
   8 C7        5.5836   -10.3260    -1.8570  C.ar    1  <O>11      -0.0615
   9 C8        4.4955    -9.7694    -2.5312  C.ar    1  <O>11      -0.0582
  10 C9        4.4600    -9.5670    -6.4200  C.ar    1  <O>11       0.0236
  11 C10       4.2750   -10.6998    -7.2296  C.ar    1  <O>11      -0.0059
  12 C11       5.3357   -11.2049    -7.9887  C.ar    1  <O>11       0.1612
  13 O2        5.1551   -12.2518    -8.7286  O.3     1  <O>11      -0.5032
  14 C12       6.5863   -10.5842    -7.9519  C.ar    1  <O>11       0.1889
  15 O3        7.5715   -11.0478    -8.6521  O.3     1  <O>11      -0.5018
  16 C13       6.7702    -9.4522    -7.1486  C.ar    1  <O>11       0.1671
  17 N1        8.0616    -8.8153    -7.1126  N.4     1  <O>11       0.0097
  18 O4        8.7306    -9.0047    -8.3855  O.2     1  <O>11      -0.1299
  19 O5        8.8614    -9.4019    -6.0558  O.2     1  <O>11      -0.3960
  20 C14       5.7169    -8.9394    -6.3889  C.ar    1  <O>11      -0.0173
  21 H1        2.3363    -9.1346    -3.7629  H       1  <O>11       0.0394
  22 H2        2.2253   -10.6140    -4.7468  H       1  <O>11       0.0394
  23 H3        5.9803   -12.4716    -9.1867  H       1  <O>11       0.2923
  24 H4        8.3582   -10.4983    -8.5075  H       1  <O>11       0.2924
  25 H5        4.3371   -11.9424    -5.0885  H       1  <O>11       0.0620
  26 H6        6.2316   -12.8992    -3.9015  H       1  <O>11       0.0618
  27 H7        7.0268   -11.8735    -1.8460  H       1  <O>11       0.0618
  28 H8        5.9204    -9.8899    -0.9844  H       1  <O>11       0.0618
  29 H9        4.0320    -8.9230    -2.1655  H       1  <O>11       0.0620
  30 H10       3.3527   -11.1615    -7.2645  H       1  <O>11       0.0662
  31 H11       8.5653    -9.3633    -5.1677  H       1  <O>11       0.3292
  32 H12       5.8613    -8.1005    -5.8054  H       1  <O>11       0.0648
@<TRIPOS>BOND
     1     1     2    2
     2     2     3    1
     3     3     4    1
     4     4     5   ar
     5     5     6   ar
     6     6     7   ar
     7     7     8   ar
     8     8     9   ar
     9     4     9   ar
    10     2    10    1
    11    10    11   ar
    12    11    12   ar
    13    12    13    1
    14    12    14   ar
    15    14    15    1
    16    14    16   ar
    17    16    17    1
    18    17    18    2
    19    17    19    1
    20    16    20   ar
    21    10    20   ar
    22     3    21    1
    23     3    22    1
    24    13    23    1
    25    15    24    1
    26     5    25    1
    27     6    26    1
    28     7    27    1
    29     8    28    1
    30     9    29    1
    31    11    30    1
    32    19    31    1
    33    20    32    1
@<TRIPOS>MOLECULE
mol44_1_26
 32 33 0 0 0
SMALL
USER_CHARGES
****
VDW energy = 139.56
@<TRIPOS>ATOM
   1 O1        2.8275    -7.9910    -5.9239  O.2     1  <O>11      -0.2917
   2 C1        3.3598    -9.0478    -5.6186  C.2     1  <O>11       0.1676
   3 C2        2.8830    -9.8060    -4.4250  C.3     1  <O>11       0.0356
   4 C3        2.8825   -11.2511    -4.7281  C.ar    1  <O>11      -0.0399
   5 C4        4.0811   -11.8762    -5.0796  C.ar    1  <O>11      -0.0582
   6 C5        4.0853   -13.2421    -5.3802  C.ar    1  <O>11      -0.0615
   7 C6        2.8996   -13.9786    -5.3255  C.ar    1  <O>11      -0.0617
   8 C7        1.7080   -13.3394    -4.9662  C.ar    1  <O>11      -0.0615
   9 C8        1.6923   -11.9772    -4.6622  C.ar    1  <O>11      -0.0582
  10 C9        4.4600    -9.5670    -6.4200  C.ar    1  <O>11       0.0236
  11 C10       4.2053   -10.4195    -7.5069  C.ar    1  <O>11      -0.0059
  12 C11       5.2634   -10.9275    -8.2677  C.ar    1  <O>11       0.1612
  13 O2        5.0175   -11.7155    -9.2651  O.3     1  <O>11      -0.5032
  14 C12       6.5817   -10.5876    -7.9560  C.ar    1  <O>11       0.1889
  15 O3        7.5647   -11.0553    -8.6566  O.3     1  <O>11      -0.5018
  16 C13       6.8360    -9.7341    -6.8755  C.ar    1  <O>11       0.1671
  17 N1        8.1970    -9.3865    -6.5567  N.4     1  <O>11       0.0097
  18 O4        8.3132    -9.1422    -5.1316  O.2     1  <O>11      -0.1299
  19 O5        8.5740    -8.1903    -7.2830  O.2     1  <O>11      -0.3960
  20 C14       5.7864    -9.2203    -6.1115  C.ar    1  <O>11      -0.0173
  21 H1        3.5462    -9.6112    -3.5823  H       1  <O>11       0.0394
  22 H2        1.8713    -9.4872    -4.1724  H       1  <O>11       0.0394
  23 H3        5.8507   -11.9769    -9.6851  H       1  <O>11       0.2923
  24 H4        8.4033   -10.7186    -8.3029  H       1  <O>11       0.2924
  25 H5        4.9581   -11.3336    -5.1172  H       1  <O>11       0.0620
  26 H6        4.9679   -13.7077    -5.6435  H       1  <O>11       0.0618
  27 H7        2.9025   -14.9862    -5.5483  H       1  <O>11       0.0618
  28 H8        0.8307   -13.8813    -4.9255  H       1  <O>11       0.0618
  29 H9        0.8114   -11.5126    -4.3919  H       1  <O>11       0.0620
  30 H10       3.2335   -10.6721    -7.7452  H       1  <O>11       0.0662
  31 H11       8.5526    -8.1847    -8.2198  H       1  <O>11       0.3292
  32 H12       5.9844    -8.5867    -5.3213  H       1  <O>11       0.0648
@<TRIPOS>BOND
     1     1     2    2
     2     2     3    1
     3     3     4    1
     4     4     5   ar
     5     5     6   ar
     6     6     7   ar
     7     7     8   ar
     8     8     9   ar
     9     4     9   ar
    10     2    10    1
    11    10    11   ar
    12    11    12   ar
    13    12    13    1
    14    12    14   ar
    15    14    15    1
    16    14    16   ar
    17    16    17    1
    18    17    18    2
    19    17    19    1
    20    16    20   ar
    21    10    20   ar
    22     3    21    1
    23     3    22    1
    24    13    23    1
    25    15    24    1
    26     5    25    1
    27     6    26    1
    28     7    27    1
    29     8    28    1
    30     9    29    1
    31    11    30    1
    32    19    31    1
    33    20    32    1
@<TRIPOS>MOLECULE
mol44_1_27
 32 33 0 0 0
SMALL
USER_CHARGES
****
VDW energy = 139.90
@<TRIPOS>ATOM
   1 O1        2.8275    -7.9910    -5.9239  O.2     1  <O>11      -0.2917
   2 C1        3.3598    -9.0478    -5.6186  C.2     1  <O>11       0.1676
   3 C2        2.8830    -9.8060    -4.4250  C.3     1  <O>11       0.0356
   4 C3        2.8825   -11.2511    -4.7281  C.ar    1  <O>11      -0.0399
   5 C4        4.0283   -12.0052    -4.4647  C.ar    1  <O>11      -0.0582
   6 C5        4.0388   -13.3719    -4.7612  C.ar    1  <O>11      -0.0615
   7 C6        2.9096   -13.9811    -5.3134  C.ar    1  <O>11      -0.0617
   8 C7        1.7674   -13.2136    -5.5663  C.ar    1  <O>11      -0.0615
   9 C8        1.7450   -11.8492    -5.2725  C.ar    1  <O>11      -0.0582
  10 C9        4.4600    -9.5670    -6.4200  C.ar    1  <O>11       0.0236
  11 C10       5.7211    -9.7810    -5.8396  C.ar    1  <O>11      -0.0059
  12 C11       6.7800   -10.2675    -6.6133  C.ar    1  <O>11       0.1612
  13 O2        7.9392   -10.4575    -6.0689  O.3     1  <O>11      -0.5032
  14 C12       6.5911   -10.5491    -7.9681  C.ar    1  <O>11       0.1889
  15 O3        7.5679   -10.9991    -8.6887  O.3     1  <O>11      -0.5018
  16 C13       5.3330   -10.3404    -8.5462  C.ar    1  <O>11       0.1671
  17 N1        5.1422   -10.6312    -9.9440  N.4     1  <O>11       0.0097
  18 O4        6.0411    -9.8134   -10.7358  O.2     1  <O>11      -0.1299
  19 O5        3.7721   -10.3406   -10.3164  O.2     1  <O>11      -0.3960
  20 C14       4.2693    -9.8571    -7.7817  C.ar    1  <O>11      -0.0173
  21 H1        3.5462    -9.6112    -3.5823  H       1  <O>11       0.0394
  22 H2        1.8713    -9.4872    -4.1724  H       1  <O>11       0.0394
  23 H3        8.5584   -10.7946    -6.7338  H       1  <O>11       0.2923
  24 H4        7.2611   -11.1384    -9.5989  H       1  <O>11       0.2924
  25 H5        4.8619   -11.5566    -4.0537  H       1  <O>11       0.0620
  26 H6        4.8842   -13.9326    -4.5712  H       1  <O>11       0.0618
  27 H7        2.9177   -14.9894    -5.5332  H       1  <O>11       0.0618
  28 H8        0.9321   -13.6612    -5.9747  H       1  <O>11       0.0618
  29 H9        0.8975   -11.2895    -5.4556  H       1  <O>11       0.0620
  30 H10       5.8670    -9.5784    -4.8383  H       1  <O>11       0.0662
  31 H11       3.0664   -10.7892    -9.8936  H       1  <O>11       0.3292
  32 H12       3.3443    -9.7132    -8.2161  H       1  <O>11       0.0648
@<TRIPOS>BOND
     1     1     2    2
     2     2     3    1
     3     3     4    1
     4     4     5   ar
     5     5     6   ar
     6     6     7   ar
     7     7     8   ar
     8     8     9   ar
     9     4     9   ar
    10     2    10    1
    11    10    11   ar
    12    11    12   ar
    13    12    13    1
    14    12    14   ar
    15    14    15    1
    16    14    16   ar
    17    16    17    1
    18    17    18    2
    19    17    19    1
    20    16    20   ar
    21    10    20   ar
    22     3    21    1
    23     3    22    1
    24    13    23    1
    25    15    24    1
    26     5    25    1
    27     6    26    1
    28     7    27    1
    29     8    28    1
    30     9    29    1
    31    11    30    1
    32    19    31    1
    33    20    32    1
@<TRIPOS>MOLECULE
mol44_1_28
 32 33 0 0 0
SMALL
USER_CHARGES
****
VDW energy = 141.84
@<TRIPOS>ATOM
   1 O1        2.8275    -7.9910    -5.9239  O.2     1  <O>11      -0.2917
   2 C1        3.3598    -9.0478    -5.6186  C.2     1  <O>11       0.1676
   3 C2        2.8830    -9.8060    -4.4250  C.3     1  <O>11       0.0356
   4 C3        3.2094    -9.0501    -3.1994  C.ar    1  <O>11      -0.0399
   5 C4        2.8526    -9.5768    -1.9560  C.ar    1  <O>11      -0.0582
   6 C5        3.1475    -8.8599    -0.7919  C.ar    1  <O>11      -0.0615
   7 C6        3.7987    -7.6265    -0.8707  C.ar    1  <O>11      -0.0617
   8 C7        4.1548    -7.1148    -2.1232  C.ar    1  <O>11      -0.0615
   9 C8        3.8673    -7.8225    -3.2915  C.ar    1  <O>11      -0.0582
  10 C9        4.4600    -9.5670    -6.4200  C.ar    1  <O>11       0.0236
  11 C10       4.2750   -10.6998    -7.2296  C.ar    1  <O>11      -0.0059
  12 C11       5.3357   -11.2049    -7.9887  C.ar    1  <O>11       0.1612
  13 O2        5.1551   -12.2518    -8.7286  O.3     1  <O>11      -0.5032
  14 C12       6.5863   -10.5842    -7.9519  C.ar    1  <O>11       0.1889
  15 O3        7.5715   -11.0478    -8.6521  O.3     1  <O>11      -0.5018
  16 C13       6.7702    -9.4522    -7.1486  C.ar    1  <O>11       0.1671
  17 N1        8.0616    -8.8153    -7.1126  N.4     1  <O>11       0.0097
  18 O4        8.7306    -9.0047    -8.3855  O.2     1  <O>11      -0.1299
  19 O5        8.8614    -9.4019    -6.0558  O.2     1  <O>11      -0.3960
  20 C14       5.7169    -8.9394    -6.3889  C.ar    1  <O>11      -0.0173
  21 H1        1.8039    -9.9449    -4.4903  H       1  <O>11       0.0394
  22 H2        3.3734   -10.7794    -4.3932  H       1  <O>11       0.0394
  23 H3        5.9803   -12.4716    -9.1867  H       1  <O>11       0.2923
  24 H4        8.3582   -10.4983    -8.5075  H       1  <O>11       0.2924
  25 H5        2.3744   -10.4893    -1.8966  H       1  <O>11       0.0620
  26 H6        2.8831    -9.2435     0.1289  H       1  <O>11       0.0618
  27 H7        4.0154    -7.0970    -0.0118  H       1  <O>11       0.0618
  28 H8        4.6355    -6.2036    -2.1841  H       1  <O>11       0.0618
  29 H9        4.1379    -7.4427    -4.2121  H       1  <O>11       0.0620
  30 H10       3.3527   -11.1615    -7.2645  H       1  <O>11       0.0662
  31 H11       8.5653    -9.3633    -5.1677  H       1  <O>11       0.3292
  32 H12       5.8613    -8.1005    -5.8054  H       1  <O>11       0.0648
@<TRIPOS>BOND
     1     1     2    2
     2     2     3    1
     3     3     4    1
     4     4     5   ar
     5     5     6   ar
     6     6     7   ar
     7     7     8   ar
     8     8     9   ar
     9     4     9   ar
    10     2    10    1
    11    10    11   ar
    12    11    12   ar
    13    12    13    1
    14    12    14   ar
    15    14    15    1
    16    14    16   ar
    17    16    17    1
    18    17    18    2
    19    17    19    1
    20    16    20   ar
    21    10    20   ar
    22     3    21    1
    23     3    22    1
    24    13    23    1
    25    15    24    1
    26     5    25    1
    27     6    26    1
    28     7    27    1
    29     8    28    1
    30     9    29    1
    31    11    30    1
    32    19    31    1
    33    20    32    1
@<TRIPOS>MOLECULE
mol44_1_29
 32 33 0 0 0
SMALL
USER_CHARGES
****
VDW energy = 150.36
@<TRIPOS>ATOM
   1 O1        2.8275    -7.9910    -5.9239  O.2     1  <O>11      -0.2917
   2 C1        3.3598    -9.0478    -5.6186  C.2     1  <O>11       0.1676
   3 C2        2.8830    -9.8060    -4.4250  C.3     1  <O>11       0.0356
   4 C3        4.0421   -10.3713    -3.7061  C.ar    1  <O>11      -0.0399
   5 C4        4.6548    -9.6209    -2.6999  C.ar    1  <O>11      -0.0582
   6 C5        5.7610   -10.1454    -2.0237  C.ar    1  <O>11      -0.0615
   7 C6        6.2485   -11.4135    -2.3487  C.ar    1  <O>11      -0.0617
   8 C7        5.6204   -12.1555    -3.3550  C.ar    1  <O>11      -0.0615
   9 C8        4.5145   -11.6429    -4.0351  C.ar    1  <O>11      -0.0582
  10 C9        4.4600    -9.5670    -6.4200  C.ar    1  <O>11       0.0236
  11 C10       5.7211    -9.7810    -5.8396  C.ar    1  <O>11      -0.0059
  12 C11       6.7800   -10.2675    -6.6133  C.ar    1  <O>11       0.1612
  13 O2        7.9392   -10.4575    -6.0689  O.3     1  <O>11      -0.5032
  14 C12       6.5911   -10.5491    -7.9681  C.ar    1  <O>11       0.1889
  15 O3        7.5679   -10.9991    -8.6887  O.3     1  <O>11      -0.5018
  16 C13       5.3330   -10.3404    -8.5462  C.ar    1  <O>11       0.1671
  17 N1        5.1422   -10.6312    -9.9440  N.4     1  <O>11       0.0097
  18 O4        6.0411    -9.8134   -10.7358  O.2     1  <O>11      -0.1299
  19 O5        3.7721   -10.3406   -10.3164  O.2     1  <O>11      -0.3960
  20 C14       4.2693    -9.8571    -7.7817  C.ar    1  <O>11      -0.0173
  21 H1        2.3363    -9.1346    -3.7629  H       1  <O>11       0.0394
  22 H2        2.2253   -10.6140    -4.7468  H       1  <O>11       0.0394
  23 H3        8.5584   -10.7946    -6.7338  H       1  <O>11       0.2923
  24 H4        7.2611   -11.1384    -9.5989  H       1  <O>11       0.2924
  25 H5        4.2935    -8.6853    -2.4569  H       1  <O>11       0.0620
  26 H6        6.2190    -9.5934    -1.2817  H       1  <O>11       0.0618
  27 H7        7.0654   -11.8001    -1.8504  H       1  <O>11       0.0618
  28 H8        5.9790   -13.0924    -3.5972  H       1  <O>11       0.0618
  29 H9        4.0518   -12.1974    -4.7723  H       1  <O>11       0.0620
  30 H10       5.8670    -9.5784    -4.8383  H       1  <O>11       0.0662
  31 H11       3.0664   -10.7892    -9.8936  H       1  <O>11       0.3292
  32 H12       3.3443    -9.7132    -8.2161  H       1  <O>11       0.0648
@<TRIPOS>BOND
     1     1     2    2
     2     2     3    1
     3     3     4    1
     4     4     5   ar
     5     5     6   ar
     6     6     7   ar
     7     7     8   ar
     8     8     9   ar
     9     4     9   ar
    10     2    10    1
    11    10    11   ar
    12    11    12   ar
    13    12    13    1
    14    12    14   ar
    15    14    15    1
    16    14    16   ar
    17    16    17    1
    18    17    18    2
    19    17    19    1
    20    16    20   ar
    21    10    20   ar
    22     3    21    1
    23     3    22    1
    24    13    23    1
    25    15    24    1
    26     5    25    1
    27     6    26    1
    28     7    27    1
    29     8    28    1
    30     9    29    1
    31    11    30    1
    32    19    31    1
    33    20    32    1
@<TRIPOS>MOLECULE
mol44_1_30
 32 33 0 0 0
SMALL
USER_CHARGES
****
VDW energy = 150.57
@<TRIPOS>ATOM
   1 O1        2.8275    -7.9910    -5.9239  O.2     1  <O>11      -0.2917
   2 C1        3.3598    -9.0478    -5.6186  C.2     1  <O>11       0.1676
   3 C2        2.8830    -9.8060    -4.4250  C.3     1  <O>11       0.0356
   4 C3        4.0421   -10.3713    -3.7061  C.ar    1  <O>11      -0.0399
   5 C4        4.6548    -9.6209    -2.6999  C.ar    1  <O>11      -0.0582
   6 C5        5.7610   -10.1454    -2.0237  C.ar    1  <O>11      -0.0615
   7 C6        6.2485   -11.4135    -2.3487  C.ar    1  <O>11      -0.0617
   8 C7        5.6204   -12.1555    -3.3550  C.ar    1  <O>11      -0.0615
   9 C8        4.5145   -11.6429    -4.0351  C.ar    1  <O>11      -0.0582
  10 C9        4.4600    -9.5670    -6.4200  C.ar    1  <O>11       0.0236
  11 C10       5.7211    -9.7810    -5.8396  C.ar    1  <O>11      -0.0059
  12 C11       6.7800   -10.2675    -6.6133  C.ar    1  <O>11       0.1612
  13 O2        7.9392   -10.4575    -6.0689  O.3     1  <O>11      -0.5032
  14 C12       6.5911   -10.5491    -7.9681  C.ar    1  <O>11       0.1889
  15 O3        7.5679   -10.9991    -8.6887  O.3     1  <O>11      -0.5018
  16 C13       5.3330   -10.3404    -8.5462  C.ar    1  <O>11       0.1671
  17 N1        5.1422   -10.6312    -9.9440  N.4     1  <O>11       0.0097
  18 O4        6.0316   -11.7062   -10.3406  O.2     1  <O>11      -0.1299
  19 O5        5.4353    -9.4487   -10.7290  O.2     1  <O>11      -0.3960
  20 C14       4.2693    -9.8571    -7.7817  C.ar    1  <O>11      -0.0173
  21 H1        2.3363    -9.1346    -3.7629  H       1  <O>11       0.0394
  22 H2        2.2253   -10.6140    -4.7468  H       1  <O>11       0.0394
  23 H3        8.5584   -10.7946    -6.7338  H       1  <O>11       0.2923
  24 H4        7.2611   -11.1384    -9.5989  H       1  <O>11       0.2924
  25 H5        4.2935    -8.6853    -2.4569  H       1  <O>11       0.0620
  26 H6        6.2190    -9.5934    -1.2817  H       1  <O>11       0.0618
  27 H7        7.0654   -11.8001    -1.8504  H       1  <O>11       0.0618
  28 H8        5.9790   -13.0924    -3.5972  H       1  <O>11       0.0618
  29 H9        4.0518   -12.1974    -4.7723  H       1  <O>11       0.0620
  30 H10       5.8670    -9.5784    -4.8383  H       1  <O>11       0.0662
  31 H11       4.9446    -8.6622   -10.5925  H       1  <O>11       0.3292
  32 H12       3.3443    -9.7132    -8.2161  H       1  <O>11       0.0648
@<TRIPOS>BOND
     1     1     2    2
     2     2     3    1
     3     3     4    1
     4     4     5   ar
     5     5     6   ar
     6     6     7   ar
     7     7     8   ar
     8     8     9   ar
     9     4     9   ar
    10     2    10    1
    11    10    11   ar
    12    11    12   ar
    13    12    13    1
    14    12    14   ar
    15    14    15    1
    16    14    16   ar
    17    16    17    1
    18    17    18    2
    19    17    19    1
    20    16    20   ar
    21    10    20   ar
    22     3    21    1
    23     3    22    1
    24    13    23    1
    25    15    24    1
    26     5    25    1
    27     6    26    1
    28     7    27    1
    29     8    28    1
    30     9    29    1
    31    11    30    1
    32    19    31    1
    33    20    32    1
