@<TRIPOS>MOLECULE
mol40_1_1
 37 39 0 0 0
SMALL
USER_CHARGES
****
VDW energy = -71.62
@<TRIPOS>ATOM
   1 O1        8.7381    -1.4068    -2.6744  O.2     1  <O>11      -0.2754
   2 C1        7.6234    -1.0459    -3.0216  C.2     1  <O>11       0.2192
   3 C2        6.7510    -0.2990    -2.0700  C.3     1  <O>11       0.0685
   4 C3        7.4590    -0.1250    -0.7860  C.ar    1  <O>11       0.0780
   5 N1        8.2092     1.0001    -0.6747  N.ar    1  <O>11      -0.1748
   6 N2        8.9699     1.1805     0.4285  N.ar    1  <O>11      -0.2425
   7 C4        8.9575     0.2366     1.3986  C.ar    1  <O>11       0.2725
   8 O2        9.8445     0.4380     2.4732  O.2     1  <O>11      -0.2658
   9 C5        8.1258    -0.8927     1.3798  C.ar    1  <O>11       0.0496
  10 C6        8.0677    -1.8485     2.4186  C.ar    1  <O>11      -0.0487
  11 C7        7.2409    -2.9685     2.3203  C.ar    1  <O>11      -0.0610
  12 C8        6.4634    -3.1576     1.1837  C.ar    1  <O>11      -0.0611
  13 C9        6.5139    -2.2287     0.1435  C.ar    1  <O>11      -0.0521
  14 C10       7.3393    -1.0836     0.2288  C.ar    1  <O>11       0.0108
  15 N3        7.1750    -1.3270    -4.2840  N.am    1  <O>11      -0.3109
  16 C11       8.0290    -2.0580    -5.2160  C.3     1  <O>11       0.0368
  17 C12       9.2834    -1.2940    -5.4425  C.ar    1  <O>11      -0.0302
  18 C13       9.2359     0.0044    -5.9788  C.ar    1  <O>11      -0.0544
  19 C14      10.4188     0.7177    -6.2030  C.ar    1  <O>11      -0.0261
  20 C15      11.6551     0.1457    -5.8923  C.ar    1  <O>11       0.1234
  21 F1       12.8172     0.8392    -6.1123  F       1  <O>11      -0.2055
  22 C16      11.7018    -1.1446    -5.3534  C.ar    1  <O>11      -0.0261
  23 C17      10.5272    -1.8637    -5.1238  C.ar    1  <O>11      -0.0544
  24 H1        6.5110     0.6790    -2.4880  H       1  <O>11       0.0423
  25 H2        5.8310    -0.8590    -1.9040  H       1  <O>11       0.0423
  26 H3        9.5407     2.0084     0.5251  H       1  <O>11       0.1921
  27 H4        6.2450    -1.0260    -4.5740  H       1  <O>11       0.1490
  28 H5        7.5059    -2.1868    -6.1642  H       1  <O>11       0.0512
  29 H6        8.2692    -3.0357    -4.7988  H       1  <O>11       0.0512
  30 H7        8.6457    -1.7163     3.2633  H       1  <O>11       0.0625
  31 H8        7.2067    -3.6549     3.0901  H       1  <O>11       0.0618
  32 H9        5.8496    -3.9840     1.1091  H       1  <O>11       0.0618
  33 H10       5.9402    -2.3797    -0.7009  H       1  <O>11       0.0624
  34 H11       8.3255     0.4332    -6.2079  H       1  <O>11       0.0622
  35 H12      10.3778     1.6697    -6.5993  H       1  <O>11       0.0646
  36 H13      12.6139    -1.5692    -5.1233  H       1  <O>11       0.0646
  37 H14      10.5728    -2.8125    -4.7204  H       1  <O>11       0.0622
@<TRIPOS>BOND
     1     1     2    2
     2     2     3    1
     3     3     4    1
     4     4     5   ar
     5     5     6   ar
     6     6     7   ar
     7     7     8    2
     8     7     9   ar
     9     9    10   ar
    10    10    11   ar
    11    11    12   ar
    12    12    13   ar
    13    13    14   ar
    14     4    14   ar
    15     9    14   ar
    16     2    15   am
    17    15    16    1
    18    16    17    1
    19    17    18   ar
    20    18    19   ar
    21    19    20   ar
    22    20    21    1
    23    20    22   ar
    24    22    23   ar
    25    17    23   ar
    26     3    24    1
    27     3    25    1
    28     6    26    1
    29    15    27    1
    30    16    28    1
    31    16    29    1
    32    10    30    1
    33    11    31    1
    34    12    32    1
    35    13    33    1
    36    18    34    1
    37    19    35    1
    38    22    36    1
    39    23    37    1
@<TRIPOS>MOLECULE
mol40_1_2
 37 39 0 0 0
SMALL
USER_CHARGES
****
VDW energy = -69.05
@<TRIPOS>ATOM
   1 O1        8.7381    -1.4068    -2.6744  O.2     1  <O>11      -0.2754
   2 C1        7.6234    -1.0459    -3.0216  C.2     1  <O>11       0.2192
   3 C2        6.7510    -0.2990    -2.0700  C.3     1  <O>11       0.0685
   4 C3        6.0363     0.7713    -2.7938  C.ar    1  <O>11       0.0780
   5 N1        4.8336     0.4260    -3.3186  N.ar    1  <O>11      -0.1748
   6 N2        4.1659     1.3185    -4.0840  N.ar    1  <O>11      -0.2425
   7 C4        4.7113     2.5383    -4.3008  C.ar    1  <O>11       0.2725
   8 O2        4.0132     3.3831    -5.1844  O.2     1  <O>11      -0.2658
   9 C5        5.8997     2.9808    -3.7014  C.ar    1  <O>11       0.0496
  10 C6        6.4401     4.2740    -3.8790  C.ar    1  <O>11      -0.0487
  11 C7        7.6461     4.6385    -3.2787  C.ar    1  <O>11      -0.0610
  12 C8        8.3361     3.7192    -2.4970  C.ar    1  <O>11      -0.0611
  13 C9        7.8222     2.4343    -2.3170  C.ar    1  <O>11      -0.0521
  14 C10       6.5976     2.0497    -2.9105  C.ar    1  <O>11       0.0108
  15 N3        7.1750    -1.3270    -4.2840  N.am    1  <O>11      -0.3109
  16 C11       8.0290    -2.0580    -5.2160  C.3     1  <O>11       0.0368
  17 C12       7.3160    -2.2340    -6.5080  C.ar    1  <O>11      -0.0302
  18 C13       6.8973    -1.1129    -7.2453  C.ar    1  <O>11      -0.0544
  19 C14       6.2151    -1.2805    -8.4556  C.ar    1  <O>11      -0.0261
  20 C15       5.9483    -2.5631    -8.9413  C.ar    1  <O>11       0.1234
  21 F1        5.2781    -2.7329   -10.1253  F       1  <O>11      -0.2055
  22 C16       6.3700    -3.6787    -8.2100  C.ar    1  <O>11      -0.0261
  23 C17       7.0534    -3.5223    -7.0024  C.ar    1  <O>11      -0.0544
  24 H1        6.0274    -0.9835    -1.6265  H       1  <O>11       0.0423
  25 H2        7.3639     0.1414    -1.2839  H       1  <O>11       0.0423
  26 H3        3.2730     1.0761    -4.4893  H       1  <O>11       0.1921
  27 H4        6.2450    -1.0260    -4.5740  H       1  <O>11       0.1490
  28 H5        8.2700    -3.0360    -4.7980  H       1  <O>11       0.0512
  29 H6        8.9490    -1.4980    -5.3820  H       1  <O>11       0.0512
  30 H7        5.9351     4.9599    -4.4618  H       1  <O>11       0.0625
  31 H8        8.0250     5.5887    -3.4149  H       1  <O>11       0.0618
  32 H9        9.2273     3.9866    -2.0503  H       1  <O>11       0.0618
  33 H10       8.3439     1.7544    -1.7420  H       1  <O>11       0.0624
  34 H11       7.0937    -0.1630    -6.8928  H       1  <O>11       0.0622
  35 H12       5.9079    -0.4537    -8.9913  H       1  <O>11       0.0646
  36 H13       6.1740    -4.6271    -8.5667  H       1  <O>11       0.0646
  37 H14       7.3651    -4.3521    -6.4739  H       1  <O>11       0.0622
@<TRIPOS>BOND
     1     1     2    2
     2     2     3    1
     3     3     4    1
     4     4     5   ar
     5     5     6   ar
     6     6     7   ar
     7     7     8    2
     8     7     9   ar
     9     9    10   ar
    10    10    11   ar
    11    11    12   ar
    12    12    13   ar
    13    13    14   ar
    14     4    14   ar
    15     9    14   ar
    16     2    15   am
    17    15    16    1
    18    16    17    1
    19    17    18   ar
    20    18    19   ar
    21    19    20   ar
    22    20    21    1
    23    20    22   ar
    24    22    23   ar
    25    17    23   ar
    26     3    24    1
    27     3    25    1
    28     6    26    1
    29    15    27    1
    30    16    28    1
    31    16    29    1
    32    10    30    1
    33    11    31    1
    34    12    32    1
    35    13    33    1
    36    18    34    1
    37    19    35    1
    38    22    36    1
    39    23    37    1
@<TRIPOS>MOLECULE
mol40_1_3
 37 39 0 0 0
SMALL
USER_CHARGES
****
VDW energy = -66.93
@<TRIPOS>ATOM
   1 O1        8.7381    -1.4068    -2.6744  O.2     1  <O>11      -0.2754
   2 C1        7.6234    -1.0459    -3.0216  C.2     1  <O>11       0.2192
   3 C2        6.7510    -0.2990    -2.0700  C.3     1  <O>11       0.0685
   4 C3        7.4590    -0.1250    -0.7860  C.ar    1  <O>11       0.0780
   5 N1        7.6639     1.1582    -0.3954  N.ar    1  <O>11      -0.1748
   6 N2        8.3957     1.4019     0.7151  N.ar    1  <O>11      -0.2425
   7 C4        8.8992     0.3580     1.4143  C.ar    1  <O>11       0.2725
   8 O2        9.7320     0.6822     2.5022  O.2     1  <O>11      -0.2658
   9 C5        8.6336    -0.9858     1.1124  C.ar    1  <O>11       0.0496
  10 C6        9.1091    -2.0758     1.8752  C.ar    1  <O>11      -0.0487
  11 C7        8.8347    -3.3914     1.4988  C.ar    1  <O>11      -0.0610
  12 C8        8.0878    -3.6426     0.3537  C.ar    1  <O>11      -0.0611
  13 C9        7.6169    -2.5789    -0.4172  C.ar    1  <O>11      -0.0521
  14 C10       7.8777    -1.2393    -0.0470  C.ar    1  <O>11       0.0108
  15 N3        7.1750    -1.3270    -4.2840  N.am    1  <O>11      -0.3109
  16 C11       8.0290    -2.0580    -5.2160  C.3     1  <O>11       0.0368
  17 C12       7.3160    -2.2340    -6.5080  C.ar    1  <O>11      -0.0302
  18 C13       6.8973    -1.1129    -7.2453  C.ar    1  <O>11      -0.0544
  19 C14       6.2151    -1.2805    -8.4556  C.ar    1  <O>11      -0.0261
  20 C15       5.9483    -2.5631    -8.9413  C.ar    1  <O>11       0.1234
  21 F1        5.2781    -2.7329   -10.1253  F       1  <O>11      -0.2055
  22 C16       6.3700    -3.6787    -8.2100  C.ar    1  <O>11      -0.0261
  23 C17       7.0534    -3.5223    -7.0024  C.ar    1  <O>11      -0.0544
  24 H1        6.5110     0.6790    -2.4880  H       1  <O>11       0.0423
  25 H2        5.8310    -0.8590    -1.9040  H       1  <O>11       0.0423
  26 H3        8.5650     2.3511     1.0166  H       1  <O>11       0.1921
  27 H4        6.2450    -1.0260    -4.5740  H       1  <O>11       0.1490
  28 H5        8.2700    -3.0360    -4.7980  H       1  <O>11       0.0512
  29 H6        8.9490    -1.4980    -5.3820  H       1  <O>11       0.0512
  30 H7        9.6679    -1.8963     2.7240  H       1  <O>11       0.0625
  31 H8        9.1858    -4.1762     2.0695  H       1  <O>11       0.0618
  32 H9        7.8818    -4.6144     0.0740  H       1  <O>11       0.0618
  33 H10       7.0699    -2.7729    -1.2706  H       1  <O>11       0.0624
  34 H11       7.0937    -0.1630    -6.8928  H       1  <O>11       0.0622
  35 H12       5.9079    -0.4537    -8.9913  H       1  <O>11       0.0646
  36 H13       6.1740    -4.6271    -8.5667  H       1  <O>11       0.0646
  37 H14       7.3651    -4.3521    -6.4739  H       1  <O>11       0.0622
@<TRIPOS>BOND
     1     1     2    2
     2     2     3    1
     3     3     4    1
     4     4     5   ar
     5     5     6   ar
     6     6     7   ar
     7     7     8    2
     8     7     9   ar
     9     9    10   ar
    10    10    11   ar
    11    11    12   ar
    12    12    13   ar
    13    13    14   ar
    14     4    14   ar
    15     9    14   ar
    16     2    15   am
    17    15    16    1
    18    16    17    1
    19    17    18   ar
    20    18    19   ar
    21    19    20   ar
    22    20    21    1
    23    20    22   ar
    24    22    23   ar
    25    17    23   ar
    26     3    24    1
    27     3    25    1
    28     6    26    1
    29    15    27    1
    30    16    28    1
    31    16    29    1
    32    10    30    1
    33    11    31    1
    34    12    32    1
    35    13    33    1
    36    18    34    1
    37    19    35    1
    38    22    36    1
    39    23    37    1
@<TRIPOS>MOLECULE
mol40_1_4
 37 39 0 0 0
SMALL
USER_CHARGES
****
VDW energy = -66.91
@<TRIPOS>ATOM
   1 O1        8.7381    -1.4068    -2.6744  O.2     1  <O>11      -0.2754
   2 C1        7.6234    -1.0459    -3.0216  C.2     1  <O>11       0.2192
   3 C2        6.7510    -0.2990    -2.0700  C.3     1  <O>11       0.0685
   4 C3        7.4590    -0.1250    -0.7860  C.ar    1  <O>11       0.0780
   5 N1        7.6639     1.1582    -0.3954  N.ar    1  <O>11      -0.1748
   6 N2        8.3957     1.4019     0.7151  N.ar    1  <O>11      -0.2425
   7 C4        8.8992     0.3580     1.4143  C.ar    1  <O>11       0.2725
   8 O2        9.7320     0.6822     2.5022  O.2     1  <O>11      -0.2658
   9 C5        8.6336    -0.9858     1.1124  C.ar    1  <O>11       0.0496
  10 C6        9.1091    -2.0758     1.8752  C.ar    1  <O>11      -0.0487
  11 C7        8.8347    -3.3914     1.4988  C.ar    1  <O>11      -0.0610
  12 C8        8.0878    -3.6426     0.3537  C.ar    1  <O>11      -0.0611
  13 C9        7.6169    -2.5789    -0.4172  C.ar    1  <O>11      -0.0521
  14 C10       7.8777    -1.2393    -0.0470  C.ar    1  <O>11       0.0108
  15 N3        7.1750    -1.3270    -4.2840  N.am    1  <O>11      -0.3109
  16 C11       8.0290    -2.0580    -5.2160  C.3     1  <O>11       0.0368
  17 C12       7.3160    -2.2340    -6.5080  C.ar    1  <O>11      -0.0302
  18 C13       6.0954    -2.9294    -6.5553  C.ar    1  <O>11      -0.0544
  19 C14       5.4315    -3.1050    -7.7746  C.ar    1  <O>11      -0.0261
  20 C15       5.9754    -2.5874    -8.9529  C.ar    1  <O>11       0.1234
  21 F1        5.3303    -2.7587   -10.1506  F       1  <O>11      -0.2055
  22 C16       7.1876    -1.8906    -8.9047  C.ar    1  <O>11      -0.0261
  23 C17       7.8567    -1.7080    -7.6929  C.ar    1  <O>11      -0.0544
  24 H1        6.5110     0.6790    -2.4880  H       1  <O>11       0.0423
  25 H2        5.8310    -0.8590    -1.9040  H       1  <O>11       0.0423
  26 H3        8.5650     2.3511     1.0166  H       1  <O>11       0.1921
  27 H4        6.2450    -1.0260    -4.5740  H       1  <O>11       0.1490
  28 H5        8.2700    -3.0360    -4.7980  H       1  <O>11       0.0512
  29 H6        8.9490    -1.4980    -5.3820  H       1  <O>11       0.0512
  30 H7        9.6679    -1.8963     2.7240  H       1  <O>11       0.0625
  31 H8        9.1858    -4.1762     2.0695  H       1  <O>11       0.0618
  32 H9        7.8818    -4.6144     0.0740  H       1  <O>11       0.0618
  33 H10       7.0699    -2.7729    -1.2706  H       1  <O>11       0.0624
  34 H11       5.6874    -3.3118    -5.6879  H       1  <O>11       0.0622
  35 H12       4.5369    -3.6186    -7.8036  H       1  <O>11       0.0646
  36 H13       7.5914    -1.5075    -9.7738  H       1  <O>11       0.0646
  37 H14       8.7474    -1.1873    -7.6678  H       1  <O>11       0.0622
@<TRIPOS>BOND
     1     1     2    2
     2     2     3    1
     3     3     4    1
     4     4     5   ar
     5     5     6   ar
     6     6     7   ar
     7     7     8    2
     8     7     9   ar
     9     9    10   ar
    10    10    11   ar
    11    11    12   ar
    12    12    13   ar
    13    13    14   ar
    14     4    14   ar
    15     9    14   ar
    16     2    15   am
    17    15    16    1
    18    16    17    1
    19    17    18   ar
    20    18    19   ar
    21    19    20   ar
    22    20    21    1
    23    20    22   ar
    24    22    23   ar
    25    17    23   ar
    26     3    24    1
    27     3    25    1
    28     6    26    1
    29    15    27    1
    30    16    28    1
    31    16    29    1
    32    10    30    1
    33    11    31    1
    34    12    32    1
    35    13    33    1
    36    18    34    1
    37    19    35    1
    38    22    36    1
    39    23    37    1
@<TRIPOS>MOLECULE
mol40_1_5
 37 39 0 0 0
SMALL
USER_CHARGES
****
VDW energy = -66.57
@<TRIPOS>ATOM
   1 O1        8.7381    -1.4068    -2.6744  O.2     1  <O>11      -0.2754
   2 C1        7.6234    -1.0459    -3.0216  C.2     1  <O>11       0.2192
   3 C2        6.7510    -0.2990    -2.0700  C.3     1  <O>11       0.0685
   4 C3        7.4590    -0.1250    -0.7860  C.ar    1  <O>11       0.0780
   5 N1        7.6639     1.1582    -0.3954  N.ar    1  <O>11      -0.1748
   6 N2        8.3957     1.4019     0.7151  N.ar    1  <O>11      -0.2425
   7 C4        8.8992     0.3580     1.4143  C.ar    1  <O>11       0.2725
   8 O2        9.7320     0.6822     2.5022  O.2     1  <O>11      -0.2658
   9 C5        8.6336    -0.9858     1.1124  C.ar    1  <O>11       0.0496
  10 C6        9.1091    -2.0758     1.8752  C.ar    1  <O>11      -0.0487
  11 C7        8.8347    -3.3914     1.4988  C.ar    1  <O>11      -0.0610
  12 C8        8.0878    -3.6426     0.3537  C.ar    1  <O>11      -0.0611
  13 C9        7.6169    -2.5789    -0.4172  C.ar    1  <O>11      -0.0521
  14 C10       7.8777    -1.2393    -0.0470  C.ar    1  <O>11       0.0108
  15 N3        7.1750    -1.3270    -4.2840  N.am    1  <O>11      -0.3109
  16 C11       5.8429    -0.8955    -4.6984  C.3     1  <O>11       0.0368
  17 C12       5.5986    -1.3197    -6.1016  C.ar    1  <O>11      -0.0302
  18 C13       5.9454    -0.4733    -7.1688  C.ar    1  <O>11      -0.0544
  19 C14       5.7032    -0.8691    -8.4891  C.ar    1  <O>11      -0.0261
  20 C15       5.1182    -2.1095    -8.7558  C.ar    1  <O>11       0.1234
  21 F1        4.8765    -2.5012   -10.0474  F       1  <O>11      -0.2055
  22 C16       4.7781    -2.9541    -7.6936  C.ar    1  <O>11      -0.0261
  23 C17       5.0177    -2.5696    -6.3728  C.ar    1  <O>11      -0.0544
  24 H1        6.5110     0.6790    -2.4880  H       1  <O>11       0.0423
  25 H2        5.8310    -0.8590    -1.9040  H       1  <O>11       0.0423
  26 H3        8.5650     2.3511     1.0166  H       1  <O>11       0.1921
  27 H4        7.7706    -1.8377    -4.9351  H       1  <O>11       0.1490
  28 H5        5.7748     0.1908    -4.6302  H       1  <O>11       0.0512
  29 H6        5.0953    -1.3472    -4.0468  H       1  <O>11       0.0512
  30 H7        9.6679    -1.8963     2.7240  H       1  <O>11       0.0625
  31 H8        9.1858    -4.1762     2.0695  H       1  <O>11       0.0618
  32 H9        7.8818    -4.6144     0.0740  H       1  <O>11       0.0618
  33 H10       7.0699    -2.7729    -1.2706  H       1  <O>11       0.0624
  34 H11       6.3802     0.4430    -6.9781  H       1  <O>11       0.0622
  35 H12       5.9577    -0.2424    -9.2685  H       1  <O>11       0.0646
  36 H13       4.3457    -3.8707    -7.8882  H       1  <O>11       0.0646
  37 H14       4.7682    -3.2027    -5.5970  H       1  <O>11       0.0622
@<TRIPOS>BOND
     1     1     2    2
     2     2     3    1
     3     3     4    1
     4     4     5   ar
     5     5     6   ar
     6     6     7   ar
     7     7     8    2
     8     7     9   ar
     9     9    10   ar
    10    10    11   ar
    11    11    12   ar
    12    12    13   ar
    13    13    14   ar
    14     4    14   ar
    15     9    14   ar
    16     2    15   am
    17    15    16    1
    18    16    17    1
    19    17    18   ar
    20    18    19   ar
    21    19    20   ar
    22    20    21    1
    23    20    22   ar
    24    22    23   ar
    25    17    23   ar
    26     3    24    1
    27     3    25    1
    28     6    26    1
    29    15    27    1
    30    16    28    1
    31    16    29    1
    32    10    30    1
    33    11    31    1
    34    12    32    1
    35    13    33    1
    36    18    34    1
    37    19    35    1
    38    22    36    1
    39    23    37    1
@<TRIPOS>MOLECULE
mol40_1_6
 37 39 0 0 0
SMALL
USER_CHARGES
****
VDW energy = -64.74
@<TRIPOS>ATOM
   1 O1        8.7381    -1.4068    -2.6744  O.2     1  <O>11      -0.2754
   2 C1        7.6234    -1.0459    -3.0216  C.2     1  <O>11       0.2192
   3 C2        6.7510    -0.2990    -2.0700  C.3     1  <O>11       0.0685
   4 C3        7.4590    -0.1250    -0.7860  C.ar    1  <O>11       0.0780
   5 N1        6.8538    -0.6703     0.2991  N.ar    1  <O>11      -0.1748
   6 N2        7.3853    -0.4644     1.5252  N.ar    1  <O>11      -0.2425
   7 C4        8.5136     0.2748     1.6382  C.ar    1  <O>11       0.2725
   8 O2        8.9591     0.5326     2.9486  O.2     1  <O>11      -0.2658
   9 C5        9.2332     0.7751     0.5432  C.ar    1  <O>11       0.0496
  10 C6       10.4429     1.4963     0.6557  C.ar    1  <O>11      -0.0487
  11 C7       11.0908     1.9952    -0.4752  C.ar    1  <O>11      -0.0610
  12 C8       10.5415     1.7893    -1.7354  C.ar    1  <O>11      -0.0611
  13 C9        9.3428     1.0866    -1.8657  C.ar    1  <O>11      -0.0521
  14 C10       8.6764     0.5665    -0.7321  C.ar    1  <O>11       0.0108
  15 N3        7.1750    -1.3270    -4.2840  N.am    1  <O>11      -0.3109
  16 C11       8.0290    -2.0580    -5.2160  C.3     1  <O>11       0.0368
  17 C12       7.3160    -2.2340    -6.5080  C.ar    1  <O>11      -0.0302
  18 C13       6.8973    -1.1129    -7.2453  C.ar    1  <O>11      -0.0544
  19 C14       6.2151    -1.2805    -8.4556  C.ar    1  <O>11      -0.0261
  20 C15       5.9483    -2.5631    -8.9413  C.ar    1  <O>11       0.1234
  21 F1        5.2781    -2.7329   -10.1253  F       1  <O>11      -0.2055
  22 C16       6.3700    -3.6787    -8.2100  C.ar    1  <O>11      -0.0261
  23 C17       7.0534    -3.5223    -7.0024  C.ar    1  <O>11      -0.0544
  24 H1        6.5110     0.6790    -2.4880  H       1  <O>11       0.0423
  25 H2        5.8310    -0.8590    -1.9040  H       1  <O>11       0.0423
  26 H3        6.9440    -0.8563     2.3451  H       1  <O>11       0.1921
  27 H4        6.2450    -1.0260    -4.5740  H       1  <O>11       0.1490
  28 H5        8.2700    -3.0360    -4.7980  H       1  <O>11       0.0512
  29 H6        8.9490    -1.4980    -5.3820  H       1  <O>11       0.0512
  30 H7       10.8538     1.6565     1.5887  H       1  <O>11       0.0625
  31 H8       11.9761     2.5162    -0.3760  H       1  <O>11       0.0618
  32 H9       11.0195     2.1555    -2.5735  H       1  <O>11       0.0618
  33 H10       8.9365     0.9445    -2.8036  H       1  <O>11       0.0624
  34 H11       7.0937    -0.1630    -6.8928  H       1  <O>11       0.0622
  35 H12       5.9079    -0.4537    -8.9913  H       1  <O>11       0.0646
  36 H13       6.1740    -4.6271    -8.5667  H       1  <O>11       0.0646
  37 H14       7.3651    -4.3521    -6.4739  H       1  <O>11       0.0622
@<TRIPOS>BOND
     1     1     2    2
     2     2     3    1
     3     3     4    1
     4     4     5   ar
     5     5     6   ar
     6     6     7   ar
     7     7     8    2
     8     7     9   ar
     9     9    10   ar
    10    10    11   ar
    11    11    12   ar
    12    12    13   ar
    13    13    14   ar
    14     4    14   ar
    15     9    14   ar
    16     2    15   am
    17    15    16    1
    18    16    17    1
    19    17    18   ar
    20    18    19   ar
    21    19    20   ar
    22    20    21    1
    23    20    22   ar
    24    22    23   ar
    25    17    23   ar
    26     3    24    1
    27     3    25    1
    28     6    26    1
    29    15    27    1
    30    16    28    1
    31    16    29    1
    32    10    30    1
    33    11    31    1
    34    12    32    1
    35    13    33    1
    36    18    34    1
    37    19    35    1
    38    22    36    1
    39    23    37    1
@<TRIPOS>MOLECULE
mol40_1_7
 37 39 0 0 0
SMALL
USER_CHARGES
****
VDW energy = -64.74
@<TRIPOS>ATOM
   1 O1        8.7381    -1.4068    -2.6744  O.2     1  <O>11      -0.2754
   2 C1        7.6234    -1.0459    -3.0216  C.2     1  <O>11       0.2192
   3 C2        6.7510    -0.2990    -2.0700  C.3     1  <O>11       0.0685
   4 C3        7.4590    -0.1250    -0.7860  C.ar    1  <O>11       0.0780
   5 N1        6.8538    -0.6703     0.2991  N.ar    1  <O>11      -0.1748
   6 N2        7.3853    -0.4644     1.5252  N.ar    1  <O>11      -0.2425
   7 C4        8.5136     0.2748     1.6382  C.ar    1  <O>11       0.2725
   8 O2        8.9591     0.5326     2.9486  O.2     1  <O>11      -0.2658
   9 C5        9.2332     0.7751     0.5432  C.ar    1  <O>11       0.0496
  10 C6       10.4429     1.4963     0.6557  C.ar    1  <O>11      -0.0487
  11 C7       11.0908     1.9952    -0.4752  C.ar    1  <O>11      -0.0610
  12 C8       10.5415     1.7893    -1.7354  C.ar    1  <O>11      -0.0611
  13 C9        9.3428     1.0866    -1.8657  C.ar    1  <O>11      -0.0521
  14 C10       8.6764     0.5665    -0.7321  C.ar    1  <O>11       0.0108
  15 N3        7.1750    -1.3270    -4.2840  N.am    1  <O>11      -0.3109
  16 C11       8.0290    -2.0580    -5.2160  C.3     1  <O>11       0.0368
  17 C12       7.3160    -2.2340    -6.5080  C.ar    1  <O>11      -0.0302
  18 C13       6.0954    -2.9294    -6.5553  C.ar    1  <O>11      -0.0544
  19 C14       5.4315    -3.1050    -7.7746  C.ar    1  <O>11      -0.0261
  20 C15       5.9754    -2.5874    -8.9529  C.ar    1  <O>11       0.1234
  21 F1        5.3303    -2.7587   -10.1506  F       1  <O>11      -0.2055
  22 C16       7.1876    -1.8906    -8.9047  C.ar    1  <O>11      -0.0261
  23 C17       7.8567    -1.7080    -7.6929  C.ar    1  <O>11      -0.0544
  24 H1        6.5110     0.6790    -2.4880  H       1  <O>11       0.0423
  25 H2        5.8310    -0.8590    -1.9040  H       1  <O>11       0.0423
  26 H3        6.9440    -0.8563     2.3451  H       1  <O>11       0.1921
  27 H4        6.2450    -1.0260    -4.5740  H       1  <O>11       0.1490
  28 H5        8.2700    -3.0360    -4.7980  H       1  <O>11       0.0512
  29 H6        8.9490    -1.4980    -5.3820  H       1  <O>11       0.0512
  30 H7       10.8538     1.6565     1.5887  H       1  <O>11       0.0625
  31 H8       11.9761     2.5162    -0.3760  H       1  <O>11       0.0618
  32 H9       11.0195     2.1555    -2.5735  H       1  <O>11       0.0618
  33 H10       8.9365     0.9445    -2.8036  H       1  <O>11       0.0624
  34 H11       5.6874    -3.3118    -5.6879  H       1  <O>11       0.0622
  35 H12       4.5369    -3.6186    -7.8036  H       1  <O>11       0.0646
  36 H13       7.5914    -1.5075    -9.7738  H       1  <O>11       0.0646
  37 H14       8.7474    -1.1873    -7.6678  H       1  <O>11       0.0622
@<TRIPOS>BOND
     1     1     2    2
     2     2     3    1
     3     3     4    1
     4     4     5   ar
     5     5     6   ar
     6     6     7   ar
     7     7     8    2
     8     7     9   ar
     9     9    10   ar
    10    10    11   ar
    11    11    12   ar
    12    12    13   ar
    13    13    14   ar
    14     4    14   ar
    15     9    14   ar
    16     2    15   am
    17    15    16    1
    18    16    17    1
    19    17    18   ar
    20    18    19   ar
    21    19    20   ar
    22    20    21    1
    23    20    22   ar
    24    22    23   ar
    25    17    23   ar
    26     3    24    1
    27     3    25    1
    28     6    26    1
    29    15    27    1
    30    16    28    1
    31    16    29    1
    32    10    30    1
    33    11    31    1
    34    12    32    1
    35    13    33    1
    36    18    34    1
    37    19    35    1
    38    22    36    1
    39    23    37    1
@<TRIPOS>MOLECULE
mol40_1_8
 37 39 0 0 0
SMALL
USER_CHARGES
****
VDW energy = -58.57
@<TRIPOS>ATOM
   1 O1        8.7381    -1.4068    -2.6744  O.2     1  <O>11      -0.2754
   2 C1        7.6234    -1.0459    -3.0216  C.2     1  <O>11       0.2192
   3 C2        6.7510    -0.2990    -2.0700  C.3     1  <O>11       0.0685
   4 C3        7.4590    -0.1250    -0.7860  C.ar    1  <O>11       0.0780
   5 N1        8.2092     1.0001    -0.6747  N.ar    1  <O>11      -0.1748
   6 N2        8.9699     1.1805     0.4285  N.ar    1  <O>11      -0.2425
   7 C4        8.9575     0.2366     1.3986  C.ar    1  <O>11       0.2725
   8 O2        9.8445     0.4380     2.4732  O.2     1  <O>11      -0.2658
   9 C5        8.1258    -0.8927     1.3798  C.ar    1  <O>11       0.0496
  10 C6        8.0677    -1.8485     2.4186  C.ar    1  <O>11      -0.0487
  11 C7        7.2409    -2.9685     2.3203  C.ar    1  <O>11      -0.0610
  12 C8        6.4634    -3.1576     1.1837  C.ar    1  <O>11      -0.0611
  13 C9        6.5139    -2.2287     0.1435  C.ar    1  <O>11      -0.0521
  14 C10       7.3393    -1.0836     0.2288  C.ar    1  <O>11       0.0108
  15 N3        7.1750    -1.3270    -4.2840  N.am    1  <O>11      -0.3109
  16 C11       8.0290    -2.0580    -5.2160  C.3     1  <O>11       0.0368
  17 C12       7.3160    -2.2340    -6.5080  C.ar    1  <O>11      -0.0302
  18 C13       7.9350    -2.9110    -7.5730  C.ar    1  <O>11      -0.0544
  19 C14       7.2670    -3.0650    -8.7930  C.ar    1  <O>11      -0.0261
  20 C15       5.9790    -2.5500    -8.9600  C.ar    1  <O>11       0.1234
  21 F1        5.3210    -2.6960   -10.1540  F       1  <O>11      -0.2055
  22 C16       5.3610    -1.8810    -7.8980  C.ar    1  <O>11      -0.0261
  23 C17       6.0180    -1.7240    -6.6760  C.ar    1  <O>11      -0.0544
  24 H1        6.5110     0.6790    -2.4880  H       1  <O>11       0.0423
  25 H2        5.8310    -0.8590    -1.9040  H       1  <O>11       0.0423
  26 H3        9.5407     2.0084     0.5251  H       1  <O>11       0.1921
  27 H4        6.2450    -1.0260    -4.5740  H       1  <O>11       0.1490
  28 H5        8.2700    -3.0360    -4.7980  H       1  <O>11       0.0512
  29 H6        8.9490    -1.4980    -5.3820  H       1  <O>11       0.0512
  30 H7        8.6457    -1.7163     3.2633  H       1  <O>11       0.0625
  31 H8        7.2067    -3.6549     3.0901  H       1  <O>11       0.0618
  32 H9        5.8496    -3.9840     1.1091  H       1  <O>11       0.0618
  33 H10       5.9402    -2.3797    -0.7009  H       1  <O>11       0.0624
  34 H11       8.8853    -3.2958    -7.4548  H       1  <O>11       0.0622
  35 H12       7.7275    -3.5608    -9.5722  H       1  <O>11       0.0646
  36 H13       4.4097    -1.4996    -8.0191  H       1  <O>11       0.0646
  37 H14       5.5506    -1.2339    -5.8973  H       1  <O>11       0.0622
@<TRIPOS>BOND
     1     1     2    2
     2     2     3    1
     3     3     4    1
     4     4     5   ar
     5     5     6   ar
     6     6     7   ar
     7     7     8    2
     8     7     9   ar
     9     9    10   ar
    10    10    11   ar
    11    11    12   ar
    12    12    13   ar
    13    13    14   ar
    14     4    14   ar
    15     9    14   ar
    16     2    15   am
    17    15    16    1
    18    16    17    1
    19    17    18   ar
    20    18    19   ar
    21    19    20   ar
    22    20    21    1
    23    20    22   ar
    24    22    23   ar
    25    17    23   ar
    26     3    24    1
    27     3    25    1
    28     6    26    1
    29    15    27    1
    30    16    28    1
    31    16    29    1
    32    10    30    1
    33    11    31    1
    34    12    32    1
    35    13    33    1
    36    18    34    1
    37    19    35    1
    38    22    36    1
    39    23    37    1
@<TRIPOS>MOLECULE
mol40_1_9
 37 39 0 0 0
SMALL
USER_CHARGES
****
VDW energy = -57.38
@<TRIPOS>ATOM
   1 O1        8.7381    -1.4068    -2.6744  O.2     1  <O>11      -0.2754
   2 C1        7.6234    -1.0459    -3.0216  C.2     1  <O>11       0.2192
   3 C2        6.7510    -0.2990    -2.0700  C.3     1  <O>11       0.0685
   4 C3        7.4590    -0.1250    -0.7860  C.ar    1  <O>11       0.0780
   5 N1        8.7070    -0.6540    -0.7250  N.ar    1  <O>11      -0.1748
   6 N2        9.3790    -0.6280     0.4480  N.ar    1  <O>11      -0.2425
   7 C4        8.7920    -0.0670     1.5310  C.ar    1  <O>11       0.2725
   8 O2        9.5040    -0.1600     2.7420  O.2     1  <O>11      -0.2658
   9 C5        7.5490     0.5820     1.4980  C.ar    1  <O>11       0.0496
  10 C6        6.9610     1.2200     2.6130  C.ar    1  <O>11      -0.0487
  11 C7        5.7040     1.8190     2.5190  C.ar    1  <O>11      -0.0610
  12 C8        5.0100     1.7870     1.3150  C.ar    1  <O>11      -0.0611
  13 C9        5.5710     1.1540     0.2050  C.ar    1  <O>11      -0.0521
  14 C10       6.8470     0.5490     0.2790  C.ar    1  <O>11       0.0108
  15 N3        7.1750    -1.3270    -4.2840  N.am    1  <O>11      -0.3109
  16 C11       8.0290    -2.0580    -5.2160  C.3     1  <O>11       0.0368
  17 C12       9.2834    -1.2940    -5.4425  C.ar    1  <O>11      -0.0302
  18 C13       9.2359     0.0044    -5.9788  C.ar    1  <O>11      -0.0544
  19 C14      10.4188     0.7177    -6.2030  C.ar    1  <O>11      -0.0261
  20 C15      11.6551     0.1457    -5.8923  C.ar    1  <O>11       0.1234
  21 F1       12.8172     0.8392    -6.1123  F       1  <O>11      -0.2055
  22 C16      11.7018    -1.1446    -5.3534  C.ar    1  <O>11      -0.0261
  23 C17      10.5272    -1.8637    -5.1238  C.ar    1  <O>11      -0.0544
  24 H1        6.5110     0.6790    -2.4880  H       1  <O>11       0.0423
  25 H2        5.8310    -0.8590    -1.9040  H       1  <O>11       0.0423
  26 H3       10.3060    -1.0240     0.5140  H       1  <O>11       0.1921
  27 H4        6.2450    -1.0260    -4.5740  H       1  <O>11       0.1490
  28 H5        7.5059    -2.1868    -6.1642  H       1  <O>11       0.0512
  29 H6        8.2692    -3.0357    -4.7988  H       1  <O>11       0.0512
  30 H7        7.4690     1.2435     3.5110  H       1  <O>11       0.0625
  31 H8        5.2905     2.2848     3.3418  H       1  <O>11       0.0618
  32 H9        4.0811     2.2308     1.2421  H       1  <O>11       0.0618
  33 H10       5.0466     1.1270    -0.6834  H       1  <O>11       0.0624
  34 H11       8.3255     0.4332    -6.2079  H       1  <O>11       0.0622
  35 H12      10.3778     1.6697    -6.5993  H       1  <O>11       0.0646
  36 H13      12.6139    -1.5692    -5.1233  H       1  <O>11       0.0646
  37 H14      10.5728    -2.8125    -4.7204  H       1  <O>11       0.0622
@<TRIPOS>BOND
     1     1     2    2
     2     2     3    1
     3     3     4    1
     4     4     5   ar
     5     5     6   ar
     6     6     7   ar
     7     7     8    2
     8     7     9   ar
     9     9    10   ar
    10    10    11   ar
    11    11    12   ar
    12    12    13   ar
    13    13    14   ar
    14     4    14   ar
    15     9    14   ar
    16     2    15   am
    17    15    16    1
    18    16    17    1
    19    17    18   ar
    20    18    19   ar
    21    19    20   ar
    22    20    21    1
    23    20    22   ar
    24    22    23   ar
    25    17    23   ar
    26     3    24    1
    27     3    25    1
    28     6    26    1
    29    15    27    1
    30    16    28    1
    31    16    29    1
    32    10    30    1
    33    11    31    1
    34    12    32    1
    35    13    33    1
    36    18    34    1
    37    19    35    1
    38    22    36    1
    39    23    37    1
@<TRIPOS>MOLECULE
mol40_1_10
 37 39 0 0 0
SMALL
USER_CHARGES
****
VDW energy = -57.16
@<TRIPOS>ATOM
   1 O1        8.7381    -1.4068    -2.6744  O.2     1  <O>11      -0.2754
   2 C1        7.6234    -1.0459    -3.0216  C.2     1  <O>11       0.2192
   3 C2        6.7510    -0.2990    -2.0700  C.3     1  <O>11       0.0685
   4 C3        7.4592    -0.1246    -0.7862  C.ar    1  <O>11       0.0780
   5 N1        8.7073    -0.6533    -0.7253  N.ar    1  <O>11      -0.1748
   6 N2        9.3795    -0.6269     0.4476  N.ar    1  <O>11      -0.2425
   7 C4        8.7926    -0.0658     1.5306  C.ar    1  <O>11       0.2725
   8 O2        9.5048    -0.1584     2.7415  O.2     1  <O>11      -0.2658
   9 C5        7.5494     0.5829     1.4977  C.ar    1  <O>11       0.0496
  10 C6        6.9615     1.2210     2.6127  C.ar    1  <O>11      -0.0487
  11 C7        5.7043     1.8197     2.5188  C.ar    1  <O>11      -0.0610
  12 C8        5.0101     1.7873     1.3149  C.ar    1  <O>11      -0.0611
  13 C9        5.5711     1.1542     0.2049  C.ar    1  <O>11      -0.0521
  14 C10       6.8472     0.5495     0.2788  C.ar    1  <O>11       0.0108
  15 N3        7.1750    -1.3270    -4.2840  N.am    1  <O>11      -0.3109
  16 C11       8.0290    -2.0580    -5.2160  C.3     1  <O>11       0.0368
  17 C12       7.3160    -2.2340    -6.5080  C.ar    1  <O>11      -0.0302
  18 C13       6.8973    -1.1129    -7.2453  C.ar    1  <O>11      -0.0544
  19 C14       6.2151    -1.2805    -8.4556  C.ar    1  <O>11      -0.0261
  20 C15       5.9483    -2.5631    -8.9413  C.ar    1  <O>11       0.1234
  21 F1        5.2781    -2.7329   -10.1253  F       1  <O>11      -0.2055
  22 C16       6.3700    -3.6787    -8.2100  C.ar    1  <O>11      -0.0261
  23 C17       7.0534    -3.5223    -7.0024  C.ar    1  <O>11      -0.0544
  24 H1        6.5107     0.6789    -2.4882  H       1  <O>11       0.0423
  25 H2        5.8312    -0.8592    -1.9037  H       1  <O>11       0.0423
  26 H3       10.3066    -1.0227     0.5135  H       1  <O>11       0.1921
  27 H4        6.2450    -1.0260    -4.5740  H       1  <O>11       0.1490
  28 H5        8.2700    -3.0360    -4.7980  H       1  <O>11       0.0512
  29 H6        8.9490    -1.4980    -5.3820  H       1  <O>11       0.0512
  30 H7        7.4696     1.2448     3.5106  H       1  <O>11       0.0625
  31 H8        5.2909     2.2856     3.3415  H       1  <O>11       0.0618
  32 H9        4.0811     2.2309     1.2421  H       1  <O>11       0.0618
  33 H10       5.0465     1.1269    -0.6834  H       1  <O>11       0.0624
  34 H11       7.0937    -0.1630    -6.8928  H       1  <O>11       0.0622
  35 H12       5.9079    -0.4537    -8.9913  H       1  <O>11       0.0646
  36 H13       6.1740    -4.6271    -8.5667  H       1  <O>11       0.0646
  37 H14       7.3651    -4.3521    -6.4739  H       1  <O>11       0.0622
@<TRIPOS>BOND
     1     1     2    2
     2     2     3    1
     3     3     4    1
     4     4     5   ar
     5     5     6   ar
     6     6     7   ar
     7     7     8    2
     8     7     9   ar
     9     9    10   ar
    10    10    11   ar
    11    11    12   ar
    12    12    13   ar
    13    13    14   ar
    14     4    14   ar
    15     9    14   ar
    16     2    15   am
    17    15    16    1
    18    16    17    1
    19    17    18   ar
    20    18    19   ar
    21    19    20   ar
    22    20    21    1
    23    20    22   ar
    24    22    23   ar
    25    17    23   ar
    26     3    24    1
    27     3    25    1
    28     6    26    1
    29    15    27    1
    30    16    28    1
    31    16    29    1
    32    10    30    1
    33    11    31    1
    34    12    32    1
    35    13    33    1
    36    18    34    1
    37    19    35    1
    38    22    36    1
    39    23    37    1
@<TRIPOS>MOLECULE
mol40_1_11
 37 39 0 0 0
SMALL
USER_CHARGES
****
VDW energy = -57.15
@<TRIPOS>ATOM
   1 O1        8.7381    -1.4068    -2.6744  O.2     1  <O>11      -0.2754
   2 C1        7.6234    -1.0459    -3.0216  C.2     1  <O>11       0.2192
   3 C2        6.7510    -0.2990    -2.0700  C.3     1  <O>11       0.0685
   4 C3        7.4590    -0.1250    -0.7860  C.ar    1  <O>11       0.0780
   5 N1        8.7070    -0.6540    -0.7250  N.ar    1  <O>11      -0.1748
   6 N2        9.3790    -0.6280     0.4480  N.ar    1  <O>11      -0.2425
   7 C4        8.7920    -0.0670     1.5310  C.ar    1  <O>11       0.2725
   8 O2        9.5040    -0.1600     2.7420  O.2     1  <O>11      -0.2658
   9 C5        7.5490     0.5820     1.4980  C.ar    1  <O>11       0.0496
  10 C6        6.9610     1.2200     2.6130  C.ar    1  <O>11      -0.0487
  11 C7        5.7040     1.8190     2.5190  C.ar    1  <O>11      -0.0610
  12 C8        5.0100     1.7870     1.3150  C.ar    1  <O>11      -0.0611
  13 C9        5.5710     1.1540     0.2050  C.ar    1  <O>11      -0.0521
  14 C10       6.8470     0.5490     0.2790  C.ar    1  <O>11       0.0108
  15 N3        7.1750    -1.3270    -4.2840  N.am    1  <O>11      -0.3109
  16 C11       8.0290    -2.0580    -5.2160  C.3     1  <O>11       0.0368
  17 C12       7.3160    -2.2340    -6.5080  C.ar    1  <O>11      -0.0302
  18 C13       6.0954    -2.9294    -6.5553  C.ar    1  <O>11      -0.0544
  19 C14       5.4315    -3.1050    -7.7746  C.ar    1  <O>11      -0.0261
  20 C15       5.9754    -2.5874    -8.9529  C.ar    1  <O>11       0.1234
  21 F1        5.3303    -2.7587   -10.1506  F       1  <O>11      -0.2055
  22 C16       7.1876    -1.8906    -8.9047  C.ar    1  <O>11      -0.0261
  23 C17       7.8567    -1.7080    -7.6929  C.ar    1  <O>11      -0.0544
  24 H1        6.5110     0.6790    -2.4880  H       1  <O>11       0.0423
  25 H2        5.8310    -0.8590    -1.9040  H       1  <O>11       0.0423
  26 H3       10.3060    -1.0240     0.5140  H       1  <O>11       0.1921
  27 H4        6.2450    -1.0260    -4.5740  H       1  <O>11       0.1490
  28 H5        8.2700    -3.0360    -4.7980  H       1  <O>11       0.0512
  29 H6        8.9490    -1.4980    -5.3820  H       1  <O>11       0.0512
  30 H7        7.4690     1.2435     3.5110  H       1  <O>11       0.0625
  31 H8        5.2905     2.2848     3.3418  H       1  <O>11       0.0618
  32 H9        4.0811     2.2308     1.2421  H       1  <O>11       0.0618
  33 H10       5.0466     1.1270    -0.6834  H       1  <O>11       0.0624
  34 H11       5.6874    -3.3118    -5.6879  H       1  <O>11       0.0622
  35 H12       4.5369    -3.6186    -7.8036  H       1  <O>11       0.0646
  36 H13       7.5914    -1.5075    -9.7738  H       1  <O>11       0.0646
  37 H14       8.7474    -1.1873    -7.6678  H       1  <O>11       0.0622
@<TRIPOS>BOND
     1     1     2    2
     2     2     3    1
     3     3     4    1
     4     4     5   ar
     5     5     6   ar
     6     6     7   ar
     7     7     8    2
     8     7     9   ar
     9     9    10   ar
    10    10    11   ar
    11    11    12   ar
    12    12    13   ar
    13    13    14   ar
    14     4    14   ar
    15     9    14   ar
    16     2    15   am
    17    15    16    1
    18    16    17    1
    19    17    18   ar
    20    18    19   ar
    21    19    20   ar
    22    20    21    1
    23    20    22   ar
    24    22    23   ar
    25    17    23   ar
    26     3    24    1
    27     3    25    1
    28     6    26    1
    29    15    27    1
    30    16    28    1
    31    16    29    1
    32    10    30    1
    33    11    31    1
    34    12    32    1
    35    13    33    1
    36    18    34    1
    37    19    35    1
    38    22    36    1
    39    23    37    1
@<TRIPOS>MOLECULE
mol40_1_12
 37 39 0 0 0
SMALL
USER_CHARGES
****
VDW energy = -56.07
@<TRIPOS>ATOM
   1 O1        8.7381    -1.4068    -2.6744  O.2     1  <O>11      -0.2754
   2 C1        7.6234    -1.0459    -3.0216  C.2     1  <O>11       0.2192
   3 C2        6.7510    -0.2990    -2.0700  C.3     1  <O>11       0.0685
   4 C3        6.0363     0.7713    -2.7938  C.ar    1  <O>11       0.0780
   5 N1        6.6686     1.9706    -2.8465  N.ar    1  <O>11      -0.1748
   6 N2        6.0339     3.0284    -3.4001  N.ar    1  <O>11      -0.2425
   7 C4        4.7853     2.8617    -3.8955  C.ar    1  <O>11       0.2725
   8 O2        4.1440     4.0225    -4.3682  O.2     1  <O>11      -0.2658
   9 C5        4.1276     1.6244    -3.9573  C.ar    1  <O>11       0.0496
  10 C6        2.8487     1.4371    -4.5276  C.ar    1  <O>11      -0.0487
  11 C7        2.2369     0.1827    -4.5261  C.ar    1  <O>11      -0.0610
  12 C8        2.8864    -0.9037    -3.9514  C.ar    1  <O>11      -0.0611
  13 C9        4.1465    -0.7363    -3.3757  C.ar    1  <O>11      -0.0521
  14 C10       4.7855     0.5252    -3.3752  C.ar    1  <O>11       0.0108
  15 N3        7.1750    -1.3270    -4.2840  N.am    1  <O>11      -0.3109
  16 C11       8.0290    -2.0580    -5.2160  C.3     1  <O>11       0.0368
  17 C12       7.3160    -2.2340    -6.5080  C.ar    1  <O>11      -0.0302
  18 C13       7.9350    -2.9110    -7.5730  C.ar    1  <O>11      -0.0544
  19 C14       7.2670    -3.0650    -8.7930  C.ar    1  <O>11      -0.0261
  20 C15       5.9790    -2.5500    -8.9600  C.ar    1  <O>11       0.1234
  21 F1        5.3210    -2.6960   -10.1540  F       1  <O>11      -0.2055
  22 C16       5.3610    -1.8810    -7.8980  C.ar    1  <O>11      -0.0261
  23 C17       6.0180    -1.7240    -6.6760  C.ar    1  <O>11      -0.0544
  24 H1        6.0274    -0.9835    -1.6265  H       1  <O>11       0.0423
  25 H2        7.3639     0.1414    -1.2839  H       1  <O>11       0.0423
  26 H3        6.4861     3.9307    -3.4411  H       1  <O>11       0.1921
  27 H4        6.2450    -1.0260    -4.5740  H       1  <O>11       0.1490
  28 H5        8.2700    -3.0360    -4.7980  H       1  <O>11       0.0512
  29 H6        8.9490    -1.4980    -5.3820  H       1  <O>11       0.0512
  30 H7        2.3592     2.2404    -4.9520  H       1  <O>11       0.0625
  31 H8        1.3042     0.0619    -4.9508  H       1  <O>11       0.0618
  32 H9        2.4372    -1.8329    -3.9505  H       1  <O>11       0.0618
  33 H10       4.6193    -1.5455    -2.9436  H       1  <O>11       0.0624
  34 H11       8.8853    -3.2958    -7.4548  H       1  <O>11       0.0622
  35 H12       7.7275    -3.5608    -9.5722  H       1  <O>11       0.0646
  36 H13       4.4097    -1.4996    -8.0191  H       1  <O>11       0.0646
  37 H14       5.5506    -1.2339    -5.8973  H       1  <O>11       0.0622
@<TRIPOS>BOND
     1     1     2    2
     2     2     3    1
     3     3     4    1
     4     4     5   ar
     5     5     6   ar
     6     6     7   ar
     7     7     8    2
     8     7     9   ar
     9     9    10   ar
    10    10    11   ar
    11    11    12   ar
    12    12    13   ar
    13    13    14   ar
    14     4    14   ar
    15     9    14   ar
    16     2    15   am
    17    15    16    1
    18    16    17    1
    19    17    18   ar
    20    18    19   ar
    21    19    20   ar
    22    20    21    1
    23    20    22   ar
    24    22    23   ar
    25    17    23   ar
    26     3    24    1
    27     3    25    1
    28     6    26    1
    29    15    27    1
    30    16    28    1
    31    16    29    1
    32    10    30    1
    33    11    31    1
    34    12    32    1
    35    13    33    1
    36    18    34    1
    37    19    35    1
    38    22    36    1
    39    23    37    1
@<TRIPOS>MOLECULE
mol40_1_13
 37 39 0 0 0
SMALL
USER_CHARGES
****
VDW energy = -55.63
@<TRIPOS>ATOM
   1 O1        8.7381    -1.4068    -2.6744  O.2     1  <O>11      -0.2754
   2 C1        7.6234    -1.0459    -3.0216  C.2     1  <O>11       0.2192
   3 C2        6.7510    -0.2990    -2.0700  C.3     1  <O>11       0.0685
   4 C3        5.3571    -0.7653    -2.2104  C.ar    1  <O>11       0.0780
   5 N1        4.4528     0.1803    -2.5697  N.ar    1  <O>11      -0.1748
   6 N2        3.1411    -0.1440    -2.6173  N.ar    1  <O>11      -0.2425
   7 C4        2.7637    -1.4077    -2.3125  C.ar    1  <O>11       0.2725
   8 O2        1.3776    -1.6532    -2.2862  O.2     1  <O>11      -0.2658
   9 C5        3.6639    -2.4466    -2.0339  C.ar    1  <O>11       0.0496
  10 C6        3.2757    -3.7799    -1.7738  C.ar    1  <O>11      -0.0487
  11 C7        4.2229    -4.7588    -1.4703  C.ar    1  <O>11      -0.0610
  12 C8        5.5710    -4.4245    -1.4150  C.ar    1  <O>11      -0.0611
  13 C9        5.9728    -3.1108    -1.6606  C.ar    1  <O>11      -0.0521
  14 C10       5.0283    -2.1073    -1.9779  C.ar    1  <O>11       0.0108
  15 N3        7.1750    -1.3270    -4.2840  N.am    1  <O>11      -0.3109
  16 C11       8.0290    -2.0580    -5.2160  C.3     1  <O>11       0.0368
  17 C12       7.3162    -2.2336    -6.5082  C.ar    1  <O>11      -0.0302
  18 C13       7.9352    -2.9105    -7.5732  C.ar    1  <O>11      -0.0544
  19 C14       7.2674    -3.0641    -8.7933  C.ar    1  <O>11      -0.0261
  20 C15       5.9795    -2.5488    -8.9604  C.ar    1  <O>11       0.1234
  21 F1        5.3217    -2.6944   -10.1546  F       1  <O>11      -0.2055
  22 C16       5.3615    -1.8799    -7.8984  C.ar    1  <O>11      -0.0261
  23 C17       6.0183    -1.7233    -6.6763  C.ar    1  <O>11      -0.0544
  24 H1        7.0920    -0.4752    -1.0495  H       1  <O>11       0.0423
  25 H2        6.8009     0.7669    -2.2910  H       1  <O>11       0.0423
  26 H3        2.4530     0.5491    -2.8752  H       1  <O>11       0.1921
  27 H4        6.2450    -1.0260    -4.5740  H       1  <O>11       0.1490
  28 H5        8.2697    -3.0361    -4.7982  H       1  <O>11       0.0512
  29 H6        8.9491    -1.4982    -5.3817  H       1  <O>11       0.0512
  30 H7        2.2761    -4.0339    -1.8088  H       1  <O>11       0.0625
  31 H8        3.9231    -5.7292    -1.2872  H       1  <O>11       0.0618
  32 H9        6.2739    -5.1468    -1.1927  H       1  <O>11       0.0618
  33 H10       6.9745    -2.8679    -1.6099  H       1  <O>11       0.0624
  34 H11       8.8854    -3.2955    -7.4549  H       1  <O>11       0.0622
  35 H12       7.7279    -3.5599    -9.5725  H       1  <O>11       0.0646
  36 H13       4.4103    -1.4983    -8.0196  H       1  <O>11       0.0646
  37 H14       5.5509    -1.2332    -5.8976  H       1  <O>11       0.0622
@<TRIPOS>BOND
     1     1     2    2
     2     2     3    1
     3     3     4    1
     4     4     5   ar
     5     5     6   ar
     6     6     7   ar
     7     7     8    2
     8     7     9   ar
     9     9    10   ar
    10    10    11   ar
    11    11    12   ar
    12    12    13   ar
    13    13    14   ar
    14     4    14   ar
    15     9    14   ar
    16     2    15   am
    17    15    16    1
    18    16    17    1
    19    17    18   ar
    20    18    19   ar
    21    19    20   ar
    22    20    21    1
    23    20    22   ar
    24    22    23   ar
    25    17    23   ar
    26     3    24    1
    27     3    25    1
    28     6    26    1
    29    15    27    1
    30    16    28    1
    31    16    29    1
    32    10    30    1
    33    11    31    1
    34    12    32    1
    35    13    33    1
    36    18    34    1
    37    19    35    1
    38    22    36    1
    39    23    37    1
@<TRIPOS>MOLECULE
mol40_1_14
 37 39 0 0 0
SMALL
USER_CHARGES
****
VDW energy = -55.10
@<TRIPOS>ATOM
   1 O1        8.7381    -1.4068    -2.6744  O.2     1  <O>11      -0.2754
   2 C1        7.6234    -1.0459    -3.0216  C.2     1  <O>11       0.2192
   3 C2        6.7510    -0.2990    -2.0700  C.3     1  <O>11       0.0685
   4 C3        7.4590    -0.1250    -0.7860  C.ar    1  <O>11       0.0780
   5 N1        7.2738    -1.1113     0.1273  N.ar    1  <O>11      -0.1748
   6 N2        7.8032    -0.9746     1.3639  N.ar    1  <O>11      -0.2425
   7 C4        8.5122     0.1405     1.6571  C.ar    1  <O>11       0.2725
   8 O2        8.9520     0.2652     2.9887  O.2     1  <O>11      -0.2658
   9 C5        8.8181     1.1406     0.7225  C.ar    1  <O>11       0.0496
  10 C6        9.6078     2.2762     1.0104  C.ar    1  <O>11      -0.0487
  11 C7        9.8460     3.2515     0.0410  C.ar    1  <O>11      -0.0610
  12 C8        9.2966     3.1146    -1.2286  C.ar    1  <O>11      -0.0611
  13 C9        8.5069     2.0039    -1.5290  C.ar    1  <O>11      -0.0521
  14 C10       8.2616     1.0015    -0.5623  C.ar    1  <O>11       0.0108
  15 N3        7.1750    -1.3270    -4.2840  N.am    1  <O>11      -0.3109
  16 C11       8.0290    -2.0580    -5.2160  C.3     1  <O>11       0.0368
  17 C12       8.3572    -3.3909    -4.6466  C.ar    1  <O>11      -0.0302
  18 C13       9.1713    -4.2864    -5.3614  C.ar    1  <O>11      -0.0544
  19 C14       9.4691    -5.5460    -4.8292  C.ar    1  <O>11      -0.0261
  20 C15       8.9623    -5.9210    -3.5824  C.ar    1  <O>11       0.1234
  21 F1        9.2491    -7.1547    -3.0575  F       1  <O>11      -0.2055
  22 C16       8.1565    -5.0273    -2.8687  C.ar    1  <O>11      -0.0261
  23 C17       7.8553    -3.7674    -3.3898  C.ar    1  <O>11      -0.0544
  24 H1        6.5110     0.6790    -2.4880  H       1  <O>11       0.0423
  25 H2        5.8310    -0.8590    -1.9040  H       1  <O>11       0.0423
  26 H3        7.6690    -1.6952     2.0590  H       1  <O>11       0.1921
  27 H4        6.2450    -1.0260    -4.5740  H       1  <O>11       0.1490
  28 H5        8.9495    -1.4974    -5.3821  H       1  <O>11       0.0512
  29 H6        7.5067    -2.1863    -6.1638  H       1  <O>11       0.0512
  30 H7       10.0150     2.3861     1.9523  H       1  <O>11       0.0625
  31 H8       10.4288     4.0728     0.2663  H       1  <O>11       0.0618
  32 H9        9.4726     3.8333    -1.9480  H       1  <O>11       0.0618
  33 H10       8.0956     1.9129    -2.4711  H       1  <O>11       0.0624
  34 H11       9.5506    -4.0141    -6.2817  H       1  <O>11       0.0622
  35 H12      10.0653    -6.2003    -5.3598  H       1  <O>11       0.0646
  36 H13       7.7809    -5.3021    -1.9476  H       1  <O>11       0.0646
  37 H14       7.2647    -3.1137    -2.8523  H       1  <O>11       0.0622
@<TRIPOS>BOND
     1     1     2    2
     2     2     3    1
     3     3     4    1
     4     4     5   ar
     5     5     6   ar
     6     6     7   ar
     7     7     8    2
     8     7     9   ar
     9     9    10   ar
    10    10    11   ar
    11    11    12   ar
    12    12    13   ar
    13    13    14   ar
    14     4    14   ar
    15     9    14   ar
    16     2    15   am
    17    15    16    1
    18    16    17    1
    19    17    18   ar
    20    18    19   ar
    21    19    20   ar
    22    20    21    1
    23    20    22   ar
    24    22    23   ar
    25    17    23   ar
    26     3    24    1
    27     3    25    1
    28     6    26    1
    29    15    27    1
    30    16    28    1
    31    16    29    1
    32    10    30    1
    33    11    31    1
    34    12    32    1
    35    13    33    1
    36    18    34    1
    37    19    35    1
    38    22    36    1
    39    23    37    1
@<TRIPOS>MOLECULE
mol40_1_15
 37 39 0 0 0
SMALL
USER_CHARGES
****
VDW energy = -54.64
@<TRIPOS>ATOM
   1 O1        8.7381    -1.4068    -2.6744  O.2     1  <O>11      -0.2754
   2 C1        7.6234    -1.0459    -3.0216  C.2     1  <O>11       0.2192
   3 C2        6.7510    -0.2990    -2.0700  C.3     1  <O>11       0.0685
   4 C3        7.4590    -0.1250    -0.7860  C.ar    1  <O>11       0.0780
   5 N1        8.2092     1.0001    -0.6747  N.ar    1  <O>11      -0.1748
   6 N2        8.9699     1.1805     0.4285  N.ar    1  <O>11      -0.2425
   7 C4        8.9575     0.2366     1.3986  C.ar    1  <O>11       0.2725
   8 O2        9.8445     0.4380     2.4732  O.2     1  <O>11      -0.2658
   9 C5        8.1258    -0.8927     1.3798  C.ar    1  <O>11       0.0496
  10 C6        8.0677    -1.8485     2.4186  C.ar    1  <O>11      -0.0487
  11 C7        7.2409    -2.9685     2.3203  C.ar    1  <O>11      -0.0610
  12 C8        6.4634    -3.1576     1.1837  C.ar    1  <O>11      -0.0611
  13 C9        6.5139    -2.2287     0.1435  C.ar    1  <O>11      -0.0521
  14 C10       7.3393    -1.0836     0.2288  C.ar    1  <O>11       0.0108
  15 N3        7.1750    -1.3270    -4.2840  N.am    1  <O>11      -0.3109
  16 C11       8.0290    -2.0580    -5.2160  C.3     1  <O>11       0.0368
  17 C12       8.3572    -3.3909    -4.6466  C.ar    1  <O>11      -0.0302
  18 C13       9.1713    -4.2864    -5.3614  C.ar    1  <O>11      -0.0544
  19 C14       9.4691    -5.5460    -4.8292  C.ar    1  <O>11      -0.0261
  20 C15       8.9623    -5.9210    -3.5824  C.ar    1  <O>11       0.1234
  21 F1        9.2491    -7.1547    -3.0575  F       1  <O>11      -0.2055
  22 C16       8.1565    -5.0273    -2.8687  C.ar    1  <O>11      -0.0261
  23 C17       7.8553    -3.7674    -3.3898  C.ar    1  <O>11      -0.0544
  24 H1        6.5110     0.6790    -2.4880  H       1  <O>11       0.0423
  25 H2        5.8310    -0.8590    -1.9040  H       1  <O>11       0.0423
  26 H3        9.5407     2.0084     0.5251  H       1  <O>11       0.1921
  27 H4        6.2450    -1.0260    -4.5740  H       1  <O>11       0.1490
  28 H5        8.9495    -1.4974    -5.3821  H       1  <O>11       0.0512
  29 H6        7.5067    -2.1863    -6.1638  H       1  <O>11       0.0512
  30 H7        8.6457    -1.7163     3.2633  H       1  <O>11       0.0625
  31 H8        7.2067    -3.6549     3.0901  H       1  <O>11       0.0618
  32 H9        5.8496    -3.9840     1.1091  H       1  <O>11       0.0618
  33 H10       5.9402    -2.3797    -0.7009  H       1  <O>11       0.0624
  34 H11       9.5506    -4.0141    -6.2817  H       1  <O>11       0.0622
  35 H12      10.0653    -6.2003    -5.3598  H       1  <O>11       0.0646
  36 H13       7.7809    -5.3021    -1.9476  H       1  <O>11       0.0646
  37 H14       7.2647    -3.1137    -2.8523  H       1  <O>11       0.0622
@<TRIPOS>BOND
     1     1     2    2
     2     2     3    1
     3     3     4    1
     4     4     5   ar
     5     5     6   ar
     6     6     7   ar
     7     7     8    2
     8     7     9   ar
     9     9    10   ar
    10    10    11   ar
    11    11    12   ar
    12    12    13   ar
    13    13    14   ar
    14     4    14   ar
    15     9    14   ar
    16     2    15   am
    17    15    16    1
    18    16    17    1
    19    17    18   ar
    20    18    19   ar
    21    19    20   ar
    22    20    21    1
    23    20    22   ar
    24    22    23   ar
    25    17    23   ar
    26     3    24    1
    27     3    25    1
    28     6    26    1
    29    15    27    1
    30    16    28    1
    31    16    29    1
    32    10    30    1
    33    11    31    1
    34    12    32    1
    35    13    33    1
    36    18    34    1
    37    19    35    1
    38    22    36    1
    39    23    37    1
@<TRIPOS>MOLECULE
mol40_1_16
 37 39 0 0 0
SMALL
USER_CHARGES
****
VDW energy = -54.61
@<TRIPOS>ATOM
   1 O1        8.7381    -1.4068    -2.6744  O.2     1  <O>11      -0.2754
   2 C1        7.6234    -1.0459    -3.0216  C.2     1  <O>11       0.2192
   3 C2        6.7510    -0.2990    -2.0700  C.3     1  <O>11       0.0685
   4 C3        7.4590    -0.1250    -0.7860  C.ar    1  <O>11       0.0780
   5 N1        8.2092     1.0001    -0.6747  N.ar    1  <O>11      -0.1748
   6 N2        8.9699     1.1805     0.4285  N.ar    1  <O>11      -0.2425
   7 C4        8.9575     0.2366     1.3986  C.ar    1  <O>11       0.2725
   8 O2        9.8445     0.4380     2.4732  O.2     1  <O>11      -0.2658
   9 C5        8.1258    -0.8927     1.3798  C.ar    1  <O>11       0.0496
  10 C6        8.0677    -1.8485     2.4186  C.ar    1  <O>11      -0.0487
  11 C7        7.2409    -2.9685     2.3203  C.ar    1  <O>11      -0.0610
  12 C8        6.4634    -3.1576     1.1837  C.ar    1  <O>11      -0.0611
  13 C9        6.5139    -2.2287     0.1435  C.ar    1  <O>11      -0.0521
  14 C10       7.3393    -1.0836     0.2288  C.ar    1  <O>11       0.0108
  15 N3        7.1750    -1.3270    -4.2840  N.am    1  <O>11      -0.3109
  16 C11       8.0290    -2.0580    -5.2160  C.3     1  <O>11       0.0368
  17 C12       9.2834    -1.2940    -5.4425  C.ar    1  <O>11      -0.0302
  18 C13      10.2727    -1.7950    -6.3063  C.ar    1  <O>11      -0.0544
  19 C14      11.4586    -1.0803    -6.5088  C.ar    1  <O>11      -0.0261
  20 C15      11.6664     0.1377    -5.8566  C.ar    1  <O>11       0.1234
  21 F1       12.8276     0.8408    -6.0497  F       1  <O>11      -0.2055
  22 C16      10.6792     0.6388    -5.0012  C.ar    1  <O>11      -0.0261
  23 C17       9.4915    -0.0654    -4.7941  C.ar    1  <O>11      -0.0544
  24 H1        6.5110     0.6790    -2.4880  H       1  <O>11       0.0423
  25 H2        5.8310    -0.8590    -1.9040  H       1  <O>11       0.0423
  26 H3        9.5407     2.0084     0.5251  H       1  <O>11       0.1921
  27 H4        6.2450    -1.0260    -4.5740  H       1  <O>11       0.1490
  28 H5        7.5059    -2.1868    -6.1642  H       1  <O>11       0.0512
  29 H6        8.2692    -3.0357    -4.7988  H       1  <O>11       0.0512
  30 H7        8.6457    -1.7163     3.2633  H       1  <O>11       0.0625
  31 H8        7.2067    -3.6549     3.0901  H       1  <O>11       0.0618
  32 H9        5.8496    -3.9840     1.1091  H       1  <O>11       0.0618
  33 H10       5.9402    -2.3797    -0.7009  H       1  <O>11       0.0624
  34 H11      10.1238    -2.6930    -6.7928  H       1  <O>11       0.0622
  35 H12      12.1825    -1.4544    -7.1422  H       1  <O>11       0.0646
  36 H13      10.8306     1.5382    -4.5183  H       1  <O>11       0.0646
  37 H14       8.7674     0.3162    -4.1655  H       1  <O>11       0.0622
@<TRIPOS>BOND
     1     1     2    2
     2     2     3    1
     3     3     4    1
     4     4     5   ar
     5     5     6   ar
     6     6     7   ar
     7     7     8    2
     8     7     9   ar
     9     9    10   ar
    10    10    11   ar
    11    11    12   ar
    12    12    13   ar
    13    13    14   ar
    14     4    14   ar
    15     9    14   ar
    16     2    15   am
    17    15    16    1
    18    16    17    1
    19    17    18   ar
    20    18    19   ar
    21    19    20   ar
    22    20    21    1
    23    20    22   ar
    24    22    23   ar
    25    17    23   ar
    26     3    24    1
    27     3    25    1
    28     6    26    1
    29    15    27    1
    30    16    28    1
    31    16    29    1
    32    10    30    1
    33    11    31    1
    34    12    32    1
    35    13    33    1
    36    18    34    1
    37    19    35    1
    38    22    36    1
    39    23    37    1
@<TRIPOS>MOLECULE
mol40_1_17
 37 39 0 0 0
SMALL
USER_CHARGES
****
VDW energy = -53.46
@<TRIPOS>ATOM
   1 O1        8.7381    -1.4068    -2.6744  O.2     1  <O>11      -0.2754
   2 C1        7.6234    -1.0459    -3.0216  C.2     1  <O>11       0.2192
   3 C2        6.7510    -0.2990    -2.0700  C.3     1  <O>11       0.0685
   4 C3        6.0363     0.7713    -2.7938  C.ar    1  <O>11       0.0780
   5 N1        6.3003     0.8624    -4.1216  N.ar    1  <O>11      -0.1748
   6 N2        5.7663     1.8807    -4.8330  N.ar    1  <O>11      -0.2425
   7 C4        4.9744     2.7799    -4.2033  C.ar    1  <O>11       0.2725
   8 O2        4.5311     3.8681    -4.9787  O.2     1  <O>11      -0.2658
   9 C5        4.5889     2.6754    -2.8588  C.ar    1  <O>11       0.0496
  10 C6        3.7150     3.5796    -2.2149  C.ar    1  <O>11      -0.0487
  11 C7        3.3988     3.4357    -0.8632  C.ar    1  <O>11      -0.0610
  12 C8        3.9525     2.3927    -0.1298  C.ar    1  <O>11      -0.0611
  13 C9        4.8246     1.4945    -0.7465  C.ar    1  <O>11      -0.0521
  14 C10       5.1500     1.6195    -2.1170  C.ar    1  <O>11       0.0108
  15 N3        7.1750    -1.3270    -4.2840  N.am    1  <O>11      -0.3109
  16 C11       8.0290    -2.0580    -5.2160  C.3     1  <O>11       0.0368
  17 C12       7.3160    -2.2340    -6.5080  C.ar    1  <O>11      -0.0302
  18 C13       6.8973    -1.1129    -7.2453  C.ar    1  <O>11      -0.0544
  19 C14       6.2151    -1.2805    -8.4556  C.ar    1  <O>11      -0.0261
  20 C15       5.9483    -2.5631    -8.9413  C.ar    1  <O>11       0.1234
  21 F1        5.2781    -2.7329   -10.1253  F       1  <O>11      -0.2055
  22 C16       6.3700    -3.6787    -8.2100  C.ar    1  <O>11      -0.0261
  23 C17       7.0534    -3.5223    -7.0024  C.ar    1  <O>11      -0.0544
  24 H1        6.0274    -0.9835    -1.6265  H       1  <O>11       0.0423
  25 H2        7.3639     0.1414    -1.2839  H       1  <O>11       0.0423
  26 H3        5.9583     1.9688    -5.8209  H       1  <O>11       0.1921
  27 H4        6.2450    -1.0260    -4.5740  H       1  <O>11       0.1490
  28 H5        8.2700    -3.0360    -4.7980  H       1  <O>11       0.0512
  29 H6        8.9490    -1.4980    -5.3820  H       1  <O>11       0.0512
  30 H7        3.3039     4.3587    -2.7525  H       1  <O>11       0.0625
  31 H8        2.7552     4.1023    -0.4090  H       1  <O>11       0.0618
  32 H9        3.7190     2.2827     0.8694  H       1  <O>11       0.0618
  33 H10       5.2383     0.7274    -0.1940  H       1  <O>11       0.0624
  34 H11       7.0937    -0.1630    -6.8928  H       1  <O>11       0.0622
  35 H12       5.9079    -0.4537    -8.9913  H       1  <O>11       0.0646
  36 H13       6.1740    -4.6271    -8.5667  H       1  <O>11       0.0646
  37 H14       7.3651    -4.3521    -6.4739  H       1  <O>11       0.0622
@<TRIPOS>BOND
     1     1     2    2
     2     2     3    1
     3     3     4    1
     4     4     5   ar
     5     5     6   ar
     6     6     7   ar
     7     7     8    2
     8     7     9   ar
     9     9    10   ar
    10    10    11   ar
    11    11    12   ar
    12    12    13   ar
    13    13    14   ar
    14     4    14   ar
    15     9    14   ar
    16     2    15   am
    17    15    16    1
    18    16    17    1
    19    17    18   ar
    20    18    19   ar
    21    19    20   ar
    22    20    21    1
    23    20    22   ar
    24    22    23   ar
    25    17    23   ar
    26     3    24    1
    27     3    25    1
    28     6    26    1
    29    15    27    1
    30    16    28    1
    31    16    29    1
    32    10    30    1
    33    11    31    1
    34    12    32    1
    35    13    33    1
    36    18    34    1
    37    19    35    1
    38    22    36    1
    39    23    37    1
@<TRIPOS>MOLECULE
mol40_1_18
 37 39 0 0 0
SMALL
USER_CHARGES
****
VDW energy = -52.64
@<TRIPOS>ATOM
   1 O1        8.7381    -1.4068    -2.6744  O.2     1  <O>11      -0.2754
   2 C1        7.6234    -1.0459    -3.0216  C.2     1  <O>11       0.2192
   3 C2        6.7510    -0.2990    -2.0700  C.3     1  <O>11       0.0685
   4 C3        7.4590    -0.1250    -0.7860  C.ar    1  <O>11       0.0780
   5 N1        7.6639     1.1582    -0.3954  N.ar    1  <O>11      -0.1748
   6 N2        8.3957     1.4019     0.7151  N.ar    1  <O>11      -0.2425
   7 C4        8.8992     0.3580     1.4143  C.ar    1  <O>11       0.2725
   8 O2        9.7320     0.6822     2.5022  O.2     1  <O>11      -0.2658
   9 C5        8.6336    -0.9858     1.1124  C.ar    1  <O>11       0.0496
  10 C6        9.1091    -2.0758     1.8752  C.ar    1  <O>11      -0.0487
  11 C7        8.8347    -3.3914     1.4988  C.ar    1  <O>11      -0.0610
  12 C8        8.0878    -3.6426     0.3537  C.ar    1  <O>11      -0.0611
  13 C9        7.6169    -2.5789    -0.4172  C.ar    1  <O>11      -0.0521
  14 C10       7.8777    -1.2393    -0.0470  C.ar    1  <O>11       0.0108
  15 N3        7.1750    -1.3270    -4.2840  N.am    1  <O>11      -0.3109
  16 C11       5.8429    -0.8955    -4.6984  C.3     1  <O>11       0.0368
  17 C12       5.5986    -1.3197    -6.1016  C.ar    1  <O>11      -0.0302
  18 C13       4.3779    -1.0197    -6.7307  C.ar    1  <O>11      -0.0544
  19 C14       4.1447    -1.4308    -8.0479  C.ar    1  <O>11      -0.0261
  20 C15       5.1246    -2.1391    -8.7480  C.ar    1  <O>11       0.1234
  21 F1        4.9003    -2.5463   -10.0379  F       1  <O>11      -0.2055
  22 C16       6.3415    -2.4328    -8.1234  C.ar    1  <O>11      -0.0261
  23 C17       6.5850    -2.0252    -6.8103  C.ar    1  <O>11      -0.0544
  24 H1        6.5110     0.6790    -2.4880  H       1  <O>11       0.0423
  25 H2        5.8310    -0.8590    -1.9040  H       1  <O>11       0.0423
  26 H3        8.5650     2.3511     1.0166  H       1  <O>11       0.1921
  27 H4        7.7706    -1.8377    -4.9351  H       1  <O>11       0.1490
  28 H5        5.7748     0.1908    -4.6302  H       1  <O>11       0.0512
  29 H6        5.0953    -1.3472    -4.0468  H       1  <O>11       0.0512
  30 H7        9.6679    -1.8963     2.7240  H       1  <O>11       0.0625
  31 H8        9.1858    -4.1762     2.0695  H       1  <O>11       0.0618
  32 H9        7.8818    -4.6144     0.0740  H       1  <O>11       0.0618
  33 H10       7.0699    -2.7729    -1.2706  H       1  <O>11       0.0624
  34 H11       3.6513    -0.4946    -6.2195  H       1  <O>11       0.0622
  35 H12       3.2456    -1.2098    -8.5037  H       1  <O>11       0.0646
  36 H13       7.0667    -2.9561    -8.6386  H       1  <O>11       0.0646
  37 H14       7.4885    -2.2421    -6.3611  H       1  <O>11       0.0622
@<TRIPOS>BOND
     1     1     2    2
     2     2     3    1
     3     3     4    1
     4     4     5   ar
     5     5     6   ar
     6     6     7   ar
     7     7     8    2
     8     7     9   ar
     9     9    10   ar
    10    10    11   ar
    11    11    12   ar
    12    12    13   ar
    13    13    14   ar
    14     4    14   ar
    15     9    14   ar
    16     2    15   am
    17    15    16    1
    18    16    17    1
    19    17    18   ar
    20    18    19   ar
    21    19    20   ar
    22    20    21    1
    23    20    22   ar
    24    22    23   ar
    25    17    23   ar
    26     3    24    1
    27     3    25    1
    28     6    26    1
    29    15    27    1
    30    16    28    1
    31    16    29    1
    32    10    30    1
    33    11    31    1
    34    12    32    1
    35    13    33    1
    36    18    34    1
    37    19    35    1
    38    22    36    1
    39    23    37    1
@<TRIPOS>MOLECULE
mol40_1_19
 37 39 0 0 0
SMALL
USER_CHARGES
****
VDW energy = -51.90
@<TRIPOS>ATOM
   1 O1        8.7381    -1.4068    -2.6744  O.2     1  <O>11      -0.2754
   2 C1        7.6234    -1.0459    -3.0216  C.2     1  <O>11       0.2192
   3 C2        6.7510    -0.2990    -2.0700  C.3     1  <O>11       0.0685
   4 C3        7.4590    -0.1250    -0.7860  C.ar    1  <O>11       0.0780
   5 N1        6.8538    -0.6703     0.2991  N.ar    1  <O>11      -0.1748
   6 N2        7.3853    -0.4644     1.5252  N.ar    1  <O>11      -0.2425
   7 C4        8.5136     0.2748     1.6382  C.ar    1  <O>11       0.2725
   8 O2        8.9591     0.5326     2.9486  O.2     1  <O>11      -0.2658
   9 C5        9.2332     0.7751     0.5432  C.ar    1  <O>11       0.0496
  10 C6       10.4429     1.4963     0.6557  C.ar    1  <O>11      -0.0487
  11 C7       11.0908     1.9952    -0.4752  C.ar    1  <O>11      -0.0610
  12 C8       10.5415     1.7893    -1.7354  C.ar    1  <O>11      -0.0611
  13 C9        9.3428     1.0866    -1.8657  C.ar    1  <O>11      -0.0521
  14 C10       8.6764     0.5665    -0.7321  C.ar    1  <O>11       0.0108
  15 N3        7.1750    -1.3270    -4.2840  N.am    1  <O>11      -0.3109
  16 C11       8.0290    -2.0580    -5.2160  C.3     1  <O>11       0.0368
  17 C12       7.3160    -2.2340    -6.5080  C.ar    1  <O>11      -0.0302
  18 C13       7.9350    -2.9110    -7.5730  C.ar    1  <O>11      -0.0544
  19 C14       7.2670    -3.0650    -8.7930  C.ar    1  <O>11      -0.0261
  20 C15       5.9790    -2.5500    -8.9600  C.ar    1  <O>11       0.1234
  21 F1        5.3210    -2.6960   -10.1540  F       1  <O>11      -0.2055
  22 C16       5.3610    -1.8810    -7.8980  C.ar    1  <O>11      -0.0261
  23 C17       6.0180    -1.7240    -6.6760  C.ar    1  <O>11      -0.0544
  24 H1        6.5110     0.6790    -2.4880  H       1  <O>11       0.0423
  25 H2        5.8310    -0.8590    -1.9040  H       1  <O>11       0.0423
  26 H3        6.9440    -0.8563     2.3451  H       1  <O>11       0.1921
  27 H4        6.2450    -1.0260    -4.5740  H       1  <O>11       0.1490
  28 H5        8.2700    -3.0360    -4.7980  H       1  <O>11       0.0512
  29 H6        8.9490    -1.4980    -5.3820  H       1  <O>11       0.0512
  30 H7       10.8538     1.6565     1.5887  H       1  <O>11       0.0625
  31 H8       11.9761     2.5162    -0.3760  H       1  <O>11       0.0618
  32 H9       11.0195     2.1555    -2.5735  H       1  <O>11       0.0618
  33 H10       8.9365     0.9445    -2.8036  H       1  <O>11       0.0624
  34 H11       8.8853    -3.2958    -7.4548  H       1  <O>11       0.0622
  35 H12       7.7275    -3.5608    -9.5722  H       1  <O>11       0.0646
  36 H13       4.4097    -1.4996    -8.0191  H       1  <O>11       0.0646
  37 H14       5.5506    -1.2339    -5.8973  H       1  <O>11       0.0622
@<TRIPOS>BOND
     1     1     2    2
     2     2     3    1
     3     3     4    1
     4     4     5   ar
     5     5     6   ar
     6     6     7   ar
     7     7     8    2
     8     7     9   ar
     9     9    10   ar
    10    10    11   ar
    11    11    12   ar
    12    12    13   ar
    13    13    14   ar
    14     4    14   ar
    15     9    14   ar
    16     2    15   am
    17    15    16    1
    18    16    17    1
    19    17    18   ar
    20    18    19   ar
    21    19    20   ar
    22    20    21    1
    23    20    22   ar
    24    22    23   ar
    25    17    23   ar
    26     3    24    1
    27     3    25    1
    28     6    26    1
    29    15    27    1
    30    16    28    1
    31    16    29    1
    32    10    30    1
    33    11    31    1
    34    12    32    1
    35    13    33    1
    36    18    34    1
    37    19    35    1
    38    22    36    1
    39    23    37    1
@<TRIPOS>MOLECULE
mol40_1_20
 37 39 0 0 0
SMALL
USER_CHARGES
****
VDW energy = -51.03
@<TRIPOS>ATOM
   1 O1        8.7381    -1.4068    -2.6744  O.2     1  <O>11      -0.2754
   2 C1        7.6234    -1.0459    -3.0216  C.2     1  <O>11       0.2192
   3 C2        6.7510    -0.2990    -2.0700  C.3     1  <O>11       0.0685
   4 C3        6.0363     0.7713    -2.7938  C.ar    1  <O>11       0.0780
   5 N1        6.6686     1.9706    -2.8465  N.ar    1  <O>11      -0.1748
   6 N2        6.0339     3.0284    -3.4001  N.ar    1  <O>11      -0.2425
   7 C4        4.7853     2.8617    -3.8955  C.ar    1  <O>11       0.2725
   8 O2        4.1440     4.0225    -4.3682  O.2     1  <O>11      -0.2658
   9 C5        4.1276     1.6244    -3.9573  C.ar    1  <O>11       0.0496
  10 C6        2.8487     1.4371    -4.5276  C.ar    1  <O>11      -0.0487
  11 C7        2.2369     0.1827    -4.5261  C.ar    1  <O>11      -0.0610
  12 C8        2.8864    -0.9037    -3.9514  C.ar    1  <O>11      -0.0611
  13 C9        4.1465    -0.7363    -3.3757  C.ar    1  <O>11      -0.0521
  14 C10       4.7855     0.5252    -3.3752  C.ar    1  <O>11       0.0108
  15 N3        7.1750    -1.3270    -4.2840  N.am    1  <O>11      -0.3109
  16 C11       8.0290    -2.0580    -5.2160  C.3     1  <O>11       0.0368
  17 C12       8.3572    -3.3909    -4.6466  C.ar    1  <O>11      -0.0302
  18 C13       9.1713    -4.2864    -5.3614  C.ar    1  <O>11      -0.0544
  19 C14       9.4691    -5.5460    -4.8292  C.ar    1  <O>11      -0.0261
  20 C15       8.9623    -5.9210    -3.5824  C.ar    1  <O>11       0.1234
  21 F1        9.2491    -7.1547    -3.0575  F       1  <O>11      -0.2055
  22 C16       8.1565    -5.0273    -2.8687  C.ar    1  <O>11      -0.0261
  23 C17       7.8553    -3.7674    -3.3898  C.ar    1  <O>11      -0.0544
  24 H1        6.0274    -0.9835    -1.6265  H       1  <O>11       0.0423
  25 H2        7.3639     0.1414    -1.2839  H       1  <O>11       0.0423
  26 H3        6.4861     3.9307    -3.4411  H       1  <O>11       0.1921
  27 H4        6.2450    -1.0260    -4.5740  H       1  <O>11       0.1490
  28 H5        8.9495    -1.4974    -5.3821  H       1  <O>11       0.0512
  29 H6        7.5067    -2.1863    -6.1638  H       1  <O>11       0.0512
  30 H7        2.3592     2.2404    -4.9520  H       1  <O>11       0.0625
  31 H8        1.3042     0.0619    -4.9508  H       1  <O>11       0.0618
  32 H9        2.4372    -1.8329    -3.9505  H       1  <O>11       0.0618
  33 H10       4.6193    -1.5455    -2.9436  H       1  <O>11       0.0624
  34 H11       9.5506    -4.0141    -6.2817  H       1  <O>11       0.0622
  35 H12      10.0653    -6.2003    -5.3598  H       1  <O>11       0.0646
  36 H13       7.7809    -5.3021    -1.9476  H       1  <O>11       0.0646
  37 H14       7.2647    -3.1137    -2.8523  H       1  <O>11       0.0622
@<TRIPOS>BOND
     1     1     2    2
     2     2     3    1
     3     3     4    1
     4     4     5   ar
     5     5     6   ar
     6     6     7   ar
     7     7     8    2
     8     7     9   ar
     9     9    10   ar
    10    10    11   ar
    11    11    12   ar
    12    12    13   ar
    13    13    14   ar
    14     4    14   ar
    15     9    14   ar
    16     2    15   am
    17    15    16    1
    18    16    17    1
    19    17    18   ar
    20    18    19   ar
    21    19    20   ar
    22    20    21    1
    23    20    22   ar
    24    22    23   ar
    25    17    23   ar
    26     3    24    1
    27     3    25    1
    28     6    26    1
    29    15    27    1
    30    16    28    1
    31    16    29    1
    32    10    30    1
    33    11    31    1
    34    12    32    1
    35    13    33    1
    36    18    34    1
    37    19    35    1
    38    22    36    1
    39    23    37    1
@<TRIPOS>MOLECULE
mol40_1_21
 37 39 0 0 0
SMALL
USER_CHARGES
****
VDW energy = -50.94
@<TRIPOS>ATOM
   1 O1        8.7381    -1.4068    -2.6744  O.2     1  <O>11      -0.2754
   2 C1        7.6234    -1.0459    -3.0216  C.2     1  <O>11       0.2192
   3 C2        6.7510    -0.2990    -2.0700  C.3     1  <O>11       0.0685
   4 C3        5.3571    -0.7653    -2.2104  C.ar    1  <O>11       0.0780
   5 N1        4.4528     0.1803    -2.5697  N.ar    1  <O>11      -0.1748
   6 N2        3.1411    -0.1440    -2.6173  N.ar    1  <O>11      -0.2425
   7 C4        2.7637    -1.4077    -2.3125  C.ar    1  <O>11       0.2725
   8 O2        1.3776    -1.6532    -2.2862  O.2     1  <O>11      -0.2658
   9 C5        3.6639    -2.4466    -2.0339  C.ar    1  <O>11       0.0496
  10 C6        3.2757    -3.7799    -1.7738  C.ar    1  <O>11      -0.0487
  11 C7        4.2229    -4.7588    -1.4703  C.ar    1  <O>11      -0.0610
  12 C8        5.5710    -4.4245    -1.4150  C.ar    1  <O>11      -0.0611
  13 C9        5.9728    -3.1108    -1.6606  C.ar    1  <O>11      -0.0521
  14 C10       5.0283    -2.1073    -1.9779  C.ar    1  <O>11       0.0108
  15 N3        7.1750    -1.3270    -4.2840  N.am    1  <O>11      -0.3109
  16 C11       8.0290    -2.0580    -5.2160  C.3     1  <O>11       0.0368
  17 C12       9.2834    -1.2940    -5.4425  C.ar    1  <O>11      -0.0302
  18 C13      10.2727    -1.7950    -6.3063  C.ar    1  <O>11      -0.0544
  19 C14      11.4586    -1.0803    -6.5088  C.ar    1  <O>11      -0.0261
  20 C15      11.6664     0.1377    -5.8566  C.ar    1  <O>11       0.1234
  21 F1       12.8276     0.8408    -6.0497  F       1  <O>11      -0.2055
  22 C16      10.6792     0.6388    -5.0012  C.ar    1  <O>11      -0.0261
  23 C17       9.4915    -0.0654    -4.7941  C.ar    1  <O>11      -0.0544
  24 H1        7.0920    -0.4752    -1.0495  H       1  <O>11       0.0423
  25 H2        6.8009     0.7669    -2.2910  H       1  <O>11       0.0423
  26 H3        2.4530     0.5491    -2.8752  H       1  <O>11       0.1921
  27 H4        6.2450    -1.0260    -4.5740  H       1  <O>11       0.1490
  28 H5        7.5059    -2.1868    -6.1642  H       1  <O>11       0.0512
  29 H6        8.2692    -3.0357    -4.7988  H       1  <O>11       0.0512
  30 H7        2.2761    -4.0339    -1.8088  H       1  <O>11       0.0625
  31 H8        3.9231    -5.7292    -1.2872  H       1  <O>11       0.0618
  32 H9        6.2739    -5.1468    -1.1927  H       1  <O>11       0.0618
  33 H10       6.9745    -2.8679    -1.6099  H       1  <O>11       0.0624
  34 H11      10.1238    -2.6930    -6.7928  H       1  <O>11       0.0622
  35 H12      12.1825    -1.4544    -7.1422  H       1  <O>11       0.0646
  36 H13      10.8306     1.5382    -4.5183  H       1  <O>11       0.0646
  37 H14       8.7674     0.3162    -4.1655  H       1  <O>11       0.0622
@<TRIPOS>BOND
     1     1     2    2
     2     2     3    1
     3     3     4    1
     4     4     5   ar
     5     5     6   ar
     6     6     7   ar
     7     7     8    2
     8     7     9   ar
     9     9    10   ar
    10    10    11   ar
    11    11    12   ar
    12    12    13   ar
    13    13    14   ar
    14     4    14   ar
    15     9    14   ar
    16     2    15   am
    17    15    16    1
    18    16    17    1
    19    17    18   ar
    20    18    19   ar
    21    19    20   ar
    22    20    21    1
    23    20    22   ar
    24    22    23   ar
    25    17    23   ar
    26     3    24    1
    27     3    25    1
    28     6    26    1
    29    15    27    1
    30    16    28    1
    31    16    29    1
    32    10    30    1
    33    11    31    1
    34    12    32    1
    35    13    33    1
    36    18    34    1
    37    19    35    1
    38    22    36    1
    39    23    37    1
@<TRIPOS>MOLECULE
mol40_1_22
 37 39 0 0 0
SMALL
USER_CHARGES
****
VDW energy = -50.08
@<TRIPOS>ATOM
   1 O1        8.7381    -1.4068    -2.6744  O.2     1  <O>11      -0.2754
   2 C1        7.6234    -1.0459    -3.0216  C.2     1  <O>11       0.2192
   3 C2        6.7510    -0.2990    -2.0700  C.3     1  <O>11       0.0685
   4 C3        7.4590    -0.1250    -0.7860  C.ar    1  <O>11       0.0780
   5 N1        7.6639     1.1582    -0.3954  N.ar    1  <O>11      -0.1748
   6 N2        8.3957     1.4019     0.7151  N.ar    1  <O>11      -0.2425
   7 C4        8.8992     0.3580     1.4143  C.ar    1  <O>11       0.2725
   8 O2        9.7320     0.6822     2.5022  O.2     1  <O>11      -0.2658
   9 C5        8.6336    -0.9858     1.1124  C.ar    1  <O>11       0.0496
  10 C6        9.1091    -2.0758     1.8752  C.ar    1  <O>11      -0.0487
  11 C7        8.8347    -3.3914     1.4988  C.ar    1  <O>11      -0.0610
  12 C8        8.0878    -3.6426     0.3537  C.ar    1  <O>11      -0.0611
  13 C9        7.6169    -2.5789    -0.4172  C.ar    1  <O>11      -0.0521
  14 C10       7.8777    -1.2393    -0.0470  C.ar    1  <O>11       0.0108
  15 N3        7.1750    -1.3270    -4.2840  N.am    1  <O>11      -0.3109
  16 C11       8.0290    -2.0580    -5.2160  C.3     1  <O>11       0.0368
  17 C12       9.2834    -1.2940    -5.4425  C.ar    1  <O>11      -0.0302
  18 C13      10.2727    -1.7950    -6.3063  C.ar    1  <O>11      -0.0544
  19 C14      11.4586    -1.0803    -6.5088  C.ar    1  <O>11      -0.0261
  20 C15      11.6664     0.1377    -5.8566  C.ar    1  <O>11       0.1234
  21 F1       12.8276     0.8408    -6.0497  F       1  <O>11      -0.2055
  22 C16      10.6792     0.6388    -5.0012  C.ar    1  <O>11      -0.0261
  23 C17       9.4915    -0.0654    -4.7941  C.ar    1  <O>11      -0.0544
  24 H1        6.5110     0.6790    -2.4880  H       1  <O>11       0.0423
  25 H2        5.8310    -0.8590    -1.9040  H       1  <O>11       0.0423
  26 H3        8.5650     2.3511     1.0166  H       1  <O>11       0.1921
  27 H4        6.2450    -1.0260    -4.5740  H       1  <O>11       0.1490
  28 H5        7.5059    -2.1868    -6.1642  H       1  <O>11       0.0512
  29 H6        8.2692    -3.0357    -4.7988  H       1  <O>11       0.0512
  30 H7        9.6679    -1.8963     2.7240  H       1  <O>11       0.0625
  31 H8        9.1858    -4.1762     2.0695  H       1  <O>11       0.0618
  32 H9        7.8818    -4.6144     0.0740  H       1  <O>11       0.0618
  33 H10       7.0699    -2.7729    -1.2706  H       1  <O>11       0.0624
  34 H11      10.1238    -2.6930    -6.7928  H       1  <O>11       0.0622
  35 H12      12.1825    -1.4544    -7.1422  H       1  <O>11       0.0646
  36 H13      10.8306     1.5382    -4.5183  H       1  <O>11       0.0646
  37 H14       8.7674     0.3162    -4.1655  H       1  <O>11       0.0622
@<TRIPOS>BOND
     1     1     2    2
     2     2     3    1
     3     3     4    1
     4     4     5   ar
     5     5     6   ar
     6     6     7   ar
     7     7     8    2
     8     7     9   ar
     9     9    10   ar
    10    10    11   ar
    11    11    12   ar
    12    12    13   ar
    13    13    14   ar
    14     4    14   ar
    15     9    14   ar
    16     2    15   am
    17    15    16    1
    18    16    17    1
    19    17    18   ar
    20    18    19   ar
    21    19    20   ar
    22    20    21    1
    23    20    22   ar
    24    22    23   ar
    25    17    23   ar
    26     3    24    1
    27     3    25    1
    28     6    26    1
    29    15    27    1
    30    16    28    1
    31    16    29    1
    32    10    30    1
    33    11    31    1
    34    12    32    1
    35    13    33    1
    36    18    34    1
    37    19    35    1
    38    22    36    1
    39    23    37    1
@<TRIPOS>MOLECULE
mol40_1_23
 37 39 0 0 0
SMALL
USER_CHARGES
****
VDW energy = -44.31
@<TRIPOS>ATOM
   1 O1        8.7381    -1.4068    -2.6744  O.2     1  <O>11      -0.2754
   2 C1        7.6234    -1.0459    -3.0216  C.2     1  <O>11       0.2192
   3 C2        6.7510    -0.2990    -2.0700  C.3     1  <O>11       0.0685
   4 C3        7.4590    -0.1250    -0.7860  C.ar    1  <O>11       0.0780
   5 N1        8.7070    -0.6540    -0.7250  N.ar    1  <O>11      -0.1748
   6 N2        9.3790    -0.6280     0.4480  N.ar    1  <O>11      -0.2425
   7 C4        8.7920    -0.0670     1.5310  C.ar    1  <O>11       0.2725
   8 O2        9.5040    -0.1600     2.7420  O.2     1  <O>11      -0.2658
   9 C5        7.5490     0.5820     1.4980  C.ar    1  <O>11       0.0496
  10 C6        6.9610     1.2200     2.6130  C.ar    1  <O>11      -0.0487
  11 C7        5.7040     1.8190     2.5190  C.ar    1  <O>11      -0.0610
  12 C8        5.0100     1.7870     1.3150  C.ar    1  <O>11      -0.0611
  13 C9        5.5710     1.1540     0.2050  C.ar    1  <O>11      -0.0521
  14 C10       6.8470     0.5490     0.2790  C.ar    1  <O>11       0.0108
  15 N3        7.1750    -1.3270    -4.2840  N.am    1  <O>11      -0.3109
  16 C11       8.0290    -2.0580    -5.2160  C.3     1  <O>11       0.0368
  17 C12       7.3160    -2.2340    -6.5080  C.ar    1  <O>11      -0.0302
  18 C13       7.9350    -2.9110    -7.5730  C.ar    1  <O>11      -0.0544
  19 C14       7.2670    -3.0650    -8.7930  C.ar    1  <O>11      -0.0261
  20 C15       5.9790    -2.5500    -8.9600  C.ar    1  <O>11       0.1234
  21 F1        5.3210    -2.6960   -10.1540  F       1  <O>11      -0.2055
  22 C16       5.3610    -1.8810    -7.8980  C.ar    1  <O>11      -0.0261
  23 C17       6.0180    -1.7240    -6.6760  C.ar    1  <O>11      -0.0544
  24 H1        6.5110     0.6790    -2.4880  H       1  <O>11       0.0423
  25 H2        5.8310    -0.8590    -1.9040  H       1  <O>11       0.0423
  26 H3       10.3060    -1.0240     0.5140  H       1  <O>11       0.1921
  27 H4        6.2450    -1.0260    -4.5740  H       1  <O>11       0.1490
  28 H5        8.2700    -3.0360    -4.7980  H       1  <O>11       0.0512
  29 H6        8.9490    -1.4980    -5.3820  H       1  <O>11       0.0512
  30 H7        7.4690     1.2435     3.5110  H       1  <O>11       0.0625
  31 H8        5.2905     2.2848     3.3418  H       1  <O>11       0.0618
  32 H9        4.0811     2.2308     1.2421  H       1  <O>11       0.0618
  33 H10       5.0466     1.1270    -0.6834  H       1  <O>11       0.0624
  34 H11       8.8853    -3.2958    -7.4548  H       1  <O>11       0.0622
  35 H12       7.7275    -3.5608    -9.5722  H       1  <O>11       0.0646
  36 H13       4.4097    -1.4996    -8.0191  H       1  <O>11       0.0646
  37 H14       5.5506    -1.2339    -5.8973  H       1  <O>11       0.0622
@<TRIPOS>BOND
     1     1     2    2
     2     2     3    1
     3     3     4    1
     4     4     5   ar
     5     5     6   ar
     6     6     7   ar
     7     7     8    2
     8     7     9   ar
     9     9    10   ar
    10    10    11   ar
    11    11    12   ar
    12    12    13   ar
    13    13    14   ar
    14     4    14   ar
    15     9    14   ar
    16     2    15   am
    17    15    16    1
    18    16    17    1
    19    17    18   ar
    20    18    19   ar
    21    19    20   ar
    22    20    21    1
    23    20    22   ar
    24    22    23   ar
    25    17    23   ar
    26     3    24    1
    27     3    25    1
    28     6    26    1
    29    15    27    1
    30    16    28    1
    31    16    29    1
    32    10    30    1
    33    11    31    1
    34    12    32    1
    35    13    33    1
    36    18    34    1
    37    19    35    1
    38    22    36    1
    39    23    37    1
@<TRIPOS>MOLECULE
mol40_1_24
 37 39 0 0 0
SMALL
USER_CHARGES
****
VDW energy = -43.07
@<TRIPOS>ATOM
   1 O1        8.7381    -1.4068    -2.6744  O.2     1  <O>11      -0.2754
   2 C1        7.6234    -1.0459    -3.0216  C.2     1  <O>11       0.2192
   3 C2        6.7510    -0.2990    -2.0700  C.3     1  <O>11       0.0685
   4 C3        7.4590    -0.1250    -0.7860  C.ar    1  <O>11       0.0780
   5 N1        8.7070    -0.6540    -0.7250  N.ar    1  <O>11      -0.1748
   6 N2        9.3790    -0.6280     0.4480  N.ar    1  <O>11      -0.2425
   7 C4        8.7920    -0.0670     1.5310  C.ar    1  <O>11       0.2725
   8 O2        9.5040    -0.1600     2.7420  O.2     1  <O>11      -0.2658
   9 C5        7.5490     0.5820     1.4980  C.ar    1  <O>11       0.0496
  10 C6        6.9610     1.2200     2.6130  C.ar    1  <O>11      -0.0487
  11 C7        5.7040     1.8190     2.5190  C.ar    1  <O>11      -0.0610
  12 C8        5.0100     1.7870     1.3150  C.ar    1  <O>11      -0.0611
  13 C9        5.5710     1.1540     0.2050  C.ar    1  <O>11      -0.0521
  14 C10       6.8470     0.5490     0.2790  C.ar    1  <O>11       0.0108
  15 N3        7.1750    -1.3270    -4.2840  N.am    1  <O>11      -0.3109
  16 C11       5.8429    -0.8955    -4.6984  C.3     1  <O>11       0.0368
  17 C12       5.5986    -1.3197    -6.1016  C.ar    1  <O>11      -0.0302
  18 C13       4.3779    -1.0197    -6.7307  C.ar    1  <O>11      -0.0544
  19 C14       4.1447    -1.4308    -8.0479  C.ar    1  <O>11      -0.0261
  20 C15       5.1246    -2.1391    -8.7480  C.ar    1  <O>11       0.1234
  21 F1        4.9003    -2.5463   -10.0379  F       1  <O>11      -0.2055
  22 C16       6.3415    -2.4328    -8.1234  C.ar    1  <O>11      -0.0261
  23 C17       6.5850    -2.0252    -6.8103  C.ar    1  <O>11      -0.0544
  24 H1        6.5110     0.6790    -2.4880  H       1  <O>11       0.0423
  25 H2        5.8310    -0.8590    -1.9040  H       1  <O>11       0.0423
  26 H3       10.3060    -1.0240     0.5140  H       1  <O>11       0.1921
  27 H4        7.7706    -1.8377    -4.9351  H       1  <O>11       0.1490
  28 H5        5.7748     0.1908    -4.6302  H       1  <O>11       0.0512
  29 H6        5.0953    -1.3472    -4.0468  H       1  <O>11       0.0512
  30 H7        7.4690     1.2435     3.5110  H       1  <O>11       0.0625
  31 H8        5.2905     2.2848     3.3418  H       1  <O>11       0.0618
  32 H9        4.0811     2.2308     1.2421  H       1  <O>11       0.0618
  33 H10       5.0466     1.1270    -0.6834  H       1  <O>11       0.0624
  34 H11       3.6513    -0.4946    -6.2195  H       1  <O>11       0.0622
  35 H12       3.2456    -1.2098    -8.5037  H       1  <O>11       0.0646
  36 H13       7.0667    -2.9561    -8.6386  H       1  <O>11       0.0646
  37 H14       7.4885    -2.2421    -6.3611  H       1  <O>11       0.0622
@<TRIPOS>BOND
     1     1     2    2
     2     2     3    1
     3     3     4    1
     4     4     5   ar
     5     5     6   ar
     6     6     7   ar
     7     7     8    2
     8     7     9   ar
     9     9    10   ar
    10    10    11   ar
    11    11    12   ar
    12    12    13   ar
    13    13    14   ar
    14     4    14   ar
    15     9    14   ar
    16     2    15   am
    17    15    16    1
    18    16    17    1
    19    17    18   ar
    20    18    19   ar
    21    19    20   ar
    22    20    21    1
    23    20    22   ar
    24    22    23   ar
    25    17    23   ar
    26     3    24    1
    27     3    25    1
    28     6    26    1
    29    15    27    1
    30    16    28    1
    31    16    29    1
    32    10    30    1
    33    11    31    1
    34    12    32    1
    35    13    33    1
    36    18    34    1
    37    19    35    1
    38    22    36    1
    39    23    37    1
@<TRIPOS>MOLECULE
mol40_1_25
 37 39 0 0 0
SMALL
USER_CHARGES
****
VDW energy = -40.34
@<TRIPOS>ATOM
   1 O1        8.7381    -1.4068    -2.6744  O.2     1  <O>11      -0.2754
   2 C1        7.6234    -1.0459    -3.0216  C.2     1  <O>11       0.2192
   3 C2        6.7510    -0.2990    -2.0700  C.3     1  <O>11       0.0685
   4 C3        6.0363     0.7713    -2.7938  C.ar    1  <O>11       0.0780
   5 N1        6.3003     0.8624    -4.1216  N.ar    1  <O>11      -0.1748
   6 N2        5.7663     1.8807    -4.8330  N.ar    1  <O>11      -0.2425
   7 C4        4.9744     2.7799    -4.2033  C.ar    1  <O>11       0.2725
   8 O2        4.5311     3.8681    -4.9787  O.2     1  <O>11      -0.2658
   9 C5        4.5889     2.6754    -2.8588  C.ar    1  <O>11       0.0496
  10 C6        3.7150     3.5796    -2.2149  C.ar    1  <O>11      -0.0487
  11 C7        3.3988     3.4357    -0.8632  C.ar    1  <O>11      -0.0610
  12 C8        3.9525     2.3927    -0.1298  C.ar    1  <O>11      -0.0611
  13 C9        4.8246     1.4945    -0.7465  C.ar    1  <O>11      -0.0521
  14 C10       5.1500     1.6195    -2.1170  C.ar    1  <O>11       0.0108
  15 N3        7.1750    -1.3270    -4.2840  N.am    1  <O>11      -0.3109
  16 C11       8.0290    -2.0580    -5.2160  C.3     1  <O>11       0.0368
  17 C12       7.3160    -2.2340    -6.5080  C.ar    1  <O>11      -0.0302
  18 C13       7.9350    -2.9110    -7.5730  C.ar    1  <O>11      -0.0544
  19 C14       7.2670    -3.0650    -8.7930  C.ar    1  <O>11      -0.0261
  20 C15       5.9790    -2.5500    -8.9600  C.ar    1  <O>11       0.1234
  21 F1        5.3210    -2.6960   -10.1540  F       1  <O>11      -0.2055
  22 C16       5.3610    -1.8810    -7.8980  C.ar    1  <O>11      -0.0261
  23 C17       6.0180    -1.7240    -6.6760  C.ar    1  <O>11      -0.0544
  24 H1        6.0274    -0.9835    -1.6265  H       1  <O>11       0.0423
  25 H2        7.3639     0.1414    -1.2839  H       1  <O>11       0.0423
  26 H3        5.9583     1.9688    -5.8209  H       1  <O>11       0.1921
  27 H4        6.2450    -1.0260    -4.5740  H       1  <O>11       0.1490
  28 H5        8.2700    -3.0360    -4.7980  H       1  <O>11       0.0512
  29 H6        8.9490    -1.4980    -5.3820  H       1  <O>11       0.0512
  30 H7        3.3039     4.3587    -2.7525  H       1  <O>11       0.0625
  31 H8        2.7552     4.1023    -0.4090  H       1  <O>11       0.0618
  32 H9        3.7190     2.2827     0.8694  H       1  <O>11       0.0618
  33 H10       5.2383     0.7274    -0.1940  H       1  <O>11       0.0624
  34 H11       8.8853    -3.2958    -7.4548  H       1  <O>11       0.0622
  35 H12       7.7275    -3.5608    -9.5722  H       1  <O>11       0.0646
  36 H13       4.4097    -1.4996    -8.0191  H       1  <O>11       0.0646
  37 H14       5.5506    -1.2339    -5.8973  H       1  <O>11       0.0622
@<TRIPOS>BOND
     1     1     2    2
     2     2     3    1
     3     3     4    1
     4     4     5   ar
     5     5     6   ar
     6     6     7   ar
     7     7     8    2
     8     7     9   ar
     9     9    10   ar
    10    10    11   ar
    11    11    12   ar
    12    12    13   ar
    13    13    14   ar
    14     4    14   ar
    15     9    14   ar
    16     2    15   am
    17    15    16    1
    18    16    17    1
    19    17    18   ar
    20    18    19   ar
    21    19    20   ar
    22    20    21    1
    23    20    22   ar
    24    22    23   ar
    25    17    23   ar
    26     3    24    1
    27     3    25    1
    28     6    26    1
    29    15    27    1
    30    16    28    1
    31    16    29    1
    32    10    30    1
    33    11    31    1
    34    12    32    1
    35    13    33    1
    36    18    34    1
    37    19    35    1
    38    22    36    1
    39    23    37    1
@<TRIPOS>MOLECULE
mol40_1_26
 37 39 0 0 0
SMALL
USER_CHARGES
****
VDW energy = -40.32
@<TRIPOS>ATOM
   1 O1        8.7381    -1.4068    -2.6744  O.2     1  <O>11      -0.2754
   2 C1        7.6234    -1.0459    -3.0216  C.2     1  <O>11       0.2192
   3 C2        6.7510    -0.2990    -2.0700  C.3     1  <O>11       0.0685
   4 C3        7.4590    -0.1250    -0.7860  C.ar    1  <O>11       0.0780
   5 N1        8.7070    -0.6540    -0.7250  N.ar    1  <O>11      -0.1748
   6 N2        9.3790    -0.6280     0.4480  N.ar    1  <O>11      -0.2425
   7 C4        8.7920    -0.0670     1.5310  C.ar    1  <O>11       0.2725
   8 O2        9.5040    -0.1600     2.7420  O.2     1  <O>11      -0.2658
   9 C5        7.5490     0.5820     1.4980  C.ar    1  <O>11       0.0496
  10 C6        6.9610     1.2200     2.6130  C.ar    1  <O>11      -0.0487
  11 C7        5.7040     1.8190     2.5190  C.ar    1  <O>11      -0.0610
  12 C8        5.0100     1.7870     1.3150  C.ar    1  <O>11      -0.0611
  13 C9        5.5710     1.1540     0.2050  C.ar    1  <O>11      -0.0521
  14 C10       6.8470     0.5490     0.2790  C.ar    1  <O>11       0.0108
  15 N3        7.1750    -1.3270    -4.2840  N.am    1  <O>11      -0.3109
  16 C11       8.0290    -2.0580    -5.2160  C.3     1  <O>11       0.0368
  17 C12       9.2834    -1.2940    -5.4425  C.ar    1  <O>11      -0.0302
  18 C13      10.2727    -1.7950    -6.3063  C.ar    1  <O>11      -0.0544
  19 C14      11.4586    -1.0803    -6.5088  C.ar    1  <O>11      -0.0261
  20 C15      11.6664     0.1377    -5.8566  C.ar    1  <O>11       0.1234
  21 F1       12.8276     0.8408    -6.0497  F       1  <O>11      -0.2055
  22 C16      10.6792     0.6388    -5.0012  C.ar    1  <O>11      -0.0261
  23 C17       9.4915    -0.0654    -4.7941  C.ar    1  <O>11      -0.0544
  24 H1        6.5110     0.6790    -2.4880  H       1  <O>11       0.0423
  25 H2        5.8310    -0.8590    -1.9040  H       1  <O>11       0.0423
  26 H3       10.3060    -1.0240     0.5140  H       1  <O>11       0.1921
  27 H4        6.2450    -1.0260    -4.5740  H       1  <O>11       0.1490
  28 H5        7.5059    -2.1868    -6.1642  H       1  <O>11       0.0512
  29 H6        8.2692    -3.0357    -4.7988  H       1  <O>11       0.0512
  30 H7        7.4690     1.2435     3.5110  H       1  <O>11       0.0625
  31 H8        5.2905     2.2848     3.3418  H       1  <O>11       0.0618
  32 H9        4.0811     2.2308     1.2421  H       1  <O>11       0.0618
  33 H10       5.0466     1.1270    -0.6834  H       1  <O>11       0.0624
  34 H11      10.1238    -2.6930    -6.7928  H       1  <O>11       0.0622
  35 H12      12.1825    -1.4544    -7.1422  H       1  <O>11       0.0646
  36 H13      10.8306     1.5382    -4.5183  H       1  <O>11       0.0646
  37 H14       8.7674     0.3162    -4.1655  H       1  <O>11       0.0622
@<TRIPOS>BOND
     1     1     2    2
     2     2     3    1
     3     3     4    1
     4     4     5   ar
     5     5     6   ar
     6     6     7   ar
     7     7     8    2
     8     7     9   ar
     9     9    10   ar
    10    10    11   ar
    11    11    12   ar
    12    12    13   ar
    13    13    14   ar
    14     4    14   ar
    15     9    14   ar
    16     2    15   am
    17    15    16    1
    18    16    17    1
    19    17    18   ar
    20    18    19   ar
    21    19    20   ar
    22    20    21    1
    23    20    22   ar
    24    22    23   ar
    25    17    23   ar
    26     3    24    1
    27     3    25    1
    28     6    26    1
    29    15    27    1
    30    16    28    1
    31    16    29    1
    32    10    30    1
    33    11    31    1
    34    12    32    1
    35    13    33    1
    36    18    34    1
    37    19    35    1
    38    22    36    1
    39    23    37    1
@<TRIPOS>MOLECULE
mol40_1_27
 37 39 0 0 0
SMALL
USER_CHARGES
****
VDW energy = -40.00
@<TRIPOS>ATOM
   1 O1        8.7381    -1.4068    -2.6744  O.2     1  <O>11      -0.2754
   2 C1        7.6234    -1.0459    -3.0216  C.2     1  <O>11       0.2192
   3 C2        6.7510    -0.2990    -2.0700  C.3     1  <O>11       0.0685
   4 C3        7.4590    -0.1250    -0.7860  C.ar    1  <O>11       0.0780
   5 N1        8.7067    -0.6546    -0.7248  N.ar    1  <O>11      -0.1748
   6 N2        9.3787    -0.6286     0.4483  N.ar    1  <O>11      -0.2425
   7 C4        8.7919    -0.0670     1.5311  C.ar    1  <O>11       0.2725
   8 O2        9.5038    -0.1600     2.7421  O.2     1  <O>11      -0.2658
   9 C5        7.5492     0.5825     1.4978  C.ar    1  <O>11       0.0496
  10 C6        6.9614     1.2211     2.6126  C.ar    1  <O>11      -0.0487
  11 C7        5.7047     1.8207     2.5184  C.ar    1  <O>11      -0.0610
  12 C8        5.0108     1.7887     1.3144  C.ar    1  <O>11      -0.0611
  13 C9        5.5715     1.1551     0.2046  C.ar    1  <O>11      -0.0521
  14 C10       6.8472     0.5496     0.2788  C.ar    1  <O>11       0.0108
  15 N3        7.1750    -1.3270    -4.2840  N.am    1  <O>11      -0.3109
  16 C11       8.0290    -2.0580    -5.2160  C.3     1  <O>11       0.0368
  17 C12       8.3572    -3.3909    -4.6466  C.ar    1  <O>11      -0.0302
  18 C13       9.1713    -4.2864    -5.3614  C.ar    1  <O>11      -0.0544
  19 C14       9.4691    -5.5460    -4.8292  C.ar    1  <O>11      -0.0261
  20 C15       8.9623    -5.9210    -3.5824  C.ar    1  <O>11       0.1234
  21 F1        9.2491    -7.1547    -3.0575  F       1  <O>11      -0.2055
  22 C16       8.1565    -5.0273    -2.8687  C.ar    1  <O>11      -0.0261
  23 C17       7.8553    -3.7674    -3.3898  C.ar    1  <O>11      -0.0544
  24 H1        6.5110     0.6790    -2.4880  H       1  <O>11       0.0423
  25 H2        5.8310    -0.8590    -1.9040  H       1  <O>11       0.0423
  26 H3       10.3055    -1.0250     0.5144  H       1  <O>11       0.1921
  27 H4        6.2450    -1.0260    -4.5740  H       1  <O>11       0.1490
  28 H5        8.9495    -1.4974    -5.3821  H       1  <O>11       0.0512
  29 H6        7.5067    -2.1863    -6.1638  H       1  <O>11       0.0512
  30 H7        7.4694     1.2446     3.5106  H       1  <O>11       0.0625
  31 H8        5.2914     2.2869     3.3410  H       1  <O>11       0.0618
  32 H9        4.0821     2.2329     1.2413  H       1  <O>11       0.0618
  33 H10       5.0472     1.1282    -0.6839  H       1  <O>11       0.0624
  34 H11       9.5506    -4.0141    -6.2817  H       1  <O>11       0.0622
  35 H12      10.0653    -6.2003    -5.3598  H       1  <O>11       0.0646
  36 H13       7.7809    -5.3021    -1.9476  H       1  <O>11       0.0646
  37 H14       7.2647    -3.1137    -2.8523  H       1  <O>11       0.0622
@<TRIPOS>BOND
     1     1     2    2
     2     2     3    1
     3     3     4    1
     4     4     5   ar
     5     5     6   ar
     6     6     7   ar
     7     7     8    2
     8     7     9   ar
     9     9    10   ar
    10    10    11   ar
    11    11    12   ar
    12    12    13   ar
    13    13    14   ar
    14     4    14   ar
    15     9    14   ar
    16     2    15   am
    17    15    16    1
    18    16    17    1
    19    17    18   ar
    20    18    19   ar
    21    19    20   ar
    22    20    21    1
    23    20    22   ar
    24    22    23   ar
    25    17    23   ar
    26     3    24    1
    27     3    25    1
    28     6    26    1
    29    15    27    1
    30    16    28    1
    31    16    29    1
    32    10    30    1
    33    11    31    1
    34    12    32    1
    35    13    33    1
    36    18    34    1
    37    19    35    1
    38    22    36    1
    39    23    37    1
@<TRIPOS>MOLECULE
mol40_1_28
 37 39 0 0 0
SMALL
USER_CHARGES
****
VDW energy = -38.18
@<TRIPOS>ATOM
   1 O1        8.7381    -1.4068    -2.6744  O.2     1  <O>11      -0.2754
   2 C1        7.6234    -1.0459    -3.0216  C.2     1  <O>11       0.2192
   3 C2        6.7510    -0.2990    -2.0700  C.3     1  <O>11       0.0685
   4 C3        7.4590    -0.1250    -0.7860  C.ar    1  <O>11       0.0780
   5 N1        7.6639     1.1582    -0.3954  N.ar    1  <O>11      -0.1748
   6 N2        8.3957     1.4019     0.7151  N.ar    1  <O>11      -0.2425
   7 C4        8.8992     0.3580     1.4143  C.ar    1  <O>11       0.2725
   8 O2        9.7320     0.6822     2.5022  O.2     1  <O>11      -0.2658
   9 C5        8.6336    -0.9858     1.1124  C.ar    1  <O>11       0.0496
  10 C6        9.1091    -2.0758     1.8752  C.ar    1  <O>11      -0.0487
  11 C7        8.8347    -3.3914     1.4988  C.ar    1  <O>11      -0.0610
  12 C8        8.0878    -3.6426     0.3537  C.ar    1  <O>11      -0.0611
  13 C9        7.6169    -2.5789    -0.4172  C.ar    1  <O>11      -0.0521
  14 C10       7.8777    -1.2393    -0.0470  C.ar    1  <O>11       0.0108
  15 N3        7.1750    -1.3270    -4.2840  N.am    1  <O>11      -0.3109
  16 C11       8.0290    -2.0580    -5.2160  C.3     1  <O>11       0.0368
  17 C12       8.3572    -3.3909    -4.6466  C.ar    1  <O>11      -0.0302
  18 C13       9.1713    -4.2864    -5.3614  C.ar    1  <O>11      -0.0544
  19 C14       9.4691    -5.5460    -4.8292  C.ar    1  <O>11      -0.0261
  20 C15       8.9623    -5.9210    -3.5824  C.ar    1  <O>11       0.1234
  21 F1        9.2491    -7.1547    -3.0575  F       1  <O>11      -0.2055
  22 C16       8.1565    -5.0273    -2.8687  C.ar    1  <O>11      -0.0261
  23 C17       7.8553    -3.7674    -3.3898  C.ar    1  <O>11      -0.0544
  24 H1        6.5110     0.6790    -2.4880  H       1  <O>11       0.0423
  25 H2        5.8310    -0.8590    -1.9040  H       1  <O>11       0.0423
  26 H3        8.5650     2.3511     1.0166  H       1  <O>11       0.1921
  27 H4        6.2450    -1.0260    -4.5740  H       1  <O>11       0.1490
  28 H5        8.9495    -1.4974    -5.3821  H       1  <O>11       0.0512
  29 H6        7.5067    -2.1863    -6.1638  H       1  <O>11       0.0512
  30 H7        9.6679    -1.8963     2.7240  H       1  <O>11       0.0625
  31 H8        9.1858    -4.1762     2.0695  H       1  <O>11       0.0618
  32 H9        7.8818    -4.6144     0.0740  H       1  <O>11       0.0618
  33 H10       7.0699    -2.7729    -1.2706  H       1  <O>11       0.0624
  34 H11       9.5506    -4.0141    -6.2817  H       1  <O>11       0.0622
  35 H12      10.0653    -6.2003    -5.3598  H       1  <O>11       0.0646
  36 H13       7.7809    -5.3021    -1.9476  H       1  <O>11       0.0646
  37 H14       7.2647    -3.1137    -2.8523  H       1  <O>11       0.0622
@<TRIPOS>BOND
     1     1     2    2
     2     2     3    1
     3     3     4    1
     4     4     5   ar
     5     5     6   ar
     6     6     7   ar
     7     7     8    2
     8     7     9   ar
     9     9    10   ar
    10    10    11   ar
    11    11    12   ar
    12    12    13   ar
    13    13    14   ar
    14     4    14   ar
    15     9    14   ar
    16     2    15   am
    17    15    16    1
    18    16    17    1
    19    17    18   ar
    20    18    19   ar
    21    19    20   ar
    22    20    21    1
    23    20    22   ar
    24    22    23   ar
    25    17    23   ar
    26     3    24    1
    27     3    25    1
    28     6    26    1
    29    15    27    1
    30    16    28    1
    31    16    29    1
    32    10    30    1
    33    11    31    1
    34    12    32    1
    35    13    33    1
    36    18    34    1
    37    19    35    1
    38    22    36    1
    39    23    37    1
@<TRIPOS>MOLECULE
mol40_1_29
 37 39 0 0 0
SMALL
USER_CHARGES
****
VDW energy = -28.96
@<TRIPOS>ATOM
   1 O1        8.7381    -1.4068    -2.6744  O.2     1  <O>11      -0.2754
   2 C1        7.6234    -1.0459    -3.0216  C.2     1  <O>11       0.2192
   3 C2        6.7510    -0.2990    -2.0700  C.3     1  <O>11       0.0685
   4 C3        7.4590    -0.1250    -0.7860  C.ar    1  <O>11       0.0780
   5 N1        6.8538    -0.6703     0.2991  N.ar    1  <O>11      -0.1748
   6 N2        7.3853    -0.4644     1.5252  N.ar    1  <O>11      -0.2425
   7 C4        8.5136     0.2748     1.6382  C.ar    1  <O>11       0.2725
   8 O2        8.9591     0.5326     2.9486  O.2     1  <O>11      -0.2658
   9 C5        9.2332     0.7751     0.5432  C.ar    1  <O>11       0.0496
  10 C6       10.4429     1.4963     0.6557  C.ar    1  <O>11      -0.0487
  11 C7       11.0908     1.9952    -0.4752  C.ar    1  <O>11      -0.0610
  12 C8       10.5415     1.7893    -1.7354  C.ar    1  <O>11      -0.0611
  13 C9        9.3428     1.0866    -1.8657  C.ar    1  <O>11      -0.0521
  14 C10       8.6764     0.5665    -0.7321  C.ar    1  <O>11       0.0108
  15 N3        7.1750    -1.3270    -4.2840  N.am    1  <O>11      -0.3109
  16 C11       8.0290    -2.0580    -5.2160  C.3     1  <O>11       0.0368
  17 C12       9.2834    -1.2940    -5.4425  C.ar    1  <O>11      -0.0302
  18 C13      10.2727    -1.7950    -6.3063  C.ar    1  <O>11      -0.0544
  19 C14      11.4586    -1.0803    -6.5088  C.ar    1  <O>11      -0.0261
  20 C15      11.6664     0.1377    -5.8566  C.ar    1  <O>11       0.1234
  21 F1       12.8276     0.8408    -6.0497  F       1  <O>11      -0.2055
  22 C16      10.6792     0.6388    -5.0012  C.ar    1  <O>11      -0.0261
  23 C17       9.4915    -0.0654    -4.7941  C.ar    1  <O>11      -0.0544
  24 H1        6.5110     0.6790    -2.4880  H       1  <O>11       0.0423
  25 H2        5.8310    -0.8590    -1.9040  H       1  <O>11       0.0423
  26 H3        6.9440    -0.8563     2.3451  H       1  <O>11       0.1921
  27 H4        6.2450    -1.0260    -4.5740  H       1  <O>11       0.1490
  28 H5        7.5059    -2.1868    -6.1642  H       1  <O>11       0.0512
  29 H6        8.2692    -3.0357    -4.7988  H       1  <O>11       0.0512
  30 H7       10.8538     1.6565     1.5887  H       1  <O>11       0.0625
  31 H8       11.9761     2.5162    -0.3760  H       1  <O>11       0.0618
  32 H9       11.0195     2.1555    -2.5735  H       1  <O>11       0.0618
  33 H10       8.9365     0.9445    -2.8036  H       1  <O>11       0.0624
  34 H11      10.1238    -2.6930    -6.7928  H       1  <O>11       0.0622
  35 H12      12.1825    -1.4544    -7.1422  H       1  <O>11       0.0646
  36 H13      10.8306     1.5382    -4.5183  H       1  <O>11       0.0646
  37 H14       8.7674     0.3162    -4.1655  H       1  <O>11       0.0622
@<TRIPOS>BOND
     1     1     2    2
     2     2     3    1
     3     3     4    1
     4     4     5   ar
     5     5     6   ar
     6     6     7   ar
     7     7     8    2
     8     7     9   ar
     9     9    10   ar
    10    10    11   ar
    11    11    12   ar
    12    12    13   ar
    13    13    14   ar
    14     4    14   ar
    15     9    14   ar
    16     2    15   am
    17    15    16    1
    18    16    17    1
    19    17    18   ar
    20    18    19   ar
    21    19    20   ar
    22    20    21    1
    23    20    22   ar
    24    22    23   ar
    25    17    23   ar
    26     3    24    1
    27     3    25    1
    28     6    26    1
    29    15    27    1
    30    16    28    1
    31    16    29    1
    32    10    30    1
    33    11    31    1
    34    12    32    1
    35    13    33    1
    36    18    34    1
    37    19    35    1
    38    22    36    1
    39    23    37    1
@<TRIPOS>MOLECULE
mol40_1_30
 37 39 0 0 0
SMALL
USER_CHARGES
****
VDW energy = -27.67
@<TRIPOS>ATOM
   1 O1        8.7381    -1.4068    -2.6744  O.2     1  <O>11      -0.2754
   2 C1        7.6234    -1.0459    -3.0216  C.2     1  <O>11       0.2192
   3 C2        6.7510    -0.2990    -2.0700  C.3     1  <O>11       0.0685
   4 C3        5.3571    -0.7653    -2.2104  C.ar    1  <O>11       0.0780
   5 N1        4.4528     0.1803    -2.5697  N.ar    1  <O>11      -0.1748
   6 N2        3.1411    -0.1440    -2.6173  N.ar    1  <O>11      -0.2425
   7 C4        2.7637    -1.4077    -2.3125  C.ar    1  <O>11       0.2725
   8 O2        1.3776    -1.6532    -2.2862  O.2     1  <O>11      -0.2658
   9 C5        3.6639    -2.4466    -2.0339  C.ar    1  <O>11       0.0496
  10 C6        3.2757    -3.7799    -1.7738  C.ar    1  <O>11      -0.0487
  11 C7        4.2229    -4.7588    -1.4703  C.ar    1  <O>11      -0.0610
  12 C8        5.5710    -4.4245    -1.4150  C.ar    1  <O>11      -0.0611
  13 C9        5.9728    -3.1108    -1.6606  C.ar    1  <O>11      -0.0521
  14 C10       5.0283    -2.1073    -1.9779  C.ar    1  <O>11       0.0108
  15 N3        7.1750    -1.3270    -4.2840  N.am    1  <O>11      -0.3109
  16 C11       5.8429    -0.8955    -4.6984  C.3     1  <O>11       0.0368
  17 C12       5.5984    -1.3201    -6.1014  C.ar    1  <O>11      -0.0302
  18 C13       4.3777    -1.0202    -6.7305  C.ar    1  <O>11      -0.0544
  19 C14       4.1443    -1.4316    -8.0475  C.ar    1  <O>11      -0.0261
  20 C15       5.1240    -2.1403    -8.7475  C.ar    1  <O>11       0.1234
  21 F1        4.8996    -2.5478   -10.0373  F       1  <O>11      -0.2055
  22 C16       6.3410    -2.4339    -8.1230  C.ar    1  <O>11      -0.0261
  23 C17       6.5847    -2.0260    -6.8100  C.ar    1  <O>11      -0.0544
  24 H1        7.0920    -0.4752    -1.0495  H       1  <O>11       0.0423
  25 H2        6.8009     0.7669    -2.2910  H       1  <O>11       0.0423
  26 H3        2.4530     0.5491    -2.8752  H       1  <O>11       0.1921
  27 H4        7.7706    -1.8377    -4.9351  H       1  <O>11       0.1490
  28 H5        5.7749     0.1908    -4.6306  H       1  <O>11       0.0512
  29 H6        5.0953    -1.3469    -4.0465  H       1  <O>11       0.0512
  30 H7        2.2761    -4.0339    -1.8088  H       1  <O>11       0.0625
  31 H8        3.9231    -5.7292    -1.2872  H       1  <O>11       0.0618
  32 H9        6.2739    -5.1468    -1.1927  H       1  <O>11       0.0618
  33 H10       6.9745    -2.8679    -1.6099  H       1  <O>11       0.0624
  34 H11       3.6512    -0.4948    -6.2194  H       1  <O>11       0.0622
  35 H12       3.2452    -1.2107    -8.5034  H       1  <O>11       0.0646
  36 H13       7.0661    -2.9574    -8.6380  H       1  <O>11       0.0646
  37 H14       7.4882    -2.2428    -6.3609  H       1  <O>11       0.0622
@<TRIPOS>BOND
     1     1     2    2
     2     2     3    1
     3     3     4    1
     4     4     5   ar
     5     5     6   ar
     6     6     7   ar
     7     7     8    2
     8     7     9   ar
     9     9    10   ar
    10    10    11   ar
    11    11    12   ar
    12    12    13   ar
    13    13    14   ar
    14     4    14   ar
    15     9    14   ar
    16     2    15   am
    17    15    16    1
    18    16    17    1
    19    17    18   ar
    20    18    19   ar
    21    19    20   ar
    22    20    21    1
    23    20    22   ar
    24    22    23   ar
    25    17    23   ar
    26     3    24    1
    27     3    25    1
    28     6    26    1
    29    15    27    1
    30    16    28    1
    31    16    29    1
    32    10    30    1
    33    11    31    1
    34    12    32    1
    35    13    33    1
    36    18    34    1
    37    19    35    1
    38    22    36    1
    39    23    37    1
