@<TRIPOS>MOLECULE
mol47_1_1
 34 36 0 0 0
SMALL
USER_CHARGES
****
VDW energy = -159.88
@<TRIPOS>ATOM
   1 O1        3.4420    -9.1855    -5.2979  O.2     1  <O>11      -0.2451
   2 C1        2.8552    -9.8129    -4.4288  C.2     1  <O>11       0.3369
   3 O2        3.5096   -10.1823    -3.3012  O.3     1  <O>11      -0.4771
   4 C2        1.4620   -10.1610    -4.6040  C.ar    1  <O>11       0.0606
   5 C3        1.1306   -11.3698    -5.2192  C.ar    1  <O>11      -0.0477
   6 C4       -0.2153   -11.7066    -5.4026  C.ar    1  <O>11      -0.0592
   7 C5       -1.2229   -10.8409    -4.9699  C.ar    1  <O>11      -0.0404
   8 C6       -0.8747    -9.6351    -4.3496  C.ar    1  <O>11       0.0344
   9 N1       -1.9179    -8.7469    -3.9043  N.pl3   1  <O>11      -0.2836
  10 C7       -2.4328    -7.7270    -4.7995  C.ar    1  <O>11       0.2200
  11 N2       -3.1038    -8.1071    -5.9112  N.ar    1  <O>11      -0.2226
  12 C8       -3.5735    -7.1428    -6.7264  C.ar    1  <O>11       0.0332
  13 C9       -3.4057    -5.8035    -6.4878  C.ar    1  <O>11      -0.0174
  14 C10      -2.7146    -5.4978    -5.3435  C.ar    1  <O>11       0.0775
  15 C11      -2.4846    -4.1314    -5.0073  C.ar    1  <O>11       0.0186
  16 C12      -1.3456    -3.4650    -5.4513  C.ar    1  <O>11      -0.0497
  17 C13      -1.1591    -2.1316    -5.0710  C.ar    1  <O>11      -0.0430
  18 C14      -2.1188    -1.4984    -4.2834  C.ar    1  <O>11       0.0276
  19 N3       -3.2264    -2.1342    -3.8668  N.ar    1  <O>11      -0.2626
  20 C15      -3.3883    -3.4247    -4.2267  C.ar    1  <O>11       0.0367
  21 N4       -2.2268    -6.4240    -4.4971  N.ar    1  <O>11      -0.2142
  22 C16       0.4636    -9.2913    -4.1600  C.ar    1  <O>11      -0.0265
  23 H1        2.9041   -10.6687    -2.7201  H       1  <O>11       0.2954
  24 H2       -2.2952    -8.8340    -2.9606  H       1  <O>11       0.1550
  25 H3        1.8739   -12.0113    -5.5368  H       1  <O>11       0.0626
  26 H4       -0.4644   -12.5978    -5.8593  H       1  <O>11       0.0618
  27 H5       -2.2155   -11.0882    -5.1063  H       1  <O>11       0.0636
  28 H6       -4.0866    -7.4276    -7.5753  H       1  <O>11       0.0831
  29 H7       -3.7728    -5.0779    -7.1232  H       1  <O>11       0.0654
  30 H8       -0.6537    -3.9443    -6.0482  H       1  <O>11       0.0625
  31 H9       -0.3151    -1.6196    -5.3720  H       1  <O>11       0.0633
  32 H10      -1.9746    -0.5130    -4.0127  H       1  <O>11       0.0829
  33 H11      -4.2357    -3.9158    -3.9016  H       1  <O>11       0.0836
  34 H12       0.7134    -8.4037    -3.6966  H       1  <O>11       0.0644
@<TRIPOS>BOND
     1     1     2    2
     2     2     3    1
     3     2     4    1
     4     4     5   ar
     5     5     6   ar
     6     6     7   ar
     7     7     8   ar
     8     8     9    1
     9     9    10    1
    10    10    11   ar
    11    11    12   ar
    12    12    13   ar
    13    13    14   ar
    14    14    15    1
    15    15    16   ar
    16    16    17   ar
    17    17    18   ar
    18    18    19   ar
    19    19    20   ar
    20    15    20   ar
    21    14    21   ar
    22    10    21   ar
    23     8    22   ar
    24     4    22   ar
    25     3    23    1
    26     9    24    1
    27     5    25    1
    28     6    26    1
    29     7    27    1
    30    12    28    1
    31    13    29    1
    32    16    30    1
    33    17    31    1
    34    18    32    1
    35    20    33    1
    36    22    34    1
@<TRIPOS>MOLECULE
mol47_1_2
 34 36 0 0 0
SMALL
USER_CHARGES
****
VDW energy = -157.67
@<TRIPOS>ATOM
   1 O1        3.4420    -9.1855    -5.2979  O.2     1  <O>11      -0.2451
   2 C1        2.8552    -9.8129    -4.4288  C.2     1  <O>11       0.3369
   3 O2        3.5096   -10.1823    -3.3012  O.3     1  <O>11      -0.4771
   4 C2        1.4620   -10.1610    -4.6040  C.ar    1  <O>11       0.0606
   5 C3        0.4750    -9.2817    -4.1546  C.ar    1  <O>11      -0.0477
   6 C4       -0.8745    -9.6183    -4.3101  C.ar    1  <O>11      -0.0592
   7 C5       -1.2337   -10.8255    -4.9148  C.ar    1  <O>11      -0.0404
   8 C6       -0.2326   -11.6941    -5.3653  C.ar    1  <O>11       0.0344
   9 N1       -0.6088   -12.9371    -5.9892  N.pl3   1  <O>11      -0.2836
  10 C7        0.4144   -13.8296    -6.5020  C.ar    1  <O>11       0.2200
  11 N2        0.8247   -13.6906    -7.7837  N.ar    1  <O>11      -0.2226
  12 C8        1.7763   -14.5297    -8.2370  C.ar    1  <O>11       0.0332
  13 C9        2.3457   -15.5122    -7.4694  C.ar    1  <O>11      -0.0174
  14 C10       1.8769   -15.5914    -6.1831  C.ar    1  <O>11       0.0775
  15 C11       2.4042   -16.5831    -5.3047  C.ar    1  <O>11       0.0186
  16 C12       1.8251   -17.8463    -5.2182  C.ar    1  <O>11      -0.0497
  17 C13       2.3690   -18.7723    -4.3216  C.ar    1  <O>11      -0.0430
  18 C14       3.4817   -18.4221    -3.5590  C.ar    1  <O>11       0.0276
  19 N3        4.0521   -17.2094    -3.6519  N.ar    1  <O>11      -0.2626
  20 C15       3.5096   -16.3190    -4.5086  C.ar    1  <O>11       0.0367
  21 N4        0.9292   -14.7765    -5.6833  N.ar    1  <O>11      -0.2142
  22 C16       1.1151   -11.3668    -5.2172  C.ar    1  <O>11      -0.0265
  23 H1        2.9041   -10.6687    -2.7201  H       1  <O>11       0.2954
  24 H2       -1.5935   -13.1906    -6.0707  H       1  <O>11       0.1550
  25 H3        0.7391    -8.3884    -3.7103  H       1  <O>11       0.0626
  26 H4       -1.6070    -8.9723    -3.9769  H       1  <O>11       0.0618
  27 H5       -2.2287   -11.0748    -5.0282  H       1  <O>11       0.0636
  28 H6        2.0933   -14.4272    -9.2138  H       1  <O>11       0.0831
  29 H7        3.0743   -16.1462    -7.8330  H       1  <O>11       0.0654
  30 H8        1.0118   -18.0944    -5.8031  H       1  <O>11       0.0625
  31 H9        1.9485   -19.7098    -4.2254  H       1  <O>11       0.0633
  32 H10       3.8788   -19.1141    -2.9043  H       1  <O>11       0.0829
  33 H11       3.9432   -15.3850    -4.5758  H       1  <O>11       0.0836
  34 H12       1.8481   -12.0089    -5.5570  H       1  <O>11       0.0644
@<TRIPOS>BOND
     1     1     2    2
     2     2     3    1
     3     2     4    1
     4     4     5   ar
     5     5     6   ar
     6     6     7   ar
     7     7     8   ar
     8     8     9    1
     9     9    10    1
    10    10    11   ar
    11    11    12   ar
    12    12    13   ar
    13    13    14   ar
    14    14    15    1
    15    15    16   ar
    16    16    17   ar
    17    17    18   ar
    18    18    19   ar
    19    19    20   ar
    20    15    20   ar
    21    14    21   ar
    22    10    21   ar
    23     8    22   ar
    24     4    22   ar
    25     3    23    1
    26     9    24    1
    27     5    25    1
    28     6    26    1
    29     7    27    1
    30    12    28    1
    31    13    29    1
    32    16    30    1
    33    17    31    1
    34    18    32    1
    35    20    33    1
    36    22    34    1
@<TRIPOS>MOLECULE
mol47_1_3
 34 36 0 0 0
SMALL
USER_CHARGES
****
VDW energy = -156.63
@<TRIPOS>ATOM
   1 O1        3.4420    -9.1855    -5.2979  O.2     1  <O>11      -0.2451
   2 C1        2.8552    -9.8129    -4.4288  C.2     1  <O>11       0.3369
   3 O2        3.5096   -10.1823    -3.3012  O.3     1  <O>11      -0.4771
   4 C2        1.4620   -10.1610    -4.6040  C.ar    1  <O>11       0.0606
   5 C3        0.5946   -10.0837    -3.5126  C.ar    1  <O>11      -0.0477
   6 C4       -0.7516   -10.4309    -3.6727  C.ar    1  <O>11      -0.0592
   7 C5       -1.2274   -10.8492    -4.9180  C.ar    1  <O>11      -0.0404
   8 C6       -0.3466   -10.9160    -6.0041  C.ar    1  <O>11       0.0344
   9 N1       -0.8430   -11.3468    -7.2862  N.pl3   1  <O>11      -0.2836
  10 C7       -0.8198   -12.7551    -7.6365  C.ar    1  <O>11       0.2200
  11 N2       -1.5974   -13.6175    -6.9421  N.ar    1  <O>11      -0.2226
  12 C8       -1.5600   -14.9195    -7.2862  C.ar    1  <O>11       0.0332
  13 C9       -0.7774   -15.4117    -8.2981  C.ar    1  <O>11      -0.0174
  14 C10      -0.0171   -14.4773    -8.9534  C.ar    1  <O>11       0.0775
  15 C11       0.8338   -14.8895   -10.0207  C.ar    1  <O>11       0.0186
  16 C12       2.1499   -15.2757    -9.7813  C.ar    1  <O>11      -0.0497
  17 C13       2.9471   -15.6475   -10.8692  C.ar    1  <O>11      -0.0430
  18 C14       2.4057   -15.6458   -12.1534  C.ar    1  <O>11       0.0276
  19 N3        1.1316   -15.2887   -12.3854  N.ar    1  <O>11      -0.2626
  20 C15       0.3765   -14.9171   -11.3306  C.ar    1  <O>11       0.0367
  21 N4       -0.0202   -13.1662    -8.6482  N.ar    1  <O>11      -0.2142
  22 C16       0.9963   -10.5699    -5.8555  C.ar    1  <O>11      -0.0265
  23 H1        2.9041   -10.6687    -2.7201  H       1  <O>11       0.2954
  24 H2       -1.2110   -10.6633    -7.9479  H       1  <O>11       0.1550
  25 H3        0.9443    -9.7723    -2.5929  H       1  <O>11       0.0626
  26 H4       -1.3953   -10.3778    -2.8679  H       1  <O>11       0.0618
  27 H5       -2.2197   -11.1068    -5.0362  H       1  <O>11       0.0636
  28 H6       -2.1519   -15.5812    -6.7600  H       1  <O>11       0.0831
  29 H7       -0.7615   -16.4127    -8.5486  H       1  <O>11       0.0654
  30 H8        2.5293   -15.2875    -8.8216  H       1  <O>11       0.0625
  31 H9        3.9310   -15.9216   -10.7215  H       1  <O>11       0.0633
  32 H10       3.0004   -15.9268   -12.9486  H       1  <O>11       0.0829
  33 H11      -0.6005   -14.6364   -11.5088  H       1  <O>11       0.0836
  34 H12       1.6389   -10.6156    -6.6617  H       1  <O>11       0.0644
@<TRIPOS>BOND
     1     1     2    2
     2     2     3    1
     3     2     4    1
     4     4     5   ar
     5     5     6   ar
     6     6     7   ar
     7     7     8   ar
     8     8     9    1
     9     9    10    1
    10    10    11   ar
    11    11    12   ar
    12    12    13   ar
    13    13    14   ar
    14    14    15    1
    15    15    16   ar
    16    16    17   ar
    17    17    18   ar
    18    18    19   ar
    19    19    20   ar
    20    15    20   ar
    21    14    21   ar
    22    10    21   ar
    23     8    22   ar
    24     4    22   ar
    25     3    23    1
    26     9    24    1
    27     5    25    1
    28     6    26    1
    29     7    27    1
    30    12    28    1
    31    13    29    1
    32    16    30    1
    33    17    31    1
    34    18    32    1
    35    20    33    1
    36    22    34    1
@<TRIPOS>MOLECULE
mol47_1_4
 34 36 0 0 0
SMALL
USER_CHARGES
****
VDW energy = -156.37
@<TRIPOS>ATOM
   1 O1        3.4420    -9.1855    -5.2979  O.2     1  <O>11      -0.2451
   2 C1        2.8552    -9.8129    -4.4288  C.2     1  <O>11       0.3369
   3 O2        3.5096   -10.1823    -3.3012  O.3     1  <O>11      -0.4771
   4 C2        1.4620   -10.1610    -4.6040  C.ar    1  <O>11       0.0606
   5 C3        0.4750    -9.2817    -4.1546  C.ar    1  <O>11      -0.0477
   6 C4       -0.8745    -9.6183    -4.3101  C.ar    1  <O>11      -0.0592
   7 C5       -1.2337   -10.8255    -4.9148  C.ar    1  <O>11      -0.0404
   8 C6       -0.2326   -11.6941    -5.3653  C.ar    1  <O>11       0.0344
   9 N1       -0.6088   -12.9371    -5.9892  N.pl3   1  <O>11      -0.2836
  10 C7        0.4144   -13.8296    -6.5020  C.ar    1  <O>11       0.2200
  11 N2        1.1726   -13.4274    -7.5478  N.ar    1  <O>11      -0.2226
  12 C8        2.1168   -14.2723    -8.0058  C.ar    1  <O>11       0.0332
  13 C9        2.3458   -15.5124    -7.4687  C.ar    1  <O>11      -0.0174
  14 C10       1.5368   -15.8487    -6.4137  C.ar    1  <O>11       0.0775
  15 C11       1.6943   -17.1198    -5.7871  C.ar    1  <O>11       0.0186
  16 C12       0.9823   -18.2314    -6.2297  C.ar    1  <O>11      -0.0497
  17 C13       1.1577   -19.4482    -5.5621  C.ar    1  <O>11      -0.0430
  18 C14       2.0497   -19.5266    -4.4941  C.ar    1  <O>11       0.0276
  19 N3        2.7497   -18.4594    -4.0749  N.ar    1  <O>11      -0.2626
  20 C15       2.5609   -17.2872    -4.7163  C.ar    1  <O>11       0.0367
  21 N4        0.5810   -15.0399    -5.9195  N.ar    1  <O>11      -0.2142
  22 C16       1.1151   -11.3668    -5.2172  C.ar    1  <O>11      -0.0265
  23 H1        2.9041   -10.6687    -2.7201  H       1  <O>11       0.2954
  24 H2       -1.5935   -13.1906    -6.0707  H       1  <O>11       0.1550
  25 H3        0.7391    -8.3884    -3.7103  H       1  <O>11       0.0626
  26 H4       -1.6070    -8.9723    -3.9769  H       1  <O>11       0.0618
  27 H5       -2.2287   -11.0748    -5.0282  H       1  <O>11       0.0636
  28 H6        2.6982   -13.9698    -8.8029  H       1  <O>11       0.0831
  29 H7        3.0742   -16.1469    -7.8320  H       1  <O>11       0.0654
  30 H8        0.3388   -18.1592    -7.0332  H       1  <O>11       0.0625
  31 H9        0.6293   -20.2835    -5.8589  H       1  <O>11       0.0633
  32 H10       2.1760   -20.4301    -4.0116  H       1  <O>11       0.0829
  33 H11       3.0934   -16.4654    -4.3908  H       1  <O>11       0.0836
  34 H12       1.8481   -12.0089    -5.5570  H       1  <O>11       0.0644
@<TRIPOS>BOND
     1     1     2    2
     2     2     3    1
     3     2     4    1
     4     4     5   ar
     5     5     6   ar
     6     6     7   ar
     7     7     8   ar
     8     8     9    1
     9     9    10    1
    10    10    11   ar
    11    11    12   ar
    12    12    13   ar
    13    13    14   ar
    14    14    15    1
    15    15    16   ar
    16    16    17   ar
    17    17    18   ar
    18    18    19   ar
    19    19    20   ar
    20    15    20   ar
    21    14    21   ar
    22    10    21   ar
    23     8    22   ar
    24     4    22   ar
    25     3    23    1
    26     9    24    1
    27     5    25    1
    28     6    26    1
    29     7    27    1
    30    12    28    1
    31    13    29    1
    32    16    30    1
    33    17    31    1
    34    18    32    1
    35    20    33    1
    36    22    34    1
@<TRIPOS>MOLECULE
mol47_1_5
 34 36 0 0 0
SMALL
USER_CHARGES
****
VDW energy = -153.48
@<TRIPOS>ATOM
   1 O1        3.4420    -9.1855    -5.2979  O.2     1  <O>11      -0.2451
   2 C1        2.8552    -9.8129    -4.4288  C.2     1  <O>11       0.3369
   3 O2        3.5096   -10.1823    -3.3012  O.3     1  <O>11      -0.4771
   4 C2        1.4620   -10.1610    -4.6040  C.ar    1  <O>11       0.0606
   5 C3        0.8523    -9.9431    -5.8410  C.ar    1  <O>11      -0.0477
   6 C4       -0.4984   -10.2663    -6.0132  C.ar    1  <O>11      -0.0592
   7 C5       -1.2331   -10.8075    -4.9552  C.ar    1  <O>11      -0.0404
   8 C6       -0.6062   -11.0255    -3.7226  C.ar    1  <O>11       0.0344
   9 N1       -1.3684   -11.5850    -2.6356  N.pl3   1  <O>11      -0.2836
  10 C7       -1.8738   -12.9424    -2.7279  C.ar    1  <O>11       0.2200
  11 N2       -0.9941   -13.9697    -2.7619  N.ar    1  <O>11      -0.2226
  12 C8       -1.4866   -15.2209    -2.8465  C.ar    1  <O>11       0.0332
  13 C9       -2.8268   -15.5034    -2.9004  C.ar    1  <O>11      -0.0174
  14 C10      -3.6544   -14.4106    -2.8629  C.ar    1  <O>11       0.0775
  15 C11      -5.0668   -14.5988    -2.9163  C.ar    1  <O>11       0.0186
  16 C12      -5.7416   -14.6262    -4.1339  C.ar    1  <O>11      -0.0497
  17 C13      -7.1310   -14.7895    -4.1258  C.ar    1  <O>11      -0.0430
  18 C14      -7.8003   -14.9432    -2.9130  C.ar    1  <O>11       0.0276
  19 N3       -7.1498   -14.9330    -1.7377  N.ar    1  <O>11      -0.2626
  20 C15      -5.8117   -14.7592    -1.7566  C.ar    1  <O>11       0.0367
  21 N4       -3.2115   -13.1423    -2.7777  N.ar    1  <O>11      -0.2142
  22 C16       0.7400   -10.7089    -3.5415  C.ar    1  <O>11      -0.0265
  23 H1        2.9041   -10.6687    -2.7201  H       1  <O>11       0.2954
  24 H2       -1.5530   -11.0282    -1.8010  H       1  <O>11       0.1550
  25 H3        1.3947    -9.5459    -6.6240  H       1  <O>11       0.0626
  26 H4       -0.9534   -10.1042    -6.9251  H       1  <O>11       0.0618
  27 H5       -2.2296   -11.0446    -5.0813  H       1  <O>11       0.0636
  28 H6       -0.8197   -16.0080    -2.8721  H       1  <O>11       0.0831
  29 H7       -3.1868   -16.4685    -2.9646  H       1  <O>11       0.0654
  30 H8       -5.2278   -14.5281    -5.0235  H       1  <O>11       0.0625
  31 H9       -7.6576   -14.7962    -5.0133  H       1  <O>11       0.0633
  32 H10      -8.8247   -15.0685    -2.9181  H       1  <O>11       0.0829
  33 H11      -5.3121   -14.7446    -0.8538  H       1  <O>11       0.0836
  34 H12       1.1977   -10.8778    -2.6321  H       1  <O>11       0.0644
@<TRIPOS>BOND
     1     1     2    2
     2     2     3    1
     3     2     4    1
     4     4     5   ar
     5     5     6   ar
     6     6     7   ar
     7     7     8   ar
     8     8     9    1
     9     9    10    1
    10    10    11   ar
    11    11    12   ar
    12    12    13   ar
    13    13    14   ar
    14    14    15    1
    15    15    16   ar
    16    16    17   ar
    17    17    18   ar
    18    18    19   ar
    19    19    20   ar
    20    15    20   ar
    21    14    21   ar
    22    10    21   ar
    23     8    22   ar
    24     4    22   ar
    25     3    23    1
    26     9    24    1
    27     5    25    1
    28     6    26    1
    29     7    27    1
    30    12    28    1
    31    13    29    1
    32    16    30    1
    33    17    31    1
    34    18    32    1
    35    20    33    1
    36    22    34    1
@<TRIPOS>MOLECULE
mol47_1_6
 34 36 0 0 0
SMALL
USER_CHARGES
****
VDW energy = -153.38
@<TRIPOS>ATOM
   1 O1        3.4420    -9.1855    -5.2979  O.2     1  <O>11      -0.2451
   2 C1        2.8552    -9.8129    -4.4288  C.2     1  <O>11       0.3369
   3 O2        3.5096   -10.1823    -3.3012  O.3     1  <O>11      -0.4771
   4 C2        1.4620   -10.1610    -4.6040  C.ar    1  <O>11       0.0606
   5 C3        0.8523    -9.9431    -5.8410  C.ar    1  <O>11      -0.0477
   6 C4       -0.4984   -10.2663    -6.0132  C.ar    1  <O>11      -0.0592
   7 C5       -1.2331   -10.8075    -4.9552  C.ar    1  <O>11      -0.0404
   8 C6       -0.6062   -11.0255    -3.7226  C.ar    1  <O>11       0.0344
   9 N1       -1.3684   -11.5850    -2.6356  N.pl3   1  <O>11      -0.2836
  10 C7       -1.8738   -12.9424    -2.7279  C.ar    1  <O>11       0.2200
  11 N2       -0.9941   -13.9697    -2.7619  N.ar    1  <O>11      -0.2226
  12 C8       -1.4866   -15.2209    -2.8465  C.ar    1  <O>11       0.0332
  13 C9       -2.8268   -15.5034    -2.9004  C.ar    1  <O>11      -0.0174
  14 C10      -3.6544   -14.4106    -2.8629  C.ar    1  <O>11       0.0775
  15 C11      -5.0668   -14.5988    -2.9163  C.ar    1  <O>11       0.0186
  16 C12      -5.8138   -14.7609    -1.7526  C.ar    1  <O>11      -0.0497
  17 C13      -7.1931   -14.9664    -1.8655  C.ar    1  <O>11      -0.0430
  18 C14      -7.7872   -14.9811    -3.1262  C.ar    1  <O>11       0.0276
  19 N3       -7.0712   -14.8093    -4.2497  N.ar    1  <O>11      -0.2626
  20 C15      -5.7394   -14.6273    -4.1297  C.ar    1  <O>11       0.0367
  21 N4       -3.2115   -13.1423    -2.7777  N.ar    1  <O>11      -0.2142
  22 C16       0.7400   -10.7089    -3.5415  C.ar    1  <O>11      -0.0265
  23 H1        2.9041   -10.6687    -2.7201  H       1  <O>11       0.2954
  24 H2       -1.5530   -11.0282    -1.8010  H       1  <O>11       0.1550
  25 H3        1.3947    -9.5459    -6.6240  H       1  <O>11       0.0626
  26 H4       -0.9534   -10.1042    -6.9251  H       1  <O>11       0.0618
  27 H5       -2.2296   -11.0446    -5.0813  H       1  <O>11       0.0636
  28 H6       -0.8197   -16.0080    -2.8721  H       1  <O>11       0.0831
  29 H7       -3.1868   -16.4685    -2.9646  H       1  <O>11       0.0654
  30 H8       -5.3598   -14.7300    -0.8264  H       1  <O>11       0.0625
  31 H9       -7.7675   -15.1065    -1.0198  H       1  <O>11       0.0633
  32 H10      -8.8061   -15.1281    -3.1985  H       1  <O>11       0.0829
  33 H11      -5.1877   -14.5018    -4.9927  H       1  <O>11       0.0836
  34 H12       1.1977   -10.8778    -2.6321  H       1  <O>11       0.0644
@<TRIPOS>BOND
     1     1     2    2
     2     2     3    1
     3     2     4    1
     4     4     5   ar
     5     5     6   ar
     6     6     7   ar
     7     7     8   ar
     8     8     9    1
     9     9    10    1
    10    10    11   ar
    11    11    12   ar
    12    12    13   ar
    13    13    14   ar
    14    14    15    1
    15    15    16   ar
    16    16    17   ar
    17    17    18   ar
    18    18    19   ar
    19    19    20   ar
    20    15    20   ar
    21    14    21   ar
    22    10    21   ar
    23     8    22   ar
    24     4    22   ar
    25     3    23    1
    26     9    24    1
    27     5    25    1
    28     6    26    1
    29     7    27    1
    30    12    28    1
    31    13    29    1
    32    16    30    1
    33    17    31    1
    34    18    32    1
    35    20    33    1
    36    22    34    1
@<TRIPOS>MOLECULE
mol47_1_7
 34 36 0 0 0
SMALL
USER_CHARGES
****
VDW energy = -153.17
@<TRIPOS>ATOM
   1 O1        3.4420    -9.1855    -5.2979  O.2     1  <O>11      -0.2451
   2 C1        2.8552    -9.8129    -4.4288  C.2     1  <O>11       0.3369
   3 O2        3.5096   -10.1823    -3.3012  O.3     1  <O>11      -0.4771
   4 C2        1.4620   -10.1610    -4.6040  C.ar    1  <O>11       0.0606
   5 C3        0.8523    -9.9431    -5.8410  C.ar    1  <O>11      -0.0477
   6 C4       -0.4984   -10.2663    -6.0132  C.ar    1  <O>11      -0.0592
   7 C5       -1.2331   -10.8075    -4.9552  C.ar    1  <O>11      -0.0404
   8 C6       -0.6062   -11.0255    -3.7226  C.ar    1  <O>11       0.0344
   9 N1       -1.3684   -11.5850    -2.6356  N.pl3   1  <O>11      -0.2836
  10 C7       -2.0752   -10.7088    -1.7194  C.ar    1  <O>11       0.2200
  11 N2       -1.4383   -10.2666    -0.6107  N.ar    1  <O>11      -0.2226
  12 C8       -2.1141    -9.4533     0.2242  C.ar    1  <O>11       0.0332
  13 C9       -3.4076    -9.0545     0.0083  C.ar    1  <O>11      -0.0174
  14 C10      -3.9853    -9.5452    -1.1346  C.ar    1  <O>11       0.0775
  15 C11      -5.3304    -9.1908    -1.4479  C.ar    1  <O>11       0.0186
  16 C12      -6.3990    -9.9622    -0.9990  C.ar    1  <O>11      -0.0497
  17 C13      -7.6967    -9.5812    -1.3569  C.ar    1  <O>11      -0.0430
  18 C14      -7.8916    -8.4364    -2.1274  C.ar    1  <O>11       0.0276
  19 N3       -6.8634    -7.6815    -2.5487  N.ar    1  <O>11      -0.2626
  20 C15      -5.6151    -8.0671    -2.2106  C.ar    1  <O>11       0.0367
  21 N4       -3.3522   -10.3589    -2.0001  N.ar    1  <O>11      -0.2142
  22 C16       0.7400   -10.7089    -3.5415  C.ar    1  <O>11      -0.0265
  23 H1        2.9041   -10.6687    -2.7201  H       1  <O>11       0.2954
  24 H2       -1.4119   -12.5962    -2.5091  H       1  <O>11       0.1550
  25 H3        1.3947    -9.5459    -6.6240  H       1  <O>11       0.0626
  26 H4       -0.9534   -10.1042    -6.9251  H       1  <O>11       0.0618
  27 H5       -2.2296   -11.0446    -5.0813  H       1  <O>11       0.0636
  28 H6       -1.6324    -9.1127     1.0709  H       1  <O>11       0.0831
  29 H7       -3.9102    -8.4304     0.6585  H       1  <O>11       0.0654
  30 H8       -6.2373   -10.7973    -0.4147  H       1  <O>11       0.0625
  31 H9       -8.5055   -10.1450    -1.0518  H       1  <O>11       0.0633
  32 H10      -8.8531    -8.1608    -2.3816  H       1  <O>11       0.0829
  33 H11      -4.8243    -7.4913    -2.5393  H       1  <O>11       0.0836
  34 H12       1.1977   -10.8778    -2.6321  H       1  <O>11       0.0644
@<TRIPOS>BOND
     1     1     2    2
     2     2     3    1
     3     2     4    1
     4     4     5   ar
     5     5     6   ar
     6     6     7   ar
     7     7     8   ar
     8     8     9    1
     9     9    10    1
    10    10    11   ar
    11    11    12   ar
    12    12    13   ar
    13    13    14   ar
    14    14    15    1
    15    15    16   ar
    16    16    17   ar
    17    17    18   ar
    18    18    19   ar
    19    19    20   ar
    20    15    20   ar
    21    14    21   ar
    22    10    21   ar
    23     8    22   ar
    24     4    22   ar
    25     3    23    1
    26     9    24    1
    27     5    25    1
    28     6    26    1
    29     7    27    1
    30    12    28    1
    31    13    29    1
    32    16    30    1
    33    17    31    1
    34    18    32    1
    35    20    33    1
    36    22    34    1
@<TRIPOS>MOLECULE
mol47_1_8
 34 36 0 0 0
SMALL
USER_CHARGES
****
VDW energy = -153.06
@<TRIPOS>ATOM
   1 O1        3.4420    -9.1855    -5.2979  O.2     1  <O>11      -0.2451
   2 C1        2.8552    -9.8129    -4.4288  C.2     1  <O>11       0.3369
   3 O2        3.5096   -10.1823    -3.3012  O.3     1  <O>11      -0.4771
   4 C2        1.4620   -10.1610    -4.6040  C.ar    1  <O>11       0.0606
   5 C3        0.8523    -9.9431    -5.8410  C.ar    1  <O>11      -0.0477
   6 C4       -0.4984   -10.2663    -6.0132  C.ar    1  <O>11      -0.0592
   7 C5       -1.2331   -10.8075    -4.9552  C.ar    1  <O>11      -0.0404
   8 C6       -0.6062   -11.0255    -3.7226  C.ar    1  <O>11       0.0344
   9 N1       -1.3684   -11.5850    -2.6356  N.pl3   1  <O>11      -0.2836
  10 C7       -2.0752   -10.7088    -1.7194  C.ar    1  <O>11       0.2200
  11 N2       -3.1075    -9.9680    -2.1841  N.ar    1  <O>11      -0.2226
  12 C8       -3.7492    -9.1630    -1.3150  C.ar    1  <O>11       0.0332
  13 C9       -3.4098    -9.0568     0.0088  C.ar    1  <O>11      -0.0174
  14 C10      -2.3532    -9.8368     0.4035  C.ar    1  <O>11       0.0775
  15 C11      -1.9206    -9.7958     1.7615  C.ar    1  <O>11       0.0186
  16 C12      -0.9499    -8.8889     2.1785  C.ar    1  <O>11      -0.0497
  17 C13      -0.5457    -8.9093     3.5177  C.ar    1  <O>11      -0.0430
  18 C14      -1.1339    -9.8118     4.4019  C.ar    1  <O>11       0.0276
  19 N3       -2.0818   -10.6773     4.0058  N.ar    1  <O>11      -0.2626
  20 C15      -2.4528   -10.6592     2.7084  C.ar    1  <O>11       0.0367
  21 N4       -1.6811   -10.6571    -0.4257  N.ar    1  <O>11      -0.2142
  22 C16       0.7400   -10.7089    -3.5415  C.ar    1  <O>11      -0.0265
  23 H1        2.9041   -10.6687    -2.7201  H       1  <O>11       0.2954
  24 H2       -1.4119   -12.5962    -2.5091  H       1  <O>11       0.1550
  25 H3        1.3947    -9.5459    -6.6240  H       1  <O>11       0.0626
  26 H4       -0.9534   -10.1042    -6.9251  H       1  <O>11       0.0618
  27 H5       -2.2296   -11.0446    -5.0813  H       1  <O>11       0.0636
  28 H6       -4.5379    -8.5965    -1.6644  H       1  <O>11       0.0831
  29 H7       -3.9129    -8.4351     0.6609  H       1  <O>11       0.0654
  30 H8       -0.5374    -8.2158     1.5138  H       1  <O>11       0.0625
  31 H9        0.1843    -8.2594     3.8491  H       1  <O>11       0.0633
  32 H10      -0.8326    -9.8154     5.3889  H       1  <O>11       0.0829
  33 H11      -3.1764   -11.3282     2.4019  H       1  <O>11       0.0836
  34 H12       1.1977   -10.8778    -2.6321  H       1  <O>11       0.0644
@<TRIPOS>BOND
     1     1     2    2
     2     2     3    1
     3     2     4    1
     4     4     5   ar
     5     5     6   ar
     6     6     7   ar
     7     7     8   ar
     8     8     9    1
     9     9    10    1
    10    10    11   ar
    11    11    12   ar
    12    12    13   ar
    13    13    14   ar
    14    14    15    1
    15    15    16   ar
    16    16    17   ar
    17    17    18   ar
    18    18    19   ar
    19    19    20   ar
    20    15    20   ar
    21    14    21   ar
    22    10    21   ar
    23     8    22   ar
    24     4    22   ar
    25     3    23    1
    26     9    24    1
    27     5    25    1
    28     6    26    1
    29     7    27    1
    30    12    28    1
    31    13    29    1
    32    16    30    1
    33    17    31    1
    34    18    32    1
    35    20    33    1
    36    22    34    1
@<TRIPOS>MOLECULE
mol47_1_9
 34 36 0 0 0
SMALL
USER_CHARGES
****
VDW energy = -152.97
@<TRIPOS>ATOM
   1 O1        3.4420    -9.1855    -5.2979  O.2     1  <O>11      -0.2451
   2 C1        2.8552    -9.8129    -4.4288  C.2     1  <O>11       0.3369
   3 O2        3.5096   -10.1823    -3.3012  O.3     1  <O>11      -0.4771
   4 C2        1.4620   -10.1610    -4.6040  C.ar    1  <O>11       0.0606
   5 C3        0.8523    -9.9431    -5.8410  C.ar    1  <O>11      -0.0477
   6 C4       -0.4984   -10.2663    -6.0132  C.ar    1  <O>11      -0.0592
   7 C5       -1.2331   -10.8075    -4.9552  C.ar    1  <O>11      -0.0404
   8 C6       -0.6062   -11.0255    -3.7226  C.ar    1  <O>11       0.0344
   9 N1       -1.3684   -11.5850    -2.6356  N.pl3   1  <O>11      -0.2836
  10 C7       -1.4285   -13.0242    -2.4578  C.ar    1  <O>11       0.2200
  11 N2       -2.2904   -13.5383    -1.5505  N.ar    1  <O>11      -0.2226
  12 C8       -2.3295   -14.8770    -1.4038  C.ar    1  <O>11       0.0332
  13 C9       -1.5434   -15.7393    -2.1231  C.ar    1  <O>11      -0.0174
  14 C10      -0.6953   -15.1431    -3.0208  C.ar    1  <O>11       0.0775
  15 C11       0.1665   -15.9543    -3.8161  C.ar    1  <O>11       0.0186
  16 C12       0.0915   -15.9327    -5.2062  C.ar    1  <O>11      -0.0497
  17 C13       0.9448   -16.7674    -5.9359  C.ar    1  <O>11      -0.0430
  18 C14       1.8584   -17.5770    -5.2634  C.ar    1  <O>11       0.0276
  19 N3        1.9438   -17.5882    -3.9228  N.ar    1  <O>11      -0.2626
  20 C15       1.1052   -16.7906    -3.2288  C.ar    1  <O>11       0.0367
  21 N4       -0.6200   -13.8117    -3.2047  N.ar    1  <O>11      -0.2142
  22 C16       0.7400   -10.7089    -3.5415  C.ar    1  <O>11      -0.0265
  23 H1        2.9041   -10.6687    -2.7201  H       1  <O>11       0.2954
  24 H2       -1.8656   -10.9708    -1.9906  H       1  <O>11       0.1550
  25 H3        1.3947    -9.5459    -6.6240  H       1  <O>11       0.0626
  26 H4       -0.9534   -10.1042    -6.9251  H       1  <O>11       0.0618
  27 H5       -2.2296   -11.0446    -5.0813  H       1  <O>11       0.0636
  28 H6       -2.9859   -15.2741    -0.7136  H       1  <O>11       0.0831
  29 H7       -1.5867   -16.7628    -1.9982  H       1  <O>11       0.0654
  30 H8       -0.5794   -15.3141    -5.6882  H       1  <O>11       0.0625
  31 H9        0.8980   -16.7835    -6.9666  H       1  <O>11       0.0633
  32 H10       2.4872   -18.1852    -5.8109  H       1  <O>11       0.0829
  33 H11       1.1656   -16.8035    -2.1987  H       1  <O>11       0.0836
  34 H12       1.1977   -10.8778    -2.6321  H       1  <O>11       0.0644
@<TRIPOS>BOND
     1     1     2    2
     2     2     3    1
     3     2     4    1
     4     4     5   ar
     5     5     6   ar
     6     6     7   ar
     7     7     8   ar
     8     8     9    1
     9     9    10    1
    10    10    11   ar
    11    11    12   ar
    12    12    13   ar
    13    13    14   ar
    14    14    15    1
    15    15    16   ar
    16    16    17   ar
    17    17    18   ar
    18    18    19   ar
    19    19    20   ar
    20    15    20   ar
    21    14    21   ar
    22    10    21   ar
    23     8    22   ar
    24     4    22   ar
    25     3    23    1
    26     9    24    1
    27     5    25    1
    28     6    26    1
    29     7    27    1
    30    12    28    1
    31    13    29    1
    32    16    30    1
    33    17    31    1
    34    18    32    1
    35    20    33    1
    36    22    34    1
@<TRIPOS>MOLECULE
mol47_1_10
 34 36 0 0 0
SMALL
USER_CHARGES
****
VDW energy = -152.70
@<TRIPOS>ATOM
   1 O1        3.4420    -9.1855    -5.2979  O.2     1  <O>11      -0.2451
   2 C1        2.8552    -9.8129    -4.4288  C.2     1  <O>11       0.3369
   3 O2        3.5096   -10.1823    -3.3012  O.3     1  <O>11      -0.4771
   4 C2        1.4620   -10.1610    -4.6040  C.ar    1  <O>11       0.0606
   5 C3        0.8523    -9.9431    -5.8410  C.ar    1  <O>11      -0.0477
   6 C4       -0.4984   -10.2663    -6.0132  C.ar    1  <O>11      -0.0592
   7 C5       -1.2331   -10.8075    -4.9552  C.ar    1  <O>11      -0.0404
   8 C6       -0.6062   -11.0255    -3.7226  C.ar    1  <O>11       0.0344
   9 N1       -1.3684   -11.5850    -2.6356  N.pl3   1  <O>11      -0.2836
  10 C7       -2.0752   -10.7088    -1.7194  C.ar    1  <O>11       0.2200
  11 N2       -2.6312   -11.2356    -0.6042  N.ar    1  <O>11      -0.2226
  12 C8       -3.2811   -10.4026     0.2318  C.ar    1  <O>11       0.0332
  13 C9       -3.4073    -9.0559     0.0098  C.ar    1  <O>11      -0.0174
  14 C10      -2.8191    -8.5977    -1.1411  C.ar    1  <O>11       0.0775
  15 C11      -2.8970    -7.2111    -1.4640  C.ar    1  <O>11       0.0186
  16 C12      -1.7453    -6.4423    -1.6095  C.ar    1  <O>11      -0.0497
  17 C13      -1.8815    -5.0811    -1.9027  C.ar    1  <O>11      -0.0430
  18 C14      -3.1532    -4.5344    -2.0644  C.ar    1  <O>11       0.0276
  19 N3       -4.2656    -5.2772    -1.9401  N.ar    1  <O>11      -0.2626
  20 C15      -4.1227    -6.5855    -1.6418  C.ar    1  <O>11       0.0367
  21 N4       -2.1584    -9.3888    -2.0070  N.ar    1  <O>11      -0.2142
  22 C16       0.7400   -10.7089    -3.5415  C.ar    1  <O>11      -0.0265
  23 H1        2.9041   -10.6687    -2.7201  H       1  <O>11       0.2954
  24 H2       -1.4119   -12.5962    -2.5091  H       1  <O>11       0.1550
  25 H3        1.3947    -9.5459    -6.6240  H       1  <O>11       0.0626
  26 H4       -0.9534   -10.1042    -6.9251  H       1  <O>11       0.0618
  27 H5       -2.2296   -11.0446    -5.0813  H       1  <O>11       0.0636
  28 H6       -3.7064   -10.7995     1.0842  H       1  <O>11       0.0831
  29 H7       -3.9085    -8.4322     0.6616  H       1  <O>11       0.0654
  30 H8       -0.8110    -6.8675    -1.5033  H       1  <O>11       0.0625
  31 H9       -1.0446    -4.4850    -1.9989  H       1  <O>11       0.0633
  32 H10      -3.2428    -3.5304    -2.2859  H       1  <O>11       0.0829
  33 H11      -4.9770    -7.1554    -1.5397  H       1  <O>11       0.0836
  34 H12       1.1977   -10.8778    -2.6321  H       1  <O>11       0.0644
@<TRIPOS>BOND
     1     1     2    2
     2     2     3    1
     3     2     4    1
     4     4     5   ar
     5     5     6   ar
     6     6     7   ar
     7     7     8   ar
     8     8     9    1
     9     9    10    1
    10    10    11   ar
    11    11    12   ar
    12    12    13   ar
    13    13    14   ar
    14    14    15    1
    15    15    16   ar
    16    16    17   ar
    17    17    18   ar
    18    18    19   ar
    19    19    20   ar
    20    15    20   ar
    21    14    21   ar
    22    10    21   ar
    23     8    22   ar
    24     4    22   ar
    25     3    23    1
    26     9    24    1
    27     5    25    1
    28     6    26    1
    29     7    27    1
    30    12    28    1
    31    13    29    1
    32    16    30    1
    33    17    31    1
    34    18    32    1
    35    20    33    1
    36    22    34    1
@<TRIPOS>MOLECULE
mol47_1_11
 34 36 0 0 0
SMALL
USER_CHARGES
****
VDW energy = -151.62
@<TRIPOS>ATOM
   1 O1        3.4420    -9.1855    -5.2979  O.2     1  <O>11      -0.2451
   2 C1        2.8552    -9.8129    -4.4288  C.2     1  <O>11       0.3369
   3 O2        3.5096   -10.1823    -3.3012  O.3     1  <O>11      -0.4771
   4 C2        1.4620   -10.1610    -4.6040  C.ar    1  <O>11       0.0606
   5 C3        0.8523    -9.9431    -5.8410  C.ar    1  <O>11      -0.0477
   6 C4       -0.4984   -10.2663    -6.0132  C.ar    1  <O>11      -0.0592
   7 C5       -1.2331   -10.8075    -4.9552  C.ar    1  <O>11      -0.0404
   8 C6       -0.6062   -11.0255    -3.7226  C.ar    1  <O>11       0.0344
   9 N1       -1.3684   -11.5850    -2.6356  N.pl3   1  <O>11      -0.2836
  10 C7       -1.8738   -12.9424    -2.7279  C.ar    1  <O>11       0.2200
  11 N2       -0.9941   -13.9697    -2.7619  N.ar    1  <O>11      -0.2226
  12 C8       -1.4866   -15.2209    -2.8465  C.ar    1  <O>11       0.0332
  13 C9       -2.8268   -15.5034    -2.9004  C.ar    1  <O>11      -0.0174
  14 C10      -3.6544   -14.4106    -2.8629  C.ar    1  <O>11       0.0775
  15 C11      -5.0668   -14.5988    -2.9163  C.ar    1  <O>11       0.0186
  16 C12      -5.8263   -14.0448    -3.9434  C.ar    1  <O>11      -0.0497
  17 C13      -7.2114   -14.2411    -3.9326  C.ar    1  <O>11      -0.0430
  18 C14      -7.7927   -14.9987    -2.9175  C.ar    1  <O>11       0.0276
  19 N3       -7.0605   -15.5475    -1.9340  N.ar    1  <O>11      -0.2626
  20 C15      -5.7273   -15.3387    -1.9459  C.ar    1  <O>11       0.0367
  21 N4       -3.2115   -13.1423    -2.7777  N.ar    1  <O>11      -0.2142
  22 C16       0.7400   -10.7089    -3.5415  C.ar    1  <O>11      -0.0265
  23 H1        2.9041   -10.6687    -2.7201  H       1  <O>11       0.2954
  24 H2       -1.5530   -11.0282    -1.8010  H       1  <O>11       0.1550
  25 H3        1.3947    -9.5459    -6.6240  H       1  <O>11       0.0626
  26 H4       -0.9534   -10.1042    -6.9251  H       1  <O>11       0.0618
  27 H5       -2.2296   -11.0446    -5.0813  H       1  <O>11       0.0636
  28 H6       -0.8197   -16.0080    -2.8721  H       1  <O>11       0.0831
  29 H7       -3.1868   -16.4685    -2.9646  H       1  <O>11       0.0654
  30 H8       -5.3770   -13.5010    -4.6967  H       1  <O>11       0.0625
  31 H9       -7.7997   -13.8270    -4.6726  H       1  <O>11       0.0633
  32 H10      -8.8147   -15.1421    -2.9215  H       1  <O>11       0.0829
  33 H11      -5.1649   -15.7545    -1.1871  H       1  <O>11       0.0836
  34 H12       1.1977   -10.8778    -2.6321  H       1  <O>11       0.0644
@<TRIPOS>BOND
     1     1     2    2
     2     2     3    1
     3     2     4    1
     4     4     5   ar
     5     5     6   ar
     6     6     7   ar
     7     7     8   ar
     8     8     9    1
     9     9    10    1
    10    10    11   ar
    11    11    12   ar
    12    12    13   ar
    13    13    14   ar
    14    14    15    1
    15    15    16   ar
    16    16    17   ar
    17    17    18   ar
    18    18    19   ar
    19    19    20   ar
    20    15    20   ar
    21    14    21   ar
    22    10    21   ar
    23     8    22   ar
    24     4    22   ar
    25     3    23    1
    26     9    24    1
    27     5    25    1
    28     6    26    1
    29     7    27    1
    30    12    28    1
    31    13    29    1
    32    16    30    1
    33    17    31    1
    34    18    32    1
    35    20    33    1
    36    22    34    1
@<TRIPOS>MOLECULE
mol47_1_12
 34 36 0 0 0
SMALL
USER_CHARGES
****
VDW energy = -151.43
@<TRIPOS>ATOM
   1 O1        3.4420    -9.1855    -5.2979  O.2     1  <O>11      -0.2451
   2 C1        2.8552    -9.8129    -4.4288  C.2     1  <O>11       0.3369
   3 O2        3.5096   -10.1823    -3.3012  O.3     1  <O>11      -0.4771
   4 C2        1.4620   -10.1610    -4.6040  C.ar    1  <O>11       0.0606
   5 C3        0.8523    -9.9431    -5.8410  C.ar    1  <O>11      -0.0477
   6 C4       -0.4984   -10.2663    -6.0132  C.ar    1  <O>11      -0.0592
   7 C5       -1.2331   -10.8075    -4.9552  C.ar    1  <O>11      -0.0404
   8 C6       -0.6062   -11.0255    -3.7226  C.ar    1  <O>11       0.0344
   9 N1       -1.3684   -11.5850    -2.6356  N.pl3   1  <O>11      -0.2836
  10 C7       -2.0752   -10.7088    -1.7194  C.ar    1  <O>11       0.2200
  11 N2       -1.4383   -10.2666    -0.6107  N.ar    1  <O>11      -0.2226
  12 C8       -2.1141    -9.4533     0.2242  C.ar    1  <O>11       0.0332
  13 C9       -3.4076    -9.0545     0.0083  C.ar    1  <O>11      -0.0174
  14 C10      -3.9853    -9.5452    -1.1346  C.ar    1  <O>11       0.0775
  15 C11      -5.3304    -9.1908    -1.4479  C.ar    1  <O>11       0.0186
  16 C12      -5.6394    -8.5189    -2.6276  C.ar    1  <O>11      -0.0497
  17 C13      -6.9731    -8.1745    -2.8724  C.ar    1  <O>11      -0.0430
  18 C14      -7.9569    -8.5281    -1.9508  C.ar    1  <O>11       0.0276
  19 N3       -7.6637    -9.1901    -0.8193  N.ar    1  <O>11      -0.2626
  20 C15      -6.3721    -9.5036    -0.5862  C.ar    1  <O>11       0.0367
  21 N4       -3.3522   -10.3589    -2.0001  N.ar    1  <O>11      -0.2142
  22 C16       0.7400   -10.7089    -3.5415  C.ar    1  <O>11      -0.0265
  23 H1        2.9041   -10.6687    -2.7201  H       1  <O>11       0.2954
  24 H2       -1.4119   -12.5962    -2.5091  H       1  <O>11       0.1550
  25 H3        1.3947    -9.5459    -6.6240  H       1  <O>11       0.0626
  26 H4       -0.9534   -10.1042    -6.9251  H       1  <O>11       0.0618
  27 H5       -2.2296   -11.0446    -5.0813  H       1  <O>11       0.0636
  28 H6       -1.6324    -9.1127     1.0709  H       1  <O>11       0.0831
  29 H7       -3.9102    -8.4304     0.6585  H       1  <O>11       0.0654
  30 H8       -4.9003    -8.2802    -3.3071  H       1  <O>11       0.0625
  31 H9       -7.2270    -7.6612    -3.7309  H       1  <O>11       0.0633
  32 H10      -8.9385    -8.2741    -2.1431  H       1  <O>11       0.0829
  33 H11      -6.1451   -10.0064     0.2860  H       1  <O>11       0.0836
  34 H12       1.1977   -10.8778    -2.6321  H       1  <O>11       0.0644
@<TRIPOS>BOND
     1     1     2    2
     2     2     3    1
     3     2     4    1
     4     4     5   ar
     5     5     6   ar
     6     6     7   ar
     7     7     8   ar
     8     8     9    1
     9     9    10    1
    10    10    11   ar
    11    11    12   ar
    12    12    13   ar
    13    13    14   ar
    14    14    15    1
    15    15    16   ar
    16    16    17   ar
    17    17    18   ar
    18    18    19   ar
    19    19    20   ar
    20    15    20   ar
    21    14    21   ar
    22    10    21   ar
    23     8    22   ar
    24     4    22   ar
    25     3    23    1
    26     9    24    1
    27     5    25    1
    28     6    26    1
    29     7    27    1
    30    12    28    1
    31    13    29    1
    32    16    30    1
    33    17    31    1
    34    18    32    1
    35    20    33    1
    36    22    34    1
@<TRIPOS>MOLECULE
mol47_1_13
 34 36 0 0 0
SMALL
USER_CHARGES
****
VDW energy = -150.95
@<TRIPOS>ATOM
   1 O1        3.4420    -9.1855    -5.2979  O.2     1  <O>11      -0.2451
   2 C1        2.8552    -9.8129    -4.4288  C.2     1  <O>11       0.3369
   3 O2        3.5096   -10.1823    -3.3012  O.3     1  <O>11      -0.4771
   4 C2        1.4620   -10.1610    -4.6040  C.ar    1  <O>11       0.0606
   5 C3        0.8523    -9.9431    -5.8410  C.ar    1  <O>11      -0.0477
   6 C4       -0.4984   -10.2663    -6.0132  C.ar    1  <O>11      -0.0592
   7 C5       -1.2331   -10.8075    -4.9552  C.ar    1  <O>11      -0.0404
   8 C6       -0.6062   -11.0255    -3.7226  C.ar    1  <O>11       0.0344
   9 N1       -1.3684   -11.5850    -2.6356  N.pl3   1  <O>11      -0.2836
  10 C7       -1.8738   -12.9424    -2.7279  C.ar    1  <O>11       0.2200
  11 N2       -1.1052   -13.9612    -2.2787  N.ar    1  <O>11      -0.2226
  12 C8       -1.5959   -15.2124    -2.3736  C.ar    1  <O>11       0.0332
  13 C9       -2.8274   -15.5032    -2.9004  C.ar    1  <O>11      -0.0174
  14 C10      -3.5457   -14.4190    -3.3353  C.ar    1  <O>11       0.0775
  15 C11      -4.8389   -14.6166    -3.9024  C.ar    1  <O>11       0.0186
  16 C12      -5.1177   -14.2226    -5.2084  C.ar    1  <O>11      -0.0497
  17 C13      -6.4107   -14.4187    -5.7054  C.ar    1  <O>11      -0.0430
  18 C14      -7.3758   -15.0192    -4.8989  C.ar    1  <O>11       0.0276
  19 N3       -7.1052   -15.4146    -3.6439  N.ar    1  <O>11      -0.2626
  20 C15      -5.8591   -15.2064    -3.1697  C.ar    1  <O>11       0.0367
  21 N4       -3.1001   -13.1509    -3.2613  N.ar    1  <O>11      -0.2142
  22 C16       0.7400   -10.7089    -3.5415  C.ar    1  <O>11      -0.0265
  23 H1        2.9041   -10.6687    -2.7201  H       1  <O>11       0.2954
  24 H2       -1.5530   -11.0282    -1.8010  H       1  <O>11       0.1550
  25 H3        1.3947    -9.5459    -6.6240  H       1  <O>11       0.0626
  26 H4       -0.9534   -10.1042    -6.9251  H       1  <O>11       0.0618
  27 H5       -2.2296   -11.0446    -5.0813  H       1  <O>11       0.0636
  28 H6       -1.0137   -15.9929    -2.0317  H       1  <O>11       0.0831
  29 H7       -3.1880   -16.4680    -2.9649  H       1  <O>11       0.0654
  30 H8       -4.3861   -13.7951    -5.7974  H       1  <O>11       0.0625
  31 H9       -6.6487   -14.1202    -6.6641  H       1  <O>11       0.0633
  32 H10      -8.3252   -15.1643    -5.2766  H       1  <O>11       0.0829
  33 H11      -5.6522   -15.5039    -2.2034  H       1  <O>11       0.0836
  34 H12       1.1977   -10.8778    -2.6321  H       1  <O>11       0.0644
@<TRIPOS>BOND
     1     1     2    2
     2     2     3    1
     3     2     4    1
     4     4     5   ar
     5     5     6   ar
     6     6     7   ar
     7     7     8   ar
     8     8     9    1
     9     9    10    1
    10    10    11   ar
    11    11    12   ar
    12    12    13   ar
    13    13    14   ar
    14    14    15    1
    15    15    16   ar
    16    16    17   ar
    17    17    18   ar
    18    18    19   ar
    19    19    20   ar
    20    15    20   ar
    21    14    21   ar
    22    10    21   ar
    23     8    22   ar
    24     4    22   ar
    25     3    23    1
    26     9    24    1
    27     5    25    1
    28     6    26    1
    29     7    27    1
    30    12    28    1
    31    13    29    1
    32    16    30    1
    33    17    31    1
    34    18    32    1
    35    20    33    1
    36    22    34    1
@<TRIPOS>MOLECULE
mol47_1_14
 34 36 0 0 0
SMALL
USER_CHARGES
****
VDW energy = -150.00
@<TRIPOS>ATOM
   1 O1        3.4420    -9.1855    -5.2979  O.2     1  <O>11      -0.2451
   2 C1        2.8552    -9.8129    -4.4288  C.2     1  <O>11       0.3369
   3 O2        3.5096   -10.1823    -3.3012  O.3     1  <O>11      -0.4771
   4 C2        1.4620   -10.1610    -4.6040  C.ar    1  <O>11       0.0606
   5 C3        0.8523    -9.9431    -5.8410  C.ar    1  <O>11      -0.0477
   6 C4       -0.4984   -10.2663    -6.0132  C.ar    1  <O>11      -0.0592
   7 C5       -1.2331   -10.8075    -4.9552  C.ar    1  <O>11      -0.0404
   8 C6       -0.6062   -11.0255    -3.7226  C.ar    1  <O>11       0.0344
   9 N1       -1.3684   -11.5850    -2.6356  N.pl3   1  <O>11      -0.2836
  10 C7       -0.7241   -11.8588    -1.3641  C.ar    1  <O>11       0.2200
  11 N2        0.2339   -12.8124    -1.3054  N.ar    1  <O>11      -0.2226
  12 C8        0.8186   -13.0481    -0.1147  C.ar    1  <O>11       0.0332
  13 C9        0.4926   -12.3747     1.0339  C.ar    1  <O>11      -0.0174
  14 C10      -0.4873   -11.4256     0.8944  C.ar    1  <O>11       0.0775
  15 C11      -0.9001   -10.6718     2.0321  C.ar    1  <O>11       0.0186
  16 C12      -0.2780    -9.4704     2.3612  C.ar    1  <O>11      -0.0497
  17 C13      -0.7076    -8.7847     3.5025  C.ar    1  <O>11      -0.0430
  18 C14      -1.7538    -9.3015     4.2646  C.ar    1  <O>11       0.0276
  19 N3       -2.3662   -10.4523     3.9405  N.ar    1  <O>11      -0.2626
  20 C15      -1.9333   -11.1132     2.8465  C.ar    1  <O>11       0.0367
  21 N4       -1.1003   -11.1526    -0.2726  N.ar    1  <O>11      -0.2142
  22 C16       0.7400   -10.7089    -3.5415  C.ar    1  <O>11      -0.0265
  23 H1        2.9041   -10.6687    -2.7201  H       1  <O>11       0.2954
  24 H2       -2.3603   -11.7887    -2.7584  H       1  <O>11       0.1550
  25 H3        1.3947    -9.5459    -6.6240  H       1  <O>11       0.0626
  26 H4       -0.9534   -10.1042    -6.9251  H       1  <O>11       0.0618
  27 H5       -2.2296   -11.0446    -5.0813  H       1  <O>11       0.0636
  28 H6        1.5505   -13.7740    -0.0648  H       1  <O>11       0.0831
  29 H7        0.9513   -12.5680     1.9379  H       1  <O>11       0.0654
  30 H8        0.4837    -9.0937     1.7757  H       1  <O>11       0.0625
  31 H9       -0.2522    -7.9007     3.7786  H       1  <O>11       0.0633
  32 H10      -2.0669    -8.7854     5.1017  H       1  <O>11       0.0829
  33 H11      -2.3988   -12.0007     2.6005  H       1  <O>11       0.0836
  34 H12       1.1977   -10.8778    -2.6321  H       1  <O>11       0.0644
@<TRIPOS>BOND
     1     1     2    2
     2     2     3    1
     3     2     4    1
     4     4     5   ar
     5     5     6   ar
     6     6     7   ar
     7     7     8   ar
     8     8     9    1
     9     9    10    1
    10    10    11   ar
    11    11    12   ar
    12    12    13   ar
    13    13    14   ar
    14    14    15    1
    15    15    16   ar
    16    16    17   ar
    17    17    18   ar
    18    18    19   ar
    19    19    20   ar
    20    15    20   ar
    21    14    21   ar
    22    10    21   ar
    23     8    22   ar
    24     4    22   ar
    25     3    23    1
    26     9    24    1
    27     5    25    1
    28     6    26    1
    29     7    27    1
    30    12    28    1
    31    13    29    1
    32    16    30    1
    33    17    31    1
    34    18    32    1
    35    20    33    1
    36    22    34    1
@<TRIPOS>MOLECULE
mol47_1_15
 34 36 0 0 0
SMALL
USER_CHARGES
****
VDW energy = -149.27
@<TRIPOS>ATOM
   1 O1        3.4420    -9.1855    -5.2979  O.2     1  <O>11      -0.2451
   2 C1        2.8552    -9.8129    -4.4288  C.2     1  <O>11       0.3369
   3 O2        3.5096   -10.1823    -3.3012  O.3     1  <O>11      -0.4771
   4 C2        1.4620   -10.1610    -4.6040  C.ar    1  <O>11       0.0606
   5 C3        0.8523    -9.9431    -5.8410  C.ar    1  <O>11      -0.0477
   6 C4       -0.4984   -10.2663    -6.0132  C.ar    1  <O>11      -0.0592
   7 C5       -1.2331   -10.8075    -4.9552  C.ar    1  <O>11      -0.0404
   8 C6       -0.6062   -11.0255    -3.7226  C.ar    1  <O>11       0.0344
   9 N1       -1.3684   -11.5850    -2.6356  N.pl3   1  <O>11      -0.2836
  10 C7       -0.7241   -11.8588    -1.3641  C.ar    1  <O>11       0.2200
  11 N2       -0.2588   -10.8239    -0.6274  N.ar    1  <O>11      -0.2226
  12 C8        0.3343   -11.1025     0.5498  C.ar    1  <O>11       0.0332
  13 C9        0.4899   -12.3749     1.0352  C.ar    1  <O>11      -0.0174
  14 C10      -0.0053   -13.3695     0.2314  C.ar    1  <O>11       0.0775
  15 C11       0.1101   -14.7287     0.6464  C.ar    1  <O>11       0.0186
  16 C12      -0.8868   -15.3342     1.4067  C.ar    1  <O>11      -0.0497
  17 C13      -0.7099   -16.6631     1.8067  C.ar    1  <O>11      -0.0430
  18 C14       0.4379   -17.3527     1.4199  C.ar    1  <O>11       0.0276
  19 N3        1.3940   -16.7759     0.6731  N.ar    1  <O>11      -0.2626
  20 C15       1.2200   -15.4890     0.3061  C.ar    1  <O>11       0.0367
  21 N4       -0.6066   -13.1425    -0.9514  N.ar    1  <O>11      -0.2142
  22 C16       0.7400   -10.7089    -3.5415  C.ar    1  <O>11      -0.0265
  23 H1        2.9041   -10.6687    -2.7201  H       1  <O>11       0.2954
  24 H2       -2.3603   -11.7887    -2.7584  H       1  <O>11       0.1550
  25 H3        1.3947    -9.5459    -6.6240  H       1  <O>11       0.0626
  26 H4       -0.9534   -10.1042    -6.9251  H       1  <O>11       0.0618
  27 H5       -2.2296   -11.0446    -5.0813  H       1  <O>11       0.0636
  28 H6        0.6902   -10.3164     1.1159  H       1  <O>11       0.0831
  29 H7        0.9466   -12.5701     1.9398  H       1  <O>11       0.0654
  30 H8       -1.7383   -14.8138     1.6696  H       1  <O>11       0.0625
  31 H9       -1.4255   -17.1303     2.3851  H       1  <O>11       0.0633
  32 H10       0.5565   -18.3343     1.7156  H       1  <O>11       0.0829
  33 H11       1.9571   -15.0431    -0.2620  H       1  <O>11       0.0836
  34 H12       1.1977   -10.8778    -2.6321  H       1  <O>11       0.0644
@<TRIPOS>BOND
     1     1     2    2
     2     2     3    1
     3     2     4    1
     4     4     5   ar
     5     5     6   ar
     6     6     7   ar
     7     7     8   ar
     8     8     9    1
     9     9    10    1
    10    10    11   ar
    11    11    12   ar
    12    12    13   ar
    13    13    14   ar
    14    14    15    1
    15    15    16   ar
    16    16    17   ar
    17    17    18   ar
    18    18    19   ar
    19    19    20   ar
    20    15    20   ar
    21    14    21   ar
    22    10    21   ar
    23     8    22   ar
    24     4    22   ar
    25     3    23    1
    26     9    24    1
    27     5    25    1
    28     6    26    1
    29     7    27    1
    30    12    28    1
    31    13    29    1
    32    16    30    1
    33    17    31    1
    34    18    32    1
    35    20    33    1
    36    22    34    1
@<TRIPOS>MOLECULE
mol47_1_16
 34 36 0 0 0
SMALL
USER_CHARGES
****
VDW energy = -147.46
@<TRIPOS>ATOM
   1 O1        3.4420    -9.1855    -5.2979  O.2     1  <O>11      -0.2451
   2 C1        2.8552    -9.8129    -4.4288  C.2     1  <O>11       0.3369
   3 O2        3.5096   -10.1823    -3.3012  O.3     1  <O>11      -0.4771
   4 C2        1.4620   -10.1610    -4.6040  C.ar    1  <O>11       0.0606
   5 C3        0.8523    -9.9431    -5.8410  C.ar    1  <O>11      -0.0477
   6 C4       -0.4984   -10.2663    -6.0132  C.ar    1  <O>11      -0.0592
   7 C5       -1.2331   -10.8075    -4.9552  C.ar    1  <O>11      -0.0404
   8 C6       -0.6062   -11.0255    -3.7226  C.ar    1  <O>11       0.0344
   9 N1       -1.3684   -11.5850    -2.6356  N.pl3   1  <O>11      -0.2836
  10 C7       -0.7241   -11.8588    -1.3641  C.ar    1  <O>11       0.2200
  11 N2       -0.2588   -10.8239    -0.6274  N.ar    1  <O>11      -0.2226
  12 C8        0.3343   -11.1025     0.5498  C.ar    1  <O>11       0.0332
  13 C9        0.4899   -12.3749     1.0352  C.ar    1  <O>11      -0.0174
  14 C10      -0.0053   -13.3695     0.2314  C.ar    1  <O>11       0.0775
  15 C11       0.1101   -14.7287     0.6464  C.ar    1  <O>11       0.0186
  16 C12       0.8077   -15.6570    -0.1220  C.ar    1  <O>11      -0.0497
  17 C13       0.8683   -16.9826     0.3211  C.ar    1  <O>11      -0.0430
  18 C14       0.2554   -17.3371     1.5216  C.ar    1  <O>11       0.0276
  19 N3       -0.4049   -16.4403     2.2727  N.ar    1  <O>11      -0.2626
  20 C15      -0.4702   -15.1679     1.8278  C.ar    1  <O>11       0.0367
  21 N4       -0.6066   -13.1425    -0.9514  N.ar    1  <O>11      -0.2142
  22 C16       0.7400   -10.7089    -3.5415  C.ar    1  <O>11      -0.0265
  23 H1        2.9041   -10.6687    -2.7201  H       1  <O>11       0.2954
  24 H2       -2.3603   -11.7887    -2.7584  H       1  <O>11       0.1550
  25 H3        1.3947    -9.5459    -6.6240  H       1  <O>11       0.0626
  26 H4       -0.9534   -10.1042    -6.9251  H       1  <O>11       0.0618
  27 H5       -2.2296   -11.0446    -5.0813  H       1  <O>11       0.0636
  28 H6        0.6902   -10.3164     1.1159  H       1  <O>11       0.0831
  29 H7        0.9466   -12.5701     1.9398  H       1  <O>11       0.0654
  30 H8        1.2702   -15.3732    -0.9998  H       1  <O>11       0.0625
  31 H9        1.3643   -17.6942    -0.2380  H       1  <O>11       0.0633
  32 H10       0.3103   -18.3164     1.8424  H       1  <O>11       0.0829
  33 H11      -0.9828   -14.4798     2.4011  H       1  <O>11       0.0836
  34 H12       1.1977   -10.8778    -2.6321  H       1  <O>11       0.0644
@<TRIPOS>BOND
     1     1     2    2
     2     2     3    1
     3     2     4    1
     4     4     5   ar
     5     5     6   ar
     6     6     7   ar
     7     7     8   ar
     8     8     9    1
     9     9    10    1
    10    10    11   ar
    11    11    12   ar
    12    12    13   ar
    13    13    14   ar
    14    14    15    1
    15    15    16   ar
    16    16    17   ar
    17    17    18   ar
    18    18    19   ar
    19    19    20   ar
    20    15    20   ar
    21    14    21   ar
    22    10    21   ar
    23     8    22   ar
    24     4    22   ar
    25     3    23    1
    26     9    24    1
    27     5    25    1
    28     6    26    1
    29     7    27    1
    30    12    28    1
    31    13    29    1
    32    16    30    1
    33    17    31    1
    34    18    32    1
    35    20    33    1
    36    22    34    1
@<TRIPOS>MOLECULE
mol47_1_17
 34 36 0 0 0
SMALL
USER_CHARGES
****
VDW energy = -146.01
@<TRIPOS>ATOM
   1 O1        3.4420    -9.1855    -5.2979  O.2     1  <O>11      -0.2451
   2 C1        2.8552    -9.8129    -4.4288  C.2     1  <O>11       0.3369
   3 O2        3.5096   -10.1823    -3.3012  O.3     1  <O>11      -0.4771
   4 C2        1.4620   -10.1610    -4.6040  C.ar    1  <O>11       0.0606
   5 C3        1.0134   -11.4175    -4.1926  C.ar    1  <O>11      -0.0477
   6 C4       -0.3305   -11.7649    -4.3706  C.ar    1  <O>11      -0.0592
   7 C5       -1.2205   -10.8590    -4.9532  C.ar    1  <O>11      -0.0404
   8 C6       -0.7568    -9.6008    -5.3553  C.ar    1  <O>11       0.0344
   9 N1       -1.6793    -8.6703    -5.9544  N.pl3   1  <O>11      -0.2836
  10 C7       -2.7707    -8.1241    -5.1688  C.ar    1  <O>11       0.2200
  11 N2       -2.4861    -7.3124    -4.1246  N.ar    1  <O>11      -0.2226
  12 C8       -3.5155    -6.8165    -3.4108  C.ar    1  <O>11       0.0332
  13 C9       -4.8294    -7.0924    -3.6876  C.ar    1  <O>11      -0.0174
  14 C10      -5.0370    -7.9231    -4.7588  C.ar    1  <O>11       0.0775
  15 C11      -6.3693    -8.2731    -5.1264  C.ar    1  <O>11       0.0186
  16 C12      -7.4620    -7.7854    -4.4145  C.ar    1  <O>11      -0.0497
  17 C13      -8.7460    -8.1811    -4.8045  C.ar    1  <O>11      -0.0430
  18 C14      -8.9036    -9.0276    -5.9004  C.ar    1  <O>11       0.0276
  19 N3       -7.8521    -9.4871    -6.5987  N.ar    1  <O>11      -0.2626
  20 C15      -6.6175    -9.1113    -6.2041  C.ar    1  <O>11       0.0367
  21 N4       -4.0429    -8.4428    -5.5030  N.ar    1  <O>11      -0.2142
  22 C16       0.5801    -9.2441    -5.1802  C.ar    1  <O>11      -0.0265
  23 H1        2.9041   -10.6687    -2.7201  H       1  <O>11       0.2954
  24 H2       -1.5661    -8.3947    -6.9300  H       1  <O>11       0.1550
  25 H3        1.6693   -12.0865    -3.7596  H       1  <O>11       0.0626
  26 H4       -0.6655   -12.6936    -4.0704  H       1  <O>11       0.0618
  27 H5       -2.2113   -11.1153    -5.0861  H       1  <O>11       0.0636
  28 H6       -3.3037    -6.1962    -2.6137  H       1  <O>11       0.0831
  29 H7       -5.6059    -6.7032    -3.1303  H       1  <O>11       0.0654
  30 H8       -7.3276    -7.1455    -3.6161  H       1  <O>11       0.0625
  31 H9       -9.5721    -7.8479    -4.2835  H       1  <O>11       0.0633
  32 H10      -9.8552    -9.3094    -6.1834  H       1  <O>11       0.0829
  33 H11      -5.8088    -9.4691    -6.7360  H       1  <O>11       0.0836
  34 H12       0.9141    -8.3127    -5.4733  H       1  <O>11       0.0644
@<TRIPOS>BOND
     1     1     2    2
     2     2     3    1
     3     2     4    1
     4     4     5   ar
     5     5     6   ar
     6     6     7   ar
     7     7     8   ar
     8     8     9    1
     9     9    10    1
    10    10    11   ar
    11    11    12   ar
    12    12    13   ar
    13    13    14   ar
    14    14    15    1
    15    15    16   ar
    16    16    17   ar
    17    17    18   ar
    18    18    19   ar
    19    19    20   ar
    20    15    20   ar
    21    14    21   ar
    22    10    21   ar
    23     8    22   ar
    24     4    22   ar
    25     3    23    1
    26     9    24    1
    27     5    25    1
    28     6    26    1
    29     7    27    1
    30    12    28    1
    31    13    29    1
    32    16    30    1
    33    17    31    1
    34    18    32    1
    35    20    33    1
    36    22    34    1
@<TRIPOS>MOLECULE
mol47_1_18
 34 36 0 0 0
SMALL
USER_CHARGES
****
VDW energy = -142.54
@<TRIPOS>ATOM
   1 O1        3.4420    -9.1855    -5.2979  O.2     1  <O>11      -0.2451
   2 C1        2.8552    -9.8129    -4.4288  C.2     1  <O>11       0.3369
   3 O2        3.5096   -10.1823    -3.3012  O.3     1  <O>11      -0.4771
   4 C2        1.4620   -10.1610    -4.6040  C.ar    1  <O>11       0.0606
   5 C3        0.8523    -9.9431    -5.8410  C.ar    1  <O>11      -0.0477
   6 C4       -0.4984   -10.2663    -6.0132  C.ar    1  <O>11      -0.0592
   7 C5       -1.2331   -10.8075    -4.9552  C.ar    1  <O>11      -0.0404
   8 C6       -0.6062   -11.0255    -3.7226  C.ar    1  <O>11       0.0344
   9 N1       -1.3684   -11.5850    -2.6356  N.pl3   1  <O>11      -0.2836
  10 C7       -1.8738   -12.9424    -2.7279  C.ar    1  <O>11       0.2200
  11 N2       -0.9941   -13.9697    -2.7619  N.ar    1  <O>11      -0.2226
  12 C8       -1.4866   -15.2209    -2.8465  C.ar    1  <O>11       0.0332
  13 C9       -2.8268   -15.5034    -2.9004  C.ar    1  <O>11      -0.0174
  14 C10      -3.6544   -14.4106    -2.8629  C.ar    1  <O>11       0.0775
  15 C11      -5.0668   -14.5988    -2.9163  C.ar    1  <O>11       0.0186
  16 C12      -5.6180   -15.8742    -3.0069  C.ar    1  <O>11      -0.0497
  17 C13      -7.0095   -15.9985    -3.0808  C.ar    1  <O>11      -0.0430
  18 C14      -7.8071   -14.8563    -3.0391  C.ar    1  <O>11       0.0276
  19 N3       -7.2786   -13.6256    -2.9359  N.ar    1  <O>11      -0.2626
  20 C15      -5.9347   -13.5167    -2.8810  C.ar    1  <O>11       0.0367
  21 N4       -3.2115   -13.1423    -2.7777  N.ar    1  <O>11      -0.2142
  22 C16       0.7400   -10.7089    -3.5415  C.ar    1  <O>11      -0.0265
  23 H1        2.9041   -10.6687    -2.7201  H       1  <O>11       0.2954
  24 H2       -1.5530   -11.0282    -1.8010  H       1  <O>11       0.1550
  25 H3        1.3947    -9.5459    -6.6240  H       1  <O>11       0.0626
  26 H4       -0.9534   -10.1042    -6.9251  H       1  <O>11       0.0618
  27 H5       -2.2296   -11.0446    -5.0813  H       1  <O>11       0.0636
  28 H6       -0.8197   -16.0080    -2.8721  H       1  <O>11       0.0831
  29 H7       -3.1868   -16.4685    -2.9646  H       1  <O>11       0.0654
  30 H8       -5.0129   -16.7101    -3.0192  H       1  <O>11       0.0625
  31 H9       -7.4431   -16.9311    -3.1657  H       1  <O>11       0.0633
  32 H10      -8.8328   -14.9590    -3.0888  H       1  <O>11       0.0829
  33 H11      -5.5277   -12.5712    -2.8083  H       1  <O>11       0.0836
  34 H12       1.1977   -10.8778    -2.6321  H       1  <O>11       0.0644
@<TRIPOS>BOND
     1     1     2    2
     2     2     3    1
     3     2     4    1
     4     4     5   ar
     5     5     6   ar
     6     6     7   ar
     7     7     8   ar
     8     8     9    1
     9     9    10    1
    10    10    11   ar
    11    11    12   ar
    12    12    13   ar
    13    13    14   ar
    14    14    15    1
    15    15    16   ar
    16    16    17   ar
    17    17    18   ar
    18    18    19   ar
    19    19    20   ar
    20    15    20   ar
    21    14    21   ar
    22    10    21   ar
    23     8    22   ar
    24     4    22   ar
    25     3    23    1
    26     9    24    1
    27     5    25    1
    28     6    26    1
    29     7    27    1
    30    12    28    1
    31    13    29    1
    32    16    30    1
    33    17    31    1
    34    18    32    1
    35    20    33    1
    36    22    34    1
@<TRIPOS>MOLECULE
mol47_1_19
 34 36 0 0 0
SMALL
USER_CHARGES
****
VDW energy = -142.07
@<TRIPOS>ATOM
   1 O1        3.4420    -9.1855    -5.2979  O.2     1  <O>11      -0.2451
   2 C1        2.8552    -9.8129    -4.4288  C.2     1  <O>11       0.3369
   3 O2        3.5096   -10.1823    -3.3012  O.3     1  <O>11      -0.4771
   4 C2        1.4620   -10.1610    -4.6040  C.ar    1  <O>11       0.0606
   5 C3        0.8523    -9.9431    -5.8410  C.ar    1  <O>11      -0.0477
   6 C4       -0.4984   -10.2663    -6.0132  C.ar    1  <O>11      -0.0592
   7 C5       -1.2331   -10.8075    -4.9552  C.ar    1  <O>11      -0.0404
   8 C6       -0.6062   -11.0255    -3.7226  C.ar    1  <O>11       0.0344
   9 N1       -1.3684   -11.5850    -2.6356  N.pl3   1  <O>11      -0.2836
  10 C7       -2.4636   -10.8305    -2.0544  C.ar    1  <O>11       0.2200
  11 N2       -3.0477   -11.2869    -0.9226  N.ar    1  <O>11      -0.2226
  12 C8       -4.0615   -10.5691    -0.4010  C.ar    1  <O>11       0.0332
  13 C9       -4.5288    -9.4066    -0.9569  C.ar    1  <O>11      -0.0174
  14 C10      -3.8877    -9.0100    -2.1025  C.ar    1  <O>11       0.0775
  15 C11      -4.3017    -7.8140    -2.7592  C.ar    1  <O>11       0.0186
  16 C12      -5.3467    -7.0437    -2.2559  C.ar    1  <O>11      -0.0497
  17 C13      -5.7270    -5.8929    -2.9546  C.ar    1  <O>11      -0.0430
  18 C14      -5.0435    -5.5329    -4.1146  C.ar    1  <O>11       0.0276
  19 N3       -4.0247    -6.2657    -4.5938  N.ar    1  <O>11      -0.2626
  20 C15      -3.6766    -7.3821    -3.9203  C.ar    1  <O>11       0.0367
  21 N4       -2.8702    -9.6912    -2.6616  N.ar    1  <O>11      -0.2142
  22 C16       0.7400   -10.7089    -3.5415  C.ar    1  <O>11      -0.0265
  23 H1        2.9041   -10.6687    -2.7201  H       1  <O>11       0.2954
  24 H2       -1.1392   -12.5108    -2.2740  H       1  <O>11       0.1550
  25 H3        1.3947    -9.5459    -6.6240  H       1  <O>11       0.0626
  26 H4       -0.9534   -10.1042    -6.9251  H       1  <O>11       0.0618
  27 H5       -2.2296   -11.0446    -5.0813  H       1  <O>11       0.0636
  28 H6       -4.5098   -10.9126     0.4627  H       1  <O>11       0.0831
  29 H7       -5.3065    -8.8689    -0.5434  H       1  <O>11       0.0654
  30 H8       -5.8305    -7.3160    -1.3860  H       1  <O>11       0.0625
  31 H9       -6.5095    -5.3134    -2.6127  H       1  <O>11       0.0633
  32 H10      -5.3282    -4.6792    -4.6198  H       1  <O>11       0.0829
  33 H11      -2.8983    -7.9491    -4.2914  H       1  <O>11       0.0836
  34 H12       1.1977   -10.8778    -2.6321  H       1  <O>11       0.0644
@<TRIPOS>BOND
     1     1     2    2
     2     2     3    1
     3     2     4    1
     4     4     5   ar
     5     5     6   ar
     6     6     7   ar
     7     7     8   ar
     8     8     9    1
     9     9    10    1
    10    10    11   ar
    11    11    12   ar
    12    12    13   ar
    13    13    14   ar
    14    14    15    1
    15    15    16   ar
    16    16    17   ar
    17    17    18   ar
    18    18    19   ar
    19    19    20   ar
    20    15    20   ar
    21    14    21   ar
    22    10    21   ar
    23     8    22   ar
    24     4    22   ar
    25     3    23    1
    26     9    24    1
    27     5    25    1
    28     6    26    1
    29     7    27    1
    30    12    28    1
    31    13    29    1
    32    16    30    1
    33    17    31    1
    34    18    32    1
    35    20    33    1
    36    22    34    1
@<TRIPOS>MOLECULE
mol47_1_20
 34 36 0 0 0
SMALL
USER_CHARGES
****
VDW energy = -140.89
@<TRIPOS>ATOM
   1 O1        3.4420    -9.1855    -5.2979  O.2     1  <O>11      -0.2451
   2 C1        2.8552    -9.8129    -4.4288  C.2     1  <O>11       0.3369
   3 O2        3.5096   -10.1823    -3.3012  O.3     1  <O>11      -0.4771
   4 C2        1.4620   -10.1610    -4.6040  C.ar    1  <O>11       0.0606
   5 C3        0.8523    -9.9431    -5.8410  C.ar    1  <O>11      -0.0477
   6 C4       -0.4984   -10.2663    -6.0132  C.ar    1  <O>11      -0.0592
   7 C5       -1.2331   -10.8075    -4.9552  C.ar    1  <O>11      -0.0404
   8 C6       -0.6062   -11.0255    -3.7226  C.ar    1  <O>11       0.0344
   9 N1       -1.3684   -11.5850    -2.6356  N.pl3   1  <O>11      -0.2836
  10 C7       -2.4636   -10.8305    -2.0544  C.ar    1  <O>11       0.2200
  11 N2       -3.5561   -10.5717    -2.8094  N.ar    1  <O>11      -0.2226
  12 C8       -4.5605    -9.8708    -2.2481  C.ar    1  <O>11       0.0332
  13 C9       -4.5307    -9.4084    -0.9580  C.ar    1  <O>11      -0.0174
  14 C10      -3.3904    -9.7089    -0.2579  C.ar    1  <O>11       0.0775
  15 C11      -3.2609    -9.2698     1.0925  C.ar    1  <O>11       0.0186
  16 C12      -4.2734    -8.5405     1.7103  C.ar    1  <O>11      -0.0497
  17 C13      -4.0825    -8.1144     3.0291  C.ar    1  <O>11      -0.0430
  18 C14      -2.9051    -8.4456     3.6972  C.ar    1  <O>11       0.0276
  19 N3       -1.9333    -9.1625     3.1088  N.ar    1  <O>11      -0.2626
  20 C15      -2.1216    -9.5549     1.8315  C.ar    1  <O>11       0.0367
  21 N4       -2.3609   -10.4064    -0.7732  N.ar    1  <O>11      -0.2142
  22 C16       0.7400   -10.7089    -3.5415  C.ar    1  <O>11      -0.0265
  23 H1        2.9041   -10.6687    -2.7201  H       1  <O>11       0.2954
  24 H2       -1.1392   -12.5108    -2.2740  H       1  <O>11       0.1550
  25 H3        1.3947    -9.5459    -6.6240  H       1  <O>11       0.0626
  26 H4       -0.9534   -10.1042    -6.9251  H       1  <O>11       0.0618
  27 H5       -2.2296   -11.0446    -5.0813  H       1  <O>11       0.0636
  28 H6       -5.3964    -9.6715    -2.8196  H       1  <O>11       0.0831
  29 H7       -5.3097    -8.8731    -0.5438  H       1  <O>11       0.0654
  30 H8       -5.1461    -8.3190     1.2061  H       1  <O>11       0.0625
  31 H9       -4.8098    -7.5578     3.5047  H       1  <O>11       0.0633
  32 H10      -2.7761    -8.1311     4.6717  H       1  <O>11       0.0829
  33 H11      -1.3727   -10.1001     1.3766  H       1  <O>11       0.0836
  34 H12       1.1977   -10.8778    -2.6321  H       1  <O>11       0.0644
@<TRIPOS>BOND
     1     1     2    2
     2     2     3    1
     3     2     4    1
     4     4     5   ar
     5     5     6   ar
     6     6     7   ar
     7     7     8   ar
     8     8     9    1
     9     9    10    1
    10    10    11   ar
    11    11    12   ar
    12    12    13   ar
    13    13    14   ar
    14    14    15    1
    15    15    16   ar
    16    16    17   ar
    17    17    18   ar
    18    18    19   ar
    19    19    20   ar
    20    15    20   ar
    21    14    21   ar
    22    10    21   ar
    23     8    22   ar
    24     4    22   ar
    25     3    23    1
    26     9    24    1
    27     5    25    1
    28     6    26    1
    29     7    27    1
    30    12    28    1
    31    13    29    1
    32    16    30    1
    33    17    31    1
    34    18    32    1
    35    20    33    1
    36    22    34    1
@<TRIPOS>MOLECULE
mol47_1_21
 34 36 0 0 0
SMALL
USER_CHARGES
****
VDW energy = -138.38
@<TRIPOS>ATOM
   1 O1        3.4420    -9.1855    -5.2979  O.2     1  <O>11      -0.2451
   2 C1        2.8552    -9.8129    -4.4288  C.2     1  <O>11       0.3369
   3 O2        3.5096   -10.1823    -3.3012  O.3     1  <O>11      -0.4771
   4 C2        1.4620   -10.1610    -4.6040  C.ar    1  <O>11       0.0606
   5 C3        0.8523    -9.9431    -5.8410  C.ar    1  <O>11      -0.0477
   6 C4       -0.4984   -10.2663    -6.0132  C.ar    1  <O>11      -0.0592
   7 C5       -1.2331   -10.8075    -4.9552  C.ar    1  <O>11      -0.0404
   8 C6       -0.6062   -11.0255    -3.7226  C.ar    1  <O>11       0.0344
   9 N1       -1.3684   -11.5850    -2.6356  N.pl3   1  <O>11      -0.2836
  10 C7       -0.7241   -11.8588    -1.3641  C.ar    1  <O>11       0.2200
  11 N2       -0.2588   -10.8239    -0.6274  N.ar    1  <O>11      -0.2226
  12 C8        0.3343   -11.1025     0.5498  C.ar    1  <O>11       0.0332
  13 C9        0.4899   -12.3749     1.0352  C.ar    1  <O>11      -0.0174
  14 C10      -0.0053   -13.3695     0.2314  C.ar    1  <O>11       0.0775
  15 C11       0.1101   -14.7287     0.6464  C.ar    1  <O>11       0.0186
  16 C12       0.7183   -15.0613     1.8539  C.ar    1  <O>11      -0.0497
  17 C13       0.8259   -16.4127     2.1995  C.ar    1  <O>11      -0.0430
  18 C14       0.3066   -17.3859     1.3476  C.ar    1  <O>11       0.0276
  19 N3       -0.2946   -17.0669     0.1895  N.ar    1  <O>11      -0.2626
  20 C15      -0.3790   -15.7613    -0.1411  C.ar    1  <O>11       0.0367
  21 N4       -0.6066   -13.1425    -0.9514  N.ar    1  <O>11      -0.2142
  22 C16       0.7400   -10.7089    -3.5415  C.ar    1  <O>11      -0.0265
  23 H1        2.9041   -10.6687    -2.7201  H       1  <O>11       0.2954
  24 H2       -2.3603   -11.7887    -2.7584  H       1  <O>11       0.1550
  25 H3        1.3947    -9.5459    -6.6240  H       1  <O>11       0.0626
  26 H4       -0.9534   -10.1042    -6.9251  H       1  <O>11       0.0618
  27 H5       -2.2296   -11.0446    -5.0813  H       1  <O>11       0.0636
  28 H6        0.6902   -10.3164     1.1159  H       1  <O>11       0.0831
  29 H7        0.9466   -12.5701     1.9398  H       1  <O>11       0.0654
  30 H8        1.0820   -14.3266     2.4807  H       1  <O>11       0.0625
  31 H9        1.2874   -16.6875     3.0807  H       1  <O>11       0.0633
  32 H10       0.3863   -18.3797     1.6142  H       1  <O>11       0.0829
  33 H11      -0.8349   -15.5158    -1.0337  H       1  <O>11       0.0836
  34 H12       1.1977   -10.8778    -2.6321  H       1  <O>11       0.0644
@<TRIPOS>BOND
     1     1     2    2
     2     2     3    1
     3     2     4    1
     4     4     5   ar
     5     5     6   ar
     6     6     7   ar
     7     7     8   ar
     8     8     9    1
     9     9    10    1
    10    10    11   ar
    11    11    12   ar
    12    12    13   ar
    13    13    14   ar
    14    14    15    1
    15    15    16   ar
    16    16    17   ar
    17    17    18   ar
    18    18    19   ar
    19    19    20   ar
    20    15    20   ar
    21    14    21   ar
    22    10    21   ar
    23     8    22   ar
    24     4    22   ar
    25     3    23    1
    26     9    24    1
    27     5    25    1
    28     6    26    1
    29     7    27    1
    30    12    28    1
    31    13    29    1
    32    16    30    1
    33    17    31    1
    34    18    32    1
    35    20    33    1
    36    22    34    1
@<TRIPOS>MOLECULE
mol47_1_22
 34 36 0 0 0
SMALL
USER_CHARGES
****
VDW energy = -131.04
@<TRIPOS>ATOM
   1 O1        3.4420    -9.1855    -5.2979  O.2     1  <O>11      -0.2451
   2 C1        2.8552    -9.8129    -4.4288  C.2     1  <O>11       0.3369
   3 O2        3.5096   -10.1823    -3.3012  O.3     1  <O>11      -0.4771
   4 C2        1.4620   -10.1610    -4.6040  C.ar    1  <O>11       0.0606
   5 C3        0.4750    -9.2817    -4.1546  C.ar    1  <O>11      -0.0477
   6 C4       -0.8745    -9.6183    -4.3101  C.ar    1  <O>11      -0.0592
   7 C5       -1.2337   -10.8255    -4.9148  C.ar    1  <O>11      -0.0404
   8 C6       -0.2326   -11.6941    -5.3653  C.ar    1  <O>11       0.0344
   9 N1       -0.6088   -12.9371    -5.9892  N.pl3   1  <O>11      -0.2836
  10 C7        0.4144   -13.8296    -6.5020  C.ar    1  <O>11       0.2200
  11 N2        0.0420   -14.8981    -7.2437  N.ar    1  <O>11      -0.2226
  12 C8        1.0094   -15.7117    -7.7099  C.ar    1  <O>11       0.0332
  13 C9        2.3444   -15.5128    -7.4709  C.ar    1  <O>11      -0.0174
  14 C10       2.6422   -14.4109    -6.7108  C.ar    1  <O>11       0.0775
  15 C11       4.0035   -14.1183    -6.4037  C.ar    1  <O>11       0.0186
  16 C12       4.6077   -14.6326    -5.2596  C.ar    1  <O>11      -0.0497
  17 C13       5.9389   -14.2929    -4.9951  C.ar    1  <O>11      -0.0430
  18 C14       6.6317   -13.4745    -5.8854  C.ar    1  <O>11       0.0276
  19 N3        6.0560   -12.9897    -6.9980  N.ar    1  <O>11      -0.2626
  20 C15       4.7670   -13.3111    -7.2351  C.ar    1  <O>11       0.0367
  21 N4        1.7127   -13.5680    -6.2233  N.ar    1  <O>11      -0.2142
  22 C16       1.1151   -11.3668    -5.2172  C.ar    1  <O>11      -0.0265
  23 H1        2.9041   -10.6687    -2.7201  H       1  <O>11       0.2954
  24 H2       -1.5935   -13.1906    -6.0707  H       1  <O>11       0.1550
  25 H3        0.7391    -8.3884    -3.7103  H       1  <O>11       0.0626
  26 H4       -1.6070    -8.9723    -3.9769  H       1  <O>11       0.0618
  27 H5       -2.2287   -11.0748    -5.0282  H       1  <O>11       0.0636
  28 H6        0.7306   -16.5277    -8.2768  H       1  <O>11       0.0831
  29 H7        3.0725   -16.1463    -7.8364  H       1  <O>11       0.0654
  30 H8        4.0848   -15.2512    -4.6203  H       1  <O>11       0.0625
  31 H9        6.4053   -14.6466    -4.1452  H       1  <O>11       0.0633
  32 H10       7.6149   -13.2341    -5.6840  H       1  <O>11       0.0829
  33 H11       4.3220   -12.9338    -8.0863  H       1  <O>11       0.0836
  34 H12       1.8481   -12.0089    -5.5570  H       1  <O>11       0.0644
@<TRIPOS>BOND
     1     1     2    2
     2     2     3    1
     3     2     4    1
     4     4     5   ar
     5     5     6   ar
     6     6     7   ar
     7     7     8   ar
     8     8     9    1
     9     9    10    1
    10    10    11   ar
    11    11    12   ar
    12    12    13   ar
    13    13    14   ar
    14    14    15    1
    15    15    16   ar
    16    16    17   ar
    17    17    18   ar
    18    18    19   ar
    19    19    20   ar
    20    15    20   ar
    21    14    21   ar
    22    10    21   ar
    23     8    22   ar
    24     4    22   ar
    25     3    23    1
    26     9    24    1
    27     5    25    1
    28     6    26    1
    29     7    27    1
    30    12    28    1
    31    13    29    1
    32    16    30    1
    33    17    31    1
    34    18    32    1
    35    20    33    1
    36    22    34    1
@<TRIPOS>MOLECULE
mol47_1_23
 34 36 0 0 0
SMALL
USER_CHARGES
****
VDW energy = -130.03
@<TRIPOS>ATOM
   1 O1        3.4420    -9.1855    -5.2979  O.2     1  <O>11      -0.2451
   2 C1        2.8552    -9.8129    -4.4288  C.2     1  <O>11       0.3369
   3 O2        3.5096   -10.1823    -3.3012  O.3     1  <O>11      -0.4771
   4 C2        1.4620   -10.1610    -4.6040  C.ar    1  <O>11       0.0606
   5 C3        1.1306   -11.3698    -5.2192  C.ar    1  <O>11      -0.0477
   6 C4       -0.2153   -11.7066    -5.4026  C.ar    1  <O>11      -0.0592
   7 C5       -1.2229   -10.8409    -4.9699  C.ar    1  <O>11      -0.0404
   8 C6       -0.8747    -9.6351    -4.3496  C.ar    1  <O>11       0.0344
   9 N1       -1.9179    -8.7469    -3.9043  N.pl3   1  <O>11      -0.2836
  10 C7       -1.5765    -7.5133    -3.2199  C.ar    1  <O>11       0.2200
  11 N2       -2.5630    -6.7844    -2.6491  N.ar    1  <O>11      -0.2226
  12 C8       -2.2218    -5.6438    -2.0183  C.ar    1  <O>11       0.0332
  13 C9       -0.9327    -5.1870    -1.9273  C.ar    1  <O>11      -0.0174
  14 C10       0.0099    -5.9791    -2.5314  C.ar    1  <O>11       0.0775
  15 C11       1.3808    -5.5890    -2.4949  C.ar    1  <O>11       0.0186
  16 C12       2.0923    -5.3562    -3.6688  C.ar    1  <O>11      -0.0497
  17 C13       3.4418    -4.9994    -3.5743  C.ar    1  <O>11      -0.0430
  18 C14       4.0329    -4.8633    -2.3196  C.ar    1  <O>11       0.0276
  19 N3        3.3447    -5.0721    -1.1850  N.ar    1  <O>11      -0.2626
  20 C15       2.0479    -5.4309    -1.2884  C.ar    1  <O>11       0.0367
  21 N4       -0.2803    -7.1267    -3.1723  N.ar    1  <O>11      -0.2142
  22 C16       0.4636    -9.2913    -4.1600  C.ar    1  <O>11      -0.0265
  23 H1        2.9041   -10.6687    -2.7201  H       1  <O>11       0.2954
  24 H2       -2.8962    -8.9838    -4.0696  H       1  <O>11       0.1550
  25 H3        1.8739   -12.0113    -5.5368  H       1  <O>11       0.0626
  26 H4       -0.4644   -12.5978    -5.8593  H       1  <O>11       0.0618
  27 H5       -2.2155   -11.0882    -5.1063  H       1  <O>11       0.0636
  28 H6       -2.9706    -5.0845    -1.5806  H       1  <O>11       0.0831
  29 H7       -0.6891    -4.3108    -1.4395  H       1  <O>11       0.0654
  30 H8        1.6340    -5.4448    -4.5892  H       1  <O>11       0.0625
  31 H9        3.9966    -4.8379    -4.4293  H       1  <O>11       0.0633
  32 H10       5.0275    -4.5946    -2.2604  H       1  <O>11       0.0829
  33 H11       1.5202    -5.5977    -0.4174  H       1  <O>11       0.0836
  34 H12       0.7134    -8.4037    -3.6966  H       1  <O>11       0.0644
@<TRIPOS>BOND
     1     1     2    2
     2     2     3    1
     3     2     4    1
     4     4     5   ar
     5     5     6   ar
     6     6     7   ar
     7     7     8   ar
     8     8     9    1
     9     9    10    1
    10    10    11   ar
    11    11    12   ar
    12    12    13   ar
    13    13    14   ar
    14    14    15    1
    15    15    16   ar
    16    16    17   ar
    17    17    18   ar
    18    18    19   ar
    19    19    20   ar
    20    15    20   ar
    21    14    21   ar
    22    10    21   ar
    23     8    22   ar
    24     4    22   ar
    25     3    23    1
    26     9    24    1
    27     5    25    1
    28     6    26    1
    29     7    27    1
    30    12    28    1
    31    13    29    1
    32    16    30    1
    33    17    31    1
    34    18    32    1
    35    20    33    1
    36    22    34    1
@<TRIPOS>MOLECULE
mol47_1_24
 34 36 0 0 0
SMALL
USER_CHARGES
****
VDW energy = -129.97
@<TRIPOS>ATOM
   1 O1        3.4420    -9.1855    -5.2979  O.2     1  <O>11      -0.2451
   2 C1        2.8552    -9.8129    -4.4288  C.2     1  <O>11       0.3369
   3 O2        3.5096   -10.1823    -3.3012  O.3     1  <O>11      -0.4771
   4 C2        1.4620   -10.1610    -4.6040  C.ar    1  <O>11       0.0606
   5 C3        0.4750    -9.2817    -4.1546  C.ar    1  <O>11      -0.0477
   6 C4       -0.8745    -9.6183    -4.3101  C.ar    1  <O>11      -0.0592
   7 C5       -1.2337   -10.8255    -4.9148  C.ar    1  <O>11      -0.0404
   8 C6       -0.2326   -11.6941    -5.3653  C.ar    1  <O>11       0.0344
   9 N1       -0.6088   -12.9371    -5.9892  N.pl3   1  <O>11      -0.2836
  10 C7        0.4144   -13.8296    -6.5020  C.ar    1  <O>11       0.2200
  11 N2        0.0420   -14.8981    -7.2437  N.ar    1  <O>11      -0.2226
  12 C8        1.0094   -15.7117    -7.7099  C.ar    1  <O>11       0.0332
  13 C9        2.3444   -15.5128    -7.4709  C.ar    1  <O>11      -0.0174
  14 C10       2.6422   -14.4109    -6.7108  C.ar    1  <O>11       0.0775
  15 C11       4.0035   -14.1183    -6.4037  C.ar    1  <O>11       0.0186
  16 C12       4.4458   -14.0628    -5.0847  C.ar    1  <O>11      -0.0497
  17 C13       5.7868   -13.7473    -4.8408  C.ar    1  <O>11      -0.0430
  18 C14       6.6478   -13.5206    -5.9130  C.ar    1  <O>11       0.0276
  19 N3        6.2274   -13.5889    -7.1870  N.ar    1  <O>11      -0.2626
  20 C15       4.9284   -13.8786    -7.4100  C.ar    1  <O>11       0.0367
  21 N4        1.7127   -13.5680    -6.2233  N.ar    1  <O>11      -0.2142
  22 C16       1.1151   -11.3668    -5.2172  C.ar    1  <O>11      -0.0265
  23 H1        2.9041   -10.6687    -2.7201  H       1  <O>11       0.2954
  24 H2       -1.5935   -13.1906    -6.0707  H       1  <O>11       0.1550
  25 H3        0.7391    -8.3884    -3.7103  H       1  <O>11       0.0626
  26 H4       -1.6070    -8.9723    -3.9769  H       1  <O>11       0.0618
  27 H5       -2.2287   -11.0748    -5.0282  H       1  <O>11       0.0636
  28 H6        0.7306   -16.5277    -8.2768  H       1  <O>11       0.0831
  29 H7        3.0725   -16.1463    -7.8364  H       1  <O>11       0.0654
  30 H8        3.7982   -14.2505    -4.3034  H       1  <O>11       0.0625
  31 H9        6.1365   -13.6829    -3.8721  H       1  <O>11       0.0633
  32 H10       7.6365   -13.2938    -5.7227  H       1  <O>11       0.0829
  33 H11       4.6032   -13.9249    -8.3883  H       1  <O>11       0.0836
  34 H12       1.8481   -12.0089    -5.5570  H       1  <O>11       0.0644
@<TRIPOS>BOND
     1     1     2    2
     2     2     3    1
     3     2     4    1
     4     4     5   ar
     5     5     6   ar
     6     6     7   ar
     7     7     8   ar
     8     8     9    1
     9     9    10    1
    10    10    11   ar
    11    11    12   ar
    12    12    13   ar
    13    13    14   ar
    14    14    15    1
    15    15    16   ar
    16    16    17   ar
    17    17    18   ar
    18    18    19   ar
    19    19    20   ar
    20    15    20   ar
    21    14    21   ar
    22    10    21   ar
    23     8    22   ar
    24     4    22   ar
    25     3    23    1
    26     9    24    1
    27     5    25    1
    28     6    26    1
    29     7    27    1
    30    12    28    1
    31    13    29    1
    32    16    30    1
    33    17    31    1
    34    18    32    1
    35    20    33    1
    36    22    34    1
@<TRIPOS>MOLECULE
mol47_1_25
 34 36 0 0 0
SMALL
USER_CHARGES
****
VDW energy = -129.94
@<TRIPOS>ATOM
   1 O1        3.4420    -9.1855    -5.2979  O.2     1  <O>11      -0.2451
   2 C1        2.8552    -9.8129    -4.4288  C.2     1  <O>11       0.3369
   3 O2        3.5096   -10.1823    -3.3012  O.3     1  <O>11      -0.4771
   4 C2        1.4620   -10.1610    -4.6040  C.ar    1  <O>11       0.0606
   5 C3        1.1306   -11.3698    -5.2192  C.ar    1  <O>11      -0.0477
   6 C4       -0.2153   -11.7066    -5.4026  C.ar    1  <O>11      -0.0592
   7 C5       -1.2229   -10.8409    -4.9699  C.ar    1  <O>11      -0.0404
   8 C6       -0.8747    -9.6351    -4.3496  C.ar    1  <O>11       0.0344
   9 N1       -1.9179    -8.7469    -3.9043  N.pl3   1  <O>11      -0.2836
  10 C7       -1.5765    -7.5133    -3.2199  C.ar    1  <O>11       0.2200
  11 N2       -2.5630    -6.7844    -2.6491  N.ar    1  <O>11      -0.2226
  12 C8       -2.2218    -5.6438    -2.0183  C.ar    1  <O>11       0.0332
  13 C9       -0.9327    -5.1870    -1.9273  C.ar    1  <O>11      -0.0174
  14 C10       0.0099    -5.9791    -2.5314  C.ar    1  <O>11       0.0775
  15 C11       1.3808    -5.5890    -2.4949  C.ar    1  <O>11       0.0186
  16 C12       2.3435    -6.4043    -1.9057  C.ar    1  <O>11      -0.0497
  17 C13       3.6700    -5.9605    -1.8766  C.ar    1  <O>11      -0.0430
  18 C14       3.9999    -4.7351    -2.4528  C.ar    1  <O>11       0.0276
  19 N3        3.0758    -3.9537    -3.0358  N.ar    1  <O>11      -0.2626
  20 C15       1.7970    -4.3847    -3.0443  C.ar    1  <O>11       0.0367
  21 N4       -0.2803    -7.1267    -3.1723  N.ar    1  <O>11      -0.2142
  22 C16       0.4636    -9.2913    -4.1600  C.ar    1  <O>11      -0.0265
  23 H1        2.9041   -10.6687    -2.7201  H       1  <O>11       0.2954
  24 H2       -2.8962    -8.9838    -4.0696  H       1  <O>11       0.1550
  25 H3        1.8739   -12.0113    -5.5368  H       1  <O>11       0.0626
  26 H4       -0.4644   -12.5978    -5.8593  H       1  <O>11       0.0618
  27 H5       -2.2155   -11.0882    -5.1063  H       1  <O>11       0.0636
  28 H6       -2.9706    -5.0845    -1.5806  H       1  <O>11       0.0831
  29 H7       -0.6891    -4.3108    -1.4395  H       1  <O>11       0.0654
  30 H8        2.0842    -7.3166    -1.4991  H       1  <O>11       0.0625
  31 H9        4.4003    -6.5374    -1.4309  H       1  <O>11       0.0633
  32 H10       4.9821    -4.4191    -2.4309  H       1  <O>11       0.0829
  33 H11       1.0854    -3.7820    -3.4862  H       1  <O>11       0.0836
  34 H12       0.7134    -8.4037    -3.6966  H       1  <O>11       0.0644
@<TRIPOS>BOND
     1     1     2    2
     2     2     3    1
     3     2     4    1
     4     4     5   ar
     5     5     6   ar
     6     6     7   ar
     7     7     8   ar
     8     8     9    1
     9     9    10    1
    10    10    11   ar
    11    11    12   ar
    12    12    13   ar
    13    13    14   ar
    14    14    15    1
    15    15    16   ar
    16    16    17   ar
    17    17    18   ar
    18    18    19   ar
    19    19    20   ar
    20    15    20   ar
    21    14    21   ar
    22    10    21   ar
    23     8    22   ar
    24     4    22   ar
    25     3    23    1
    26     9    24    1
    27     5    25    1
    28     6    26    1
    29     7    27    1
    30    12    28    1
    31    13    29    1
    32    16    30    1
    33    17    31    1
    34    18    32    1
    35    20    33    1
    36    22    34    1
@<TRIPOS>MOLECULE
mol47_1_26
 34 36 0 0 0
SMALL
USER_CHARGES
****
VDW energy = -127.36
@<TRIPOS>ATOM
   1 O1        3.4420    -9.1855    -5.2979  O.2     1  <O>11      -0.2451
   2 C1        2.8552    -9.8129    -4.4288  C.2     1  <O>11       0.3369
   3 O2        3.5096   -10.1823    -3.3012  O.3     1  <O>11      -0.4771
   4 C2        1.4620   -10.1610    -4.6040  C.ar    1  <O>11       0.0606
   5 C3        0.5946   -10.0837    -3.5126  C.ar    1  <O>11      -0.0477
   6 C4       -0.7516   -10.4309    -3.6727  C.ar    1  <O>11      -0.0592
   7 C5       -1.2274   -10.8492    -4.9180  C.ar    1  <O>11      -0.0404
   8 C6       -0.3466   -10.9160    -6.0041  C.ar    1  <O>11       0.0344
   9 N1       -0.8430   -11.3468    -7.2862  N.pl3   1  <O>11      -0.2836
  10 C7        0.0453   -11.3801    -8.4335  C.ar    1  <O>11       0.2200
  11 N2       -0.4758   -11.6091    -9.6609  N.ar    1  <O>11      -0.2226
  12 C8        0.3680   -11.6341   -10.7110  C.ar    1  <O>11       0.0332
  13 C9        1.7204   -11.4413   -10.5985  C.ar    1  <O>11      -0.0174
  14 C10       2.1727   -11.2170    -9.3234  C.ar    1  <O>11       0.0775
  15 C11       3.5653   -11.0074    -9.1004  C.ar    1  <O>11       0.0186
  16 C12       4.4186   -12.0755    -8.8364  C.ar    1  <O>11      -0.0497
  17 C13       5.7718   -11.8092    -8.6012  C.ar    1  <O>11      -0.0430
  18 C14       6.2364   -10.4964    -8.6586  C.ar    1  <O>11       0.0276
  19 N3        5.4183    -9.4657    -8.9286  N.ar    1  <O>11      -0.2626
  20 C15       4.1122    -9.7327    -9.1385  C.ar    1  <O>11       0.0367
  21 N4        1.3704   -11.1814    -8.2430  N.ar    1  <O>11      -0.2142
  22 C16       0.9963   -10.5699    -5.8555  C.ar    1  <O>11      -0.0265
  23 H1        2.9041   -10.6687    -2.7201  H       1  <O>11       0.2954
  24 H2       -1.8180   -11.6287    -7.3884  H       1  <O>11       0.1550
  25 H3        0.9443    -9.7723    -2.5929  H       1  <O>11       0.0626
  26 H4       -1.3953   -10.3778    -2.8679  H       1  <O>11       0.0618
  27 H5       -2.2197   -11.1068    -5.0362  H       1  <O>11       0.0636
  28 H6       -0.0246   -11.8077   -11.6494  H       1  <O>11       0.0831
  29 H7        2.3524   -11.4634   -11.4141  H       1  <O>11       0.0654
  30 H8        4.0605   -13.0431    -8.8148  H       1  <O>11       0.0625
  31 H9        6.4225   -12.5807    -8.3863  H       1  <O>11       0.0633
  32 H10       7.2373   -10.3110    -8.4889  H       1  <O>11       0.0829
  33 H11       3.4819    -8.9407    -9.3395  H       1  <O>11       0.0836
  34 H12       1.6389   -10.6156    -6.6617  H       1  <O>11       0.0644
@<TRIPOS>BOND
     1     1     2    2
     2     2     3    1
     3     2     4    1
     4     4     5   ar
     5     5     6   ar
     6     6     7   ar
     7     7     8   ar
     8     8     9    1
     9     9    10    1
    10    10    11   ar
    11    11    12   ar
    12    12    13   ar
    13    13    14   ar
    14    14    15    1
    15    15    16   ar
    16    16    17   ar
    17    17    18   ar
    18    18    19   ar
    19    19    20   ar
    20    15    20   ar
    21    14    21   ar
    22    10    21   ar
    23     8    22   ar
    24     4    22   ar
    25     3    23    1
    26     9    24    1
    27     5    25    1
    28     6    26    1
    29     7    27    1
    30    12    28    1
    31    13    29    1
    32    16    30    1
    33    17    31    1
    34    18    32    1
    35    20    33    1
    36    22    34    1
@<TRIPOS>MOLECULE
mol47_1_27
 34 36 0 0 0
SMALL
USER_CHARGES
****
VDW energy = -125.86
@<TRIPOS>ATOM
   1 O1        3.4420    -9.1855    -5.2979  O.2     1  <O>11      -0.2451
   2 C1        2.8552    -9.8129    -4.4288  C.2     1  <O>11       0.3369
   3 O2        3.5096   -10.1823    -3.3012  O.3     1  <O>11      -0.4771
   4 C2        1.4620   -10.1610    -4.6040  C.ar    1  <O>11       0.0606
   5 C3        0.8523    -9.9431    -5.8410  C.ar    1  <O>11      -0.0477
   6 C4       -0.4984   -10.2663    -6.0132  C.ar    1  <O>11      -0.0592
   7 C5       -1.2331   -10.8075    -4.9552  C.ar    1  <O>11      -0.0404
   8 C6       -0.6062   -11.0255    -3.7226  C.ar    1  <O>11       0.0344
   9 N1       -1.3684   -11.5850    -2.6356  N.pl3   1  <O>11      -0.2836
  10 C7       -0.7241   -11.8588    -1.3641  C.ar    1  <O>11       0.2200
  11 N2       -1.4030   -12.5494    -0.4193  N.ar    1  <O>11      -0.2226
  12 C8       -0.7841   -12.7926     0.7524  C.ar    1  <O>11       0.0332
  13 C9        0.4914   -12.3770     1.0340  C.ar    1  <O>11      -0.0174
  14 C10       1.1130   -11.6824     0.0281  C.ar    1  <O>11       0.0775
  15 C11       2.4419   -11.2042     0.2240  C.ar    1  <O>11       0.0186
  16 C12       3.5432   -11.9851    -0.1167  C.ar    1  <O>11      -0.0497
  17 C13       4.8244   -11.4753     0.1198  C.ar    1  <O>11      -0.0430
  18 C14       4.9697   -10.2005     0.6641  C.ar    1  <O>11       0.0276
  19 N3        3.9090    -9.4387     0.9791  N.ar    1  <O>11      -0.2626
  20 C15       2.6780    -9.9467     0.7611  C.ar    1  <O>11       0.0367
  21 N4        0.5380   -11.4152    -1.1593  N.ar    1  <O>11      -0.2142
  22 C16       0.7400   -10.7089    -3.5415  C.ar    1  <O>11      -0.0265
  23 H1        2.9041   -10.6687    -2.7201  H       1  <O>11       0.2954
  24 H2       -2.3603   -11.7887    -2.7584  H       1  <O>11       0.1550
  25 H3        1.3947    -9.5459    -6.6240  H       1  <O>11       0.0626
  26 H4       -0.9534   -10.1042    -6.9251  H       1  <O>11       0.0618
  27 H5       -2.2296   -11.0446    -5.0813  H       1  <O>11       0.0636
  28 H6       -1.2974   -13.3196     1.4762  H       1  <O>11       0.0831
  29 H7        0.9505   -12.5727     1.9373  H       1  <O>11       0.0654
  30 H8        3.4171   -12.9201    -0.5349  H       1  <O>11       0.0625
  31 H9        5.6575   -12.0402    -0.1076  H       1  <O>11       0.0633
  32 H10       5.9191    -9.8313     0.8298  H       1  <O>11       0.0829
  33 H11       1.8626    -9.3647     1.0089  H       1  <O>11       0.0836
  34 H12       1.1977   -10.8778    -2.6321  H       1  <O>11       0.0644
@<TRIPOS>BOND
     1     1     2    2
     2     2     3    1
     3     2     4    1
     4     4     5   ar
     5     5     6   ar
     6     6     7   ar
     7     7     8   ar
     8     8     9    1
     9     9    10    1
    10    10    11   ar
    11    11    12   ar
    12    12    13   ar
    13    13    14   ar
    14    14    15    1
    15    15    16   ar
    16    16    17   ar
    17    17    18   ar
    18    18    19   ar
    19    19    20   ar
    20    15    20   ar
    21    14    21   ar
    22    10    21   ar
    23     8    22   ar
    24     4    22   ar
    25     3    23    1
    26     9    24    1
    27     5    25    1
    28     6    26    1
    29     7    27    1
    30    12    28    1
    31    13    29    1
    32    16    30    1
    33    17    31    1
    34    18    32    1
    35    20    33    1
    36    22    34    1
@<TRIPOS>MOLECULE
mol47_1_28
 34 36 0 0 0
SMALL
USER_CHARGES
****
VDW energy = -125.52
@<TRIPOS>ATOM
   1 O1        3.4420    -9.1855    -5.2979  O.2     1  <O>11      -0.2451
   2 C1        2.8552    -9.8129    -4.4288  C.2     1  <O>11       0.3369
   3 O2        3.5096   -10.1823    -3.3012  O.3     1  <O>11      -0.4771
   4 C2        1.4620   -10.1610    -4.6040  C.ar    1  <O>11       0.0606
   5 C3        0.8523    -9.9431    -5.8410  C.ar    1  <O>11      -0.0477
   6 C4       -0.4984   -10.2663    -6.0132  C.ar    1  <O>11      -0.0592
   7 C5       -1.2331   -10.8075    -4.9552  C.ar    1  <O>11      -0.0404
   8 C6       -0.6062   -11.0255    -3.7226  C.ar    1  <O>11       0.0344
   9 N1       -1.3684   -11.5850    -2.6356  N.pl3   1  <O>11      -0.2836
  10 C7       -0.7241   -11.8588    -1.3641  C.ar    1  <O>11       0.2200
  11 N2       -1.4030   -12.5494    -0.4193  N.ar    1  <O>11      -0.2226
  12 C8       -0.7841   -12.7926     0.7524  C.ar    1  <O>11       0.0332
  13 C9        0.4914   -12.3770     1.0340  C.ar    1  <O>11      -0.0174
  14 C10       1.1130   -11.6824     0.0281  C.ar    1  <O>11       0.0775
  15 C11       2.4419   -11.2042     0.2240  C.ar    1  <O>11       0.0186
  16 C12       2.6785    -9.9420     0.7618  C.ar    1  <O>11      -0.0497
  17 C13       4.0024    -9.5144     0.9093  C.ar    1  <O>11      -0.0430
  18 C14       5.0458   -10.3614     0.5402  C.ar    1  <O>11       0.0276
  19 N3        4.8207   -11.5858     0.0357  N.ar    1  <O>11      -0.2626
  20 C15       3.5397   -11.9818    -0.1166  C.ar    1  <O>11       0.0367
  21 N4        0.5380   -11.4152    -1.1593  N.ar    1  <O>11      -0.2142
  22 C16       0.7400   -10.7089    -3.5415  C.ar    1  <O>11      -0.0265
  23 H1        2.9041   -10.6687    -2.7201  H       1  <O>11       0.2954
  24 H2       -2.3603   -11.7887    -2.7584  H       1  <O>11       0.1550
  25 H3        1.3947    -9.5459    -6.6240  H       1  <O>11       0.0626
  26 H4       -0.9534   -10.1042    -6.9251  H       1  <O>11       0.0618
  27 H5       -2.2296   -11.0446    -5.0813  H       1  <O>11       0.0636
  28 H6       -1.2974   -13.3196     1.4762  H       1  <O>11       0.0831
  29 H7        0.9505   -12.5727     1.9373  H       1  <O>11       0.0654
  30 H8        1.8940    -9.3347     1.0458  H       1  <O>11       0.0625
  31 H9        4.2053    -8.5766     1.2893  H       1  <O>11       0.0633
  32 H10       6.0190   -10.0387     0.6579  H       1  <O>11       0.0829
  33 H11       3.3658   -12.9197    -0.5102  H       1  <O>11       0.0836
  34 H12       1.1977   -10.8778    -2.6321  H       1  <O>11       0.0644
@<TRIPOS>BOND
     1     1     2    2
     2     2     3    1
     3     2     4    1
     4     4     5   ar
     5     5     6   ar
     6     6     7   ar
     7     7     8   ar
     8     8     9    1
     9     9    10    1
    10    10    11   ar
    11    11    12   ar
    12    12    13   ar
    13    13    14   ar
    14    14    15    1
    15    15    16   ar
    16    16    17   ar
    17    17    18   ar
    18    18    19   ar
    19    19    20   ar
    20    15    20   ar
    21    14    21   ar
    22    10    21   ar
    23     8    22   ar
    24     4    22   ar
    25     3    23    1
    26     9    24    1
    27     5    25    1
    28     6    26    1
    29     7    27    1
    30    12    28    1
    31    13    29    1
    32    16    30    1
    33    17    31    1
    34    18    32    1
    35    20    33    1
    36    22    34    1
@<TRIPOS>MOLECULE
mol47_1_29
 34 36 0 0 0
SMALL
USER_CHARGES
****
VDW energy = -124.19
@<TRIPOS>ATOM
   1 O1        3.4420    -9.1855    -5.2979  O.2     1  <O>11      -0.2451
   2 C1        2.8552    -9.8129    -4.4288  C.2     1  <O>11       0.3369
   3 O2        3.5096   -10.1823    -3.3012  O.3     1  <O>11      -0.4771
   4 C2        1.4620   -10.1610    -4.6040  C.ar    1  <O>11       0.0606
   5 C3        0.8523    -9.9431    -5.8410  C.ar    1  <O>11      -0.0477
   6 C4       -0.4984   -10.2663    -6.0132  C.ar    1  <O>11      -0.0592
   7 C5       -1.2331   -10.8075    -4.9552  C.ar    1  <O>11      -0.0404
   8 C6       -0.6062   -11.0255    -3.7226  C.ar    1  <O>11       0.0344
   9 N1       -1.3684   -11.5850    -2.6356  N.pl3   1  <O>11      -0.2836
  10 C7       -0.7241   -11.8588    -1.3641  C.ar    1  <O>11       0.2200
  11 N2       -1.4030   -12.5494    -0.4193  N.ar    1  <O>11      -0.2226
  12 C8       -0.7841   -12.7926     0.7524  C.ar    1  <O>11       0.0332
  13 C9        0.4914   -12.3770     1.0340  C.ar    1  <O>11      -0.0174
  14 C10       1.1130   -11.6824     0.0281  C.ar    1  <O>11       0.0775
  15 C11       2.4419   -11.2042     0.2240  C.ar    1  <O>11       0.0186
  16 C12       2.7329    -9.8444     0.1544  C.ar    1  <O>11      -0.0497
  17 C13       4.0586    -9.4336     0.3306  C.ar    1  <O>11      -0.0430
  18 C14       5.0456   -10.3821     0.5924  C.ar    1  <O>11       0.0276
  19 N3        4.7650   -11.6931     0.6756  N.ar    1  <O>11      -0.2626
  20 C15       3.4856   -12.0795     0.4886  C.ar    1  <O>11       0.0367
  21 N4        0.5380   -11.4152    -1.1593  N.ar    1  <O>11      -0.2142
  22 C16       0.7400   -10.7089    -3.5415  C.ar    1  <O>11      -0.0265
  23 H1        2.9041   -10.6687    -2.7201  H       1  <O>11       0.2954
  24 H2       -2.3603   -11.7887    -2.7584  H       1  <O>11       0.1550
  25 H3        1.3947    -9.5459    -6.6240  H       1  <O>11       0.0626
  26 H4       -0.9534   -10.1042    -6.9251  H       1  <O>11       0.0618
  27 H5       -2.2296   -11.0446    -5.0813  H       1  <O>11       0.0636
  28 H6       -1.2974   -13.3196     1.4762  H       1  <O>11       0.0831
  29 H7        0.9505   -12.5727     1.9373  H       1  <O>11       0.0654
  30 H8        1.9866    -9.1542    -0.0232  H       1  <O>11       0.0625
  31 H9        4.3044    -8.4333     0.2670  H       1  <O>11       0.0633
  32 H10       6.0196   -10.0683     0.7261  H       1  <O>11       0.0829
  33 H11       3.2704   -13.0872     0.5459  H       1  <O>11       0.0836
  34 H12       1.1977   -10.8778    -2.6321  H       1  <O>11       0.0644
@<TRIPOS>BOND
     1     1     2    2
     2     2     3    1
     3     2     4    1
     4     4     5   ar
     5     5     6   ar
     6     6     7   ar
     7     7     8   ar
     8     8     9    1
     9     9    10    1
    10    10    11   ar
    11    11    12   ar
    12    12    13   ar
    13    13    14   ar
    14    14    15    1
    15    15    16   ar
    16    16    17   ar
    17    17    18   ar
    18    18    19   ar
    19    19    20   ar
    20    15    20   ar
    21    14    21   ar
    22    10    21   ar
    23     8    22   ar
    24     4    22   ar
    25     3    23    1
    26     9    24    1
    27     5    25    1
    28     6    26    1
    29     7    27    1
    30    12    28    1
    31    13    29    1
    32    16    30    1
    33    17    31    1
    34    18    32    1
    35    20    33    1
    36    22    34    1
@<TRIPOS>MOLECULE
mol47_1_30
 34 36 0 0 0
SMALL
USER_CHARGES
****
VDW energy = -122.13
@<TRIPOS>ATOM
   1 O1        3.4420    -9.1855    -5.2979  O.2     1  <O>11      -0.2451
   2 C1        2.8552    -9.8129    -4.4288  C.2     1  <O>11       0.3369
   3 O2        3.5096   -10.1823    -3.3012  O.3     1  <O>11      -0.4771
   4 C2        1.4620   -10.1610    -4.6040  C.ar    1  <O>11       0.0606
   5 C3        0.8523    -9.9431    -5.8410  C.ar    1  <O>11      -0.0477
   6 C4       -0.4984   -10.2663    -6.0132  C.ar    1  <O>11      -0.0592
   7 C5       -1.2331   -10.8075    -4.9552  C.ar    1  <O>11      -0.0404
   8 C6       -0.6062   -11.0255    -3.7226  C.ar    1  <O>11       0.0344
   9 N1       -1.3684   -11.5850    -2.6356  N.pl3   1  <O>11      -0.2836
  10 C7       -0.7241   -11.8588    -1.3641  C.ar    1  <O>11       0.2200
  11 N2       -1.4030   -12.5494    -0.4193  N.ar    1  <O>11      -0.2226
  12 C8       -0.7841   -12.7926     0.7524  C.ar    1  <O>11       0.0332
  13 C9        0.4914   -12.3770     1.0340  C.ar    1  <O>11      -0.0174
  14 C10       1.1130   -11.6824     0.0281  C.ar    1  <O>11       0.0775
  15 C11       2.4419   -11.2042     0.2240  C.ar    1  <O>11       0.0186
  16 C12       3.4818   -11.6138    -0.6064  C.ar    1  <O>11      -0.0497
  17 C13       4.7705   -11.1317    -0.3531  C.ar    1  <O>11      -0.0430
  18 C14       4.9796   -10.2428     0.6997  C.ar    1  <O>11       0.0276
  19 N3        3.9755    -9.8337     1.4927  N.ar    1  <O>11      -0.2626
  20 C15       2.7394   -10.3172     1.2487  C.ar    1  <O>11       0.0367
  21 N4        0.5380   -11.4152    -1.1593  N.ar    1  <O>11      -0.2142
  22 C16       0.7400   -10.7089    -3.5415  C.ar    1  <O>11      -0.0265
  23 H1        2.9041   -10.6687    -2.7201  H       1  <O>11       0.2954
  24 H2       -2.3603   -11.7887    -2.7584  H       1  <O>11       0.1550
  25 H3        1.3947    -9.5459    -6.6240  H       1  <O>11       0.0626
  26 H4       -0.9534   -10.1042    -6.9251  H       1  <O>11       0.0618
  27 H5       -2.2296   -11.0446    -5.0813  H       1  <O>11       0.0636
  28 H6       -1.2974   -13.3196     1.4762  H       1  <O>11       0.0831
  29 H7        0.9505   -12.5727     1.9373  H       1  <O>11       0.0654
  30 H8        3.3057   -12.2593    -1.3921  H       1  <O>11       0.0625
  31 H9        5.5621   -11.4328    -0.9428  H       1  <O>11       0.0633
  32 H10       5.9330    -9.8887     0.8750  H       1  <O>11       0.0829
  33 H11       1.9686   -10.0085     1.8615  H       1  <O>11       0.0836
  34 H12       1.1977   -10.8778    -2.6321  H       1  <O>11       0.0644
@<TRIPOS>BOND
     1     1     2    2
     2     2     3    1
     3     2     4    1
     4     4     5   ar
     5     5     6   ar
     6     6     7   ar
     7     7     8   ar
     8     8     9    1
     9     9    10    1
    10    10    11   ar
    11    11    12   ar
    12    12    13   ar
    13    13    14   ar
    14    14    15    1
    15    15    16   ar
    16    16    17   ar
    17    17    18   ar
    18    18    19   ar
    19    19    20   ar
    20    15    20   ar
    21    14    21   ar
    22    10    21   ar
    23     8    22   ar
    24     4    22   ar
    25     3    23    1
    26     9    24    1
    27     5    25    1
    28     6    26    1
    29     7    27    1
    30    12    28    1
    31    13    29    1
    32    16    30    1
    33    17    31    1
    34    18    32    1
    35    20    33    1
    36    22    34    1
@<TRIPOS>MOLECULE
mol47_2_1
 34 36 0 0 0
SMALL
USER_CHARGES
****
VDW energy = -161.99
@<TRIPOS>ATOM
   1 O1        3.4420    -9.1855    -5.2979  O.2     1  <O>11      -0.2451
   2 C1        2.8552    -9.8129    -4.4288  C.2     1  <O>11       0.3369
   3 O2        3.5096   -10.1823    -3.3012  O.3     1  <O>11      -0.4771
   4 C2        1.4620   -10.1610    -4.6040  C.ar    1  <O>11       0.0606
   5 C3        0.4750    -9.2817    -4.1546  C.ar    1  <O>11      -0.0477
   6 C4       -0.8745    -9.6183    -4.3101  C.ar    1  <O>11      -0.0592
   7 C5       -1.2337   -10.8255    -4.9148  C.ar    1  <O>11      -0.0404
   8 C6       -0.2326   -11.6941    -5.3653  C.ar    1  <O>11       0.0344
   9 N1       -0.6088   -12.9371    -5.9892  N.pl3   1  <O>11      -0.2836
  10 C7       -0.7856   -14.1301    -5.1830  C.ar    1  <O>11       0.2200
  11 N2       -1.1391   -15.2871    -5.7906  N.ar    1  <O>11      -0.2226
  12 C8       -1.2972   -16.3810    -5.0228  C.ar    1  <O>11       0.0332
  13 C9       -1.1194   -16.3838    -3.6622  C.ar    1  <O>11      -0.0174
  14 C10      -0.7628   -15.1753    -3.1194  C.ar    1  <O>11       0.0775
  15 C11      -0.5524   -15.0720    -1.7130  C.ar    1  <O>11       0.0186
  16 C12       0.7042   -15.2931    -1.1590  C.ar    1  <O>11      -0.0497
  17 C13       0.8478   -15.2022     0.2318  C.ar    1  <O>11      -0.0430
  18 C14      -0.2535   -14.8681     1.0181  C.ar    1  <O>11       0.0276
  19 N3       -1.4622   -14.6408     0.4809  N.ar    1  <O>11      -0.2626
  20 C15      -1.5943   -14.7455    -0.8580  C.ar    1  <O>11       0.0367
  21 N4       -0.5929   -14.0538    -3.8463  N.ar    1  <O>11      -0.2142
  22 C16       1.1151   -11.3668    -5.2172  C.ar    1  <O>11      -0.0265
  23 H1        2.9041   -10.6687    -2.7201  H       1  <O>11       0.2954
  24 H2       -0.7505   -12.9784    -6.9997  H       1  <O>11       0.1550
  25 H3        0.7391    -8.3884    -3.7103  H       1  <O>11       0.0626
  26 H4       -1.6070    -8.9723    -3.9769  H       1  <O>11       0.0618
  27 H5       -2.2287   -11.0748    -5.0282  H       1  <O>11       0.0636
  28 H6       -1.5667   -17.2651    -5.4819  H       1  <O>11       0.0831
  29 H7       -1.2448   -17.2329    -3.0892  H       1  <O>11       0.0654
  30 H8        1.5129   -15.5191    -1.7590  H       1  <O>11       0.0625
  31 H9        1.7640   -15.3816     0.6716  H       1  <O>11       0.0633
  32 H10      -0.1362   -14.7935     2.0406  H       1  <O>11       0.0829
  33 H11      -2.5247   -14.5725    -1.2695  H       1  <O>11       0.0836
  34 H12       1.8481   -12.0089    -5.5570  H       1  <O>11       0.0644
@<TRIPOS>BOND
     1     1     2    2
     2     2     3    1
     3     2     4    1
     4     4     5   ar
     5     5     6   ar
     6     6     7   ar
     7     7     8   ar
     8     8     9    1
     9     9    10    1
    10    10    11   ar
    11    11    12   ar
    12    12    13   ar
    13    13    14   ar
    14    14    15    1
    15    15    16   ar
    16    16    17   ar
    17    17    18   ar
    18    18    19   ar
    19    19    20   ar
    20    15    20   ar
    21    14    21   ar
    22    10    21   ar
    23     8    22   ar
    24     4    22   ar
    25     3    23    1
    26     9    24    1
    27     5    25    1
    28     6    26    1
    29     7    27    1
    30    12    28    1
    31    13    29    1
    32    16    30    1
    33    17    31    1
    34    18    32    1
    35    20    33    1
    36    22    34    1
@<TRIPOS>MOLECULE
mol47_2_2
 34 36 0 0 0
SMALL
USER_CHARGES
****
VDW energy = -160.26
@<TRIPOS>ATOM
   1 O1        3.4420    -9.1855    -5.2979  O.2     1  <O>11      -0.2451
   2 C1        2.8552    -9.8129    -4.4288  C.2     1  <O>11       0.3369
   3 O2        3.5096   -10.1823    -3.3012  O.3     1  <O>11      -0.4771
   4 C2        1.4620   -10.1610    -4.6040  C.ar    1  <O>11       0.0606
   5 C3        0.4750    -9.2817    -4.1546  C.ar    1  <O>11      -0.0477
   6 C4       -0.8745    -9.6183    -4.3101  C.ar    1  <O>11      -0.0592
   7 C5       -1.2337   -10.8255    -4.9148  C.ar    1  <O>11      -0.0404
   8 C6       -0.2326   -11.6941    -5.3653  C.ar    1  <O>11       0.0344
   9 N1       -0.6088   -12.9371    -5.9892  N.pl3   1  <O>11      -0.2836
  10 C7       -0.7856   -14.1301    -5.1830  C.ar    1  <O>11       0.2200
  11 N2        0.2888   -14.6644    -4.5560  N.ar    1  <O>11      -0.2226
  12 C8        0.1009   -15.7710    -3.8135  C.ar    1  <O>11       0.0332
  13 C9       -1.1177   -16.3827    -3.6601  C.ar    1  <O>11      -0.0174
  14 C10      -2.1573   -15.7839    -4.3257  C.ar    1  <O>11       0.0775
  15 C11      -3.4662   -16.3412    -4.2300  C.ar    1  <O>11       0.0186
  16 C12      -4.3425   -15.9423    -3.2261  C.ar    1  <O>11      -0.0497
  17 C13      -5.6076   -16.5413    -3.1652  C.ar    1  <O>11      -0.0430
  18 C14      -5.9664   -17.4926    -4.1185  C.ar    1  <O>11       0.0276
  19 N3       -5.1253   -17.8661    -5.0953  N.ar    1  <O>11      -0.2626
  20 C15      -3.9034   -17.2948    -5.1370  C.ar    1  <O>11       0.0367
  21 N4       -2.0187   -14.6764    -5.0803  N.ar    1  <O>11      -0.2142
  22 C16       1.1151   -11.3668    -5.2172  C.ar    1  <O>11      -0.0265
  23 H1        2.9041   -10.6687    -2.7201  H       1  <O>11       0.2954
  24 H2       -0.7505   -12.9784    -6.9997  H       1  <O>11       0.1550
  25 H3        0.7391    -8.3884    -3.7103  H       1  <O>11       0.0626
  26 H4       -1.6070    -8.9723    -3.9769  H       1  <O>11       0.0618
  27 H5       -2.2287   -11.0748    -5.0282  H       1  <O>11       0.0636
  28 H6        0.9172   -16.1815    -3.3338  H       1  <O>11       0.0831
  29 H7       -1.2430   -17.2311    -3.0861  H       1  <O>11       0.0654
  30 H8       -4.0669   -15.2211    -2.5413  H       1  <O>11       0.0625
  31 H9       -6.2702   -16.2795    -2.4186  H       1  <O>11       0.0633
  32 H10      -6.9040   -17.9213    -4.0720  H       1  <O>11       0.0829
  33 H11      -3.2568   -17.5844    -5.8873  H       1  <O>11       0.0836
  34 H12       1.8481   -12.0089    -5.5570  H       1  <O>11       0.0644
@<TRIPOS>BOND
     1     1     2    2
     2     2     3    1
     3     2     4    1
     4     4     5   ar
     5     5     6   ar
     6     6     7   ar
     7     7     8   ar
     8     8     9    1
     9     9    10    1
    10    10    11   ar
    11    11    12   ar
    12    12    13   ar
    13    13    14   ar
    14    14    15    1
    15    15    16   ar
    16    16    17   ar
    17    17    18   ar
    18    18    19   ar
    19    19    20   ar
    20    15    20   ar
    21    14    21   ar
    22    10    21   ar
    23     8    22   ar
    24     4    22   ar
    25     3    23    1
    26     9    24    1
    27     5    25    1
    28     6    26    1
    29     7    27    1
    30    12    28    1
    31    13    29    1
    32    16    30    1
    33    17    31    1
    34    18    32    1
    35    20    33    1
    36    22    34    1
@<TRIPOS>MOLECULE
mol47_2_3
 34 36 0 0 0
SMALL
USER_CHARGES
****
VDW energy = -158.76
@<TRIPOS>ATOM
   1 O1        3.4420    -9.1855    -5.2979  O.2     1  <O>11      -0.2451
   2 C1        2.8552    -9.8129    -4.4288  C.2     1  <O>11       0.3369
   3 O2        3.5096   -10.1823    -3.3012  O.3     1  <O>11      -0.4771
   4 C2        1.4620   -10.1610    -4.6040  C.ar    1  <O>11       0.0606
   5 C3        0.5946   -10.0837    -3.5126  C.ar    1  <O>11      -0.0477
   6 C4       -0.7516   -10.4309    -3.6727  C.ar    1  <O>11      -0.0592
   7 C5       -1.2274   -10.8492    -4.9180  C.ar    1  <O>11      -0.0404
   8 C6       -0.3466   -10.9160    -6.0041  C.ar    1  <O>11       0.0344
   9 N1       -0.8430   -11.3468    -7.2862  N.pl3   1  <O>11      -0.2836
  10 C7       -0.8206   -12.7540    -7.6382  C.ar    1  <O>11       0.2200
  11 N2       -1.2921   -13.1359    -8.8484  N.ar    1  <O>11      -0.2226
  12 C8       -1.2612   -14.4464    -9.1533  C.ar    1  <O>11       0.0332
  13 C9       -0.7788   -15.4106    -8.3046  C.ar    1  <O>11      -0.0174
  14 C10      -0.3196   -14.9468    -7.0978  C.ar    1  <O>11       0.0775
  15 C11       0.2040   -15.8687    -6.1445  C.ar    1  <O>11       0.0186
  16 C12       1.5556   -16.1970    -6.1335  C.ar    1  <O>11      -0.0497
  17 C13       2.0106   -17.1274    -5.1900  C.ar    1  <O>11      -0.0430
  18 C14       1.1138   -17.6762    -4.2750  C.ar    1  <O>11       0.0276
  19 N3       -0.1875   -17.3477    -4.2773  N.ar    1  <O>11      -0.2626
  20 C15      -0.6194   -16.4621    -5.1994  C.ar    1  <O>11       0.0367
  21 N4       -0.3300   -13.6459    -6.7475  N.ar    1  <O>11      -0.2142
  22 C16       0.9963   -10.5699    -5.8555  C.ar    1  <O>11      -0.0265
  23 H1        2.9041   -10.6687    -2.7201  H       1  <O>11       0.2954
  24 H2       -1.2103   -10.6610    -7.9478  H       1  <O>11       0.1550
  25 H3        0.9443    -9.7723    -2.5929  H       1  <O>11       0.0626
  26 H4       -1.3953   -10.3778    -2.8679  H       1  <O>11       0.0618
  27 H5       -2.2197   -11.1068    -5.0362  H       1  <O>11       0.0636
  28 H6       -1.6195   -14.7419   -10.0749  H       1  <O>11       0.0831
  29 H7       -0.7626   -16.4115    -8.5557  H       1  <O>11       0.0654
  30 H8        2.2088   -15.7647    -6.8055  H       1  <O>11       0.0625
  31 H9        3.0045   -17.4050    -5.1726  H       1  <O>11       0.0633
  32 H10       1.4596   -18.3531    -3.5771  H       1  <O>11       0.0829
  33 H11      -1.6206   -16.2120    -5.2015  H       1  <O>11       0.0836
  34 H12       1.6389   -10.6156    -6.6617  H       1  <O>11       0.0644
@<TRIPOS>BOND
     1     1     2    2
     2     2     3    1
     3     2     4    1
     4     4     5   ar
     5     5     6   ar
     6     6     7   ar
     7     7     8   ar
     8     8     9    1
     9     9    10    1
    10    10    11   ar
    11    11    12   ar
    12    12    13   ar
    13    13    14   ar
    14    14    15    1
    15    15    16   ar
    16    16    17   ar
    17    17    18   ar
    18    18    19   ar
    19    19    20   ar
    20    15    20   ar
    21    14    21   ar
    22    10    21   ar
    23     8    22   ar
    24     4    22   ar
    25     3    23    1
    26     9    24    1
    27     5    25    1
    28     6    26    1
    29     7    27    1
    30    12    28    1
    31    13    29    1
    32    16    30    1
    33    17    31    1
    34    18    32    1
    35    20    33    1
    36    22    34    1
@<TRIPOS>MOLECULE
mol47_2_4
 34 36 0 0 0
SMALL
USER_CHARGES
****
VDW energy = -158.38
@<TRIPOS>ATOM
   1 O1        3.4420    -9.1855    -5.2979  O.2     1  <O>11      -0.2451
   2 C1        2.8552    -9.8129    -4.4288  C.2     1  <O>11       0.3369
   3 O2        3.5096   -10.1823    -3.3012  O.3     1  <O>11      -0.4771
   4 C2        1.4620   -10.1610    -4.6040  C.ar    1  <O>11       0.0606
   5 C3        1.0134   -11.4175    -4.1926  C.ar    1  <O>11      -0.0477
   6 C4       -0.3305   -11.7649    -4.3706  C.ar    1  <O>11      -0.0592
   7 C5       -1.2205   -10.8590    -4.9532  C.ar    1  <O>11      -0.0404
   8 C6       -0.7568    -9.6008    -5.3553  C.ar    1  <O>11       0.0344
   9 N1       -1.6793    -8.6703    -5.9544  N.pl3   1  <O>11      -0.2836
  10 C7       -1.8736    -8.6638    -7.3921  C.ar    1  <O>11       0.2200
  11 N2       -2.7452    -7.7806    -7.9331  N.ar    1  <O>11      -0.2226
  12 C8       -2.9091    -7.7927    -9.2689  C.ar    1  <O>11       0.0332
  13 C9       -2.2414    -8.6502   -10.1065  C.ar    1  <O>11      -0.0174
  14 C10      -1.3766    -9.5151    -9.4848  C.ar    1  <O>11       0.0775
  15 C11      -0.6324   -10.4467   -10.2667  C.ar    1  <O>11       0.0186
  16 C12       0.6199   -10.1162   -10.7741  C.ar    1  <O>11      -0.0497
  17 C13       1.2957   -11.0618   -11.5564  C.ar    1  <O>11      -0.0430
  18 C14       0.7170   -12.3094   -11.7829  C.ar    1  <O>11       0.0276
  19 N3       -0.4849   -12.6323   -11.2807  N.ar    1  <O>11      -0.2626
  20 C15      -1.1351   -11.7097   -10.5410  C.ar    1  <O>11       0.0367
  21 N4       -1.1790    -9.5408    -8.1524  N.ar    1  <O>11      -0.2142
  22 C16       0.5801    -9.2441    -5.1802  C.ar    1  <O>11      -0.0265
  23 H1        2.9041   -10.6687    -2.7201  H       1  <O>11       0.2954
  24 H2       -2.1962    -8.0143    -5.3667  H       1  <O>11       0.1550
  25 H3        1.6693   -12.0865    -3.7596  H       1  <O>11       0.0626
  26 H4       -0.6655   -12.6936    -4.0704  H       1  <O>11       0.0618
  27 H5       -2.2113   -11.1153    -5.0861  H       1  <O>11       0.0636
  28 H6       -3.5726    -7.1210    -9.6856  H       1  <O>11       0.0831
  29 H7       -2.3795    -8.6449   -11.1292  H       1  <O>11       0.0654
  30 H8        1.0418    -9.1949   -10.5786  H       1  <O>11       0.0625
  31 H9        2.2170   -10.8358   -11.9629  H       1  <O>11       0.0633
  32 H10       1.2264   -13.0034   -12.3520  H       1  <O>11       0.0829
  33 H11      -2.0602   -11.9585   -10.1571  H       1  <O>11       0.0836
  34 H12       0.9141    -8.3127    -5.4733  H       1  <O>11       0.0644
@<TRIPOS>BOND
     1     1     2    2
     2     2     3    1
     3     2     4    1
     4     4     5   ar
     5     5     6   ar
     6     6     7   ar
     7     7     8   ar
     8     8     9    1
     9     9    10    1
    10    10    11   ar
    11    11    12   ar
    12    12    13   ar
    13    13    14   ar
    14    14    15    1
    15    15    16   ar
    16    16    17   ar
    17    17    18   ar
    18    18    19   ar
    19    19    20   ar
    20    15    20   ar
    21    14    21   ar
    22    10    21   ar
    23     8    22   ar
    24     4    22   ar
    25     3    23    1
    26     9    24    1
    27     5    25    1
    28     6    26    1
    29     7    27    1
    30    12    28    1
    31    13    29    1
    32    16    30    1
    33    17    31    1
    34    18    32    1
    35    20    33    1
    36    22    34    1
@<TRIPOS>MOLECULE
mol47_2_5
 34 36 0 0 0
SMALL
USER_CHARGES
****
VDW energy = -156.63
@<TRIPOS>ATOM
   1 O1        3.4420    -9.1855    -5.2979  O.2     1  <O>11      -0.2451
   2 C1        2.8552    -9.8129    -4.4288  C.2     1  <O>11       0.3369
   3 O2        3.5096   -10.1823    -3.3012  O.3     1  <O>11      -0.4771
   4 C2        1.4620   -10.1610    -4.6040  C.ar    1  <O>11       0.0606
   5 C3        1.0134   -11.4175    -4.1926  C.ar    1  <O>11      -0.0477
   6 C4       -0.3305   -11.7649    -4.3706  C.ar    1  <O>11      -0.0592
   7 C5       -1.2205   -10.8590    -4.9532  C.ar    1  <O>11      -0.0404
   8 C6       -0.7568    -9.6008    -5.3553  C.ar    1  <O>11       0.0344
   9 N1       -1.6793    -8.6703    -5.9544  N.pl3   1  <O>11      -0.2836
  10 C7       -2.4151    -7.7384    -5.1208  C.ar    1  <O>11       0.2200
  11 N2       -1.7356    -6.7763    -4.4534  N.ar    1  <O>11      -0.2226
  12 C8       -2.4391    -5.9231    -3.6864  C.ar    1  <O>11       0.0332
  13 C9       -3.8030    -5.9779    -3.5467  C.ar    1  <O>11      -0.0174
  14 C10      -4.4204    -6.9793    -4.2526  C.ar    1  <O>11       0.0775
  15 C11      -5.8371    -7.1214    -4.1766  C.ar    1  <O>11       0.0186
  16 C12      -6.6722    -6.4580    -5.0695  C.ar    1  <O>11      -0.0497
  17 C13      -8.0577    -6.6149    -4.9327  C.ar    1  <O>11      -0.0430
  18 C14      -8.5621    -7.4456    -3.9336  C.ar    1  <O>11       0.0276
  19 N3       -7.7548    -8.0966    -3.0817  N.ar    1  <O>11      -0.2626
  20 C15      -6.4222    -7.9275    -3.2115  C.ar    1  <O>11       0.0367
  21 N4       -3.7596    -7.8567    -5.0328  N.ar    1  <O>11      -0.2142
  22 C16       0.5801    -9.2441    -5.1802  C.ar    1  <O>11      -0.0265
  23 H1        2.9041   -10.6687    -2.7201  H       1  <O>11       0.2954
  24 H2       -1.8157    -8.6671    -6.9665  H       1  <O>11       0.1550
  25 H3        1.6693   -12.0865    -3.7596  H       1  <O>11       0.0626
  26 H4       -0.6655   -12.6936    -4.0704  H       1  <O>11       0.0618
  27 H5       -2.2113   -11.1153    -5.0861  H       1  <O>11       0.0636
  28 H6       -1.9251    -5.1881    -3.1758  H       1  <O>11       0.0831
  29 H7       -4.3260    -5.3145    -2.9540  H       1  <O>11       0.0654
  30 H8       -6.2799    -5.8634    -5.8162  H       1  <O>11       0.0625
  31 H9       -8.7013    -6.1181    -5.5683  H       1  <O>11       0.0633
  32 H10      -9.5836    -7.5631    -3.8465  H       1  <O>11       0.0829
  33 H11      -5.8026    -8.4269    -2.5545  H       1  <O>11       0.0836
  34 H12       0.9141    -8.3127    -5.4733  H       1  <O>11       0.0644
@<TRIPOS>BOND
     1     1     2    2
     2     2     3    1
     3     2     4    1
     4     4     5   ar
     5     5     6   ar
     6     6     7   ar
     7     7     8   ar
     8     8     9    1
     9     9    10    1
    10    10    11   ar
    11    11    12   ar
    12    12    13   ar
    13    13    14   ar
    14    14    15    1
    15    15    16   ar
    16    16    17   ar
    17    17    18   ar
    18    18    19   ar
    19    19    20   ar
    20    15    20   ar
    21    14    21   ar
    22    10    21   ar
    23     8    22   ar
    24     4    22   ar
    25     3    23    1
    26     9    24    1
    27     5    25    1
    28     6    26    1
    29     7    27    1
    30    12    28    1
    31    13    29    1
    32    16    30    1
    33    17    31    1
    34    18    32    1
    35    20    33    1
    36    22    34    1
@<TRIPOS>MOLECULE
mol47_2_6
 34 36 0 0 0
SMALL
USER_CHARGES
****
VDW energy = -154.05
@<TRIPOS>ATOM
   1 O1        3.4420    -9.1855    -5.2979  O.2     1  <O>11      -0.2451
   2 C1        2.8552    -9.8129    -4.4288  C.2     1  <O>11       0.3369
   3 O2        3.5096   -10.1823    -3.3012  O.3     1  <O>11      -0.4771
   4 C2        1.4620   -10.1610    -4.6040  C.ar    1  <O>11       0.0606
   5 C3        0.8010    -9.7730    -5.7710  C.ar    1  <O>11      -0.0477
   6 C4       -0.5500   -10.0960    -5.9410  C.ar    1  <O>11      -0.0592
   7 C5       -1.2340   -10.8060    -4.9510  C.ar    1  <O>11      -0.0404
   8 C6       -0.5560   -11.1930    -3.7890  C.ar    1  <O>11       0.0344
   9 N1       -1.2660   -11.9260    -2.7720  N.pl3   1  <O>11      -0.2836
  10 C7       -1.9508   -11.2152    -1.7088  C.ar    1  <O>11       0.2200
  11 N2       -2.6114   -11.9246    -0.7638  N.ar    1  <O>11      -0.2226
  12 C8       -3.2392   -11.2440     0.2130  C.ar    1  <O>11       0.0332
  13 C9       -3.2440    -9.8746     0.2996  C.ar    1  <O>11      -0.0174
  14 C10      -2.5543    -9.2262    -0.6934  C.ar    1  <O>11       0.0775
  15 C11      -2.4971    -7.8015    -0.6935  C.ar    1  <O>11       0.0186
  16 C12      -3.4585    -7.0465    -1.3573  C.ar    1  <O>11      -0.0497
  17 C13      -3.3389    -5.6505    -1.3447  C.ar    1  <O>11      -0.0430
  18 C14      -2.2868    -5.0550    -0.6513  C.ar    1  <O>11       0.0276
  19 N3       -1.3680    -5.7841     0.0009  N.ar    1  <O>11      -0.2626
  20 C15      -1.4827    -7.1284    -0.0293  C.ar    1  <O>11       0.0367
  21 N4       -1.9110    -9.8633    -1.6911  N.ar    1  <O>11      -0.2142
  22 C16       0.7910   -10.8780    -3.6110  C.ar    1  <O>11      -0.0265
  23 H1        2.9041   -10.6687    -2.7201  H       1  <O>11       0.2954
  24 H2       -1.2867   -12.9467    -2.7992  H       1  <O>11       0.1550
  25 H3        1.3059    -9.2509    -6.5042  H       1  <O>11       0.0626
  26 H4       -1.0429    -9.8087    -6.8009  H       1  <O>11       0.0618
  27 H5       -2.2307   -11.0431    -5.0753  H       1  <O>11       0.0636
  28 H6       -3.7440   -11.7808     0.9354  H       1  <O>11       0.0831
  29 H7       -3.7309    -9.3694     1.0565  H       1  <O>11       0.0654
  30 H8       -4.2424    -7.5043    -1.8481  H       1  <O>11       0.0625
  31 H9       -4.0262    -5.0665    -1.8463  H       1  <O>11       0.0633
  32 H10      -2.2123    -4.0258    -0.6390  H       1  <O>11       0.0829
  33 H11      -0.7744    -7.6880     0.4708  H       1  <O>11       0.0836
  34 H12       1.2865   -11.1716    -2.7547  H       1  <O>11       0.0644
@<TRIPOS>BOND
     1     1     2    2
     2     2     3    1
     3     2     4    1
     4     4     5   ar
     5     5     6   ar
     6     6     7   ar
     7     7     8   ar
     8     8     9    1
     9     9    10    1
    10    10    11   ar
    11    11    12   ar
    12    12    13   ar
    13    13    14   ar
    14    14    15    1
    15    15    16   ar
    16    16    17   ar
    17    17    18   ar
    18    18    19   ar
    19    19    20   ar
    20    15    20   ar
    21    14    21   ar
    22    10    21   ar
    23     8    22   ar
    24     4    22   ar
    25     3    23    1
    26     9    24    1
    27     5    25    1
    28     6    26    1
    29     7    27    1
    30    12    28    1
    31    13    29    1
    32    16    30    1
    33    17    31    1
    34    18    32    1
    35    20    33    1
    36    22    34    1
@<TRIPOS>MOLECULE
mol47_2_7
 34 36 0 0 0
SMALL
USER_CHARGES
****
VDW energy = -154.03
@<TRIPOS>ATOM
   1 O1        3.4420    -9.1855    -5.2979  O.2     1  <O>11      -0.2451
   2 C1        2.8552    -9.8129    -4.4288  C.2     1  <O>11       0.3369
   3 O2        3.5096   -10.1823    -3.3012  O.3     1  <O>11      -0.4771
   4 C2        1.4620   -10.1610    -4.6040  C.ar    1  <O>11       0.0606
   5 C3        0.8010    -9.7730    -5.7710  C.ar    1  <O>11      -0.0477
   6 C4       -0.5500   -10.0960    -5.9410  C.ar    1  <O>11      -0.0592
   7 C5       -1.2340   -10.8060    -4.9510  C.ar    1  <O>11      -0.0404
   8 C6       -0.5560   -11.1930    -3.7890  C.ar    1  <O>11       0.0344
   9 N1       -1.2660   -11.9260    -2.7720  N.pl3   1  <O>11      -0.2836
  10 C7       -1.9508   -11.2152    -1.7088  C.ar    1  <O>11       0.2200
  11 N2       -2.6114   -11.9246    -0.7638  N.ar    1  <O>11      -0.2226
  12 C8       -3.2392   -11.2440     0.2130  C.ar    1  <O>11       0.0332
  13 C9       -3.2440    -9.8746     0.2996  C.ar    1  <O>11      -0.0174
  14 C10      -2.5543    -9.2262    -0.6934  C.ar    1  <O>11       0.0775
  15 C11      -2.4971    -7.8015    -0.6935  C.ar    1  <O>11       0.0186
  16 C12      -1.4784    -7.1258    -0.0298  C.ar    1  <O>11      -0.0497
  17 C13      -1.4857    -5.7248    -0.0425  C.ar    1  <O>11      -0.0430
  18 C14      -2.4867    -5.0470    -0.7361  C.ar    1  <O>11       0.0276
  19 N3       -3.4610    -5.7002    -1.3882  N.ar    1  <O>11      -0.2626
  20 C15      -3.4544    -7.0493    -1.3578  C.ar    1  <O>11       0.0367
  21 N4       -1.9110    -9.8633    -1.6911  N.ar    1  <O>11      -0.2142
  22 C16       0.7910   -10.8780    -3.6110  C.ar    1  <O>11      -0.0265
  23 H1        2.9041   -10.6687    -2.7201  H       1  <O>11       0.2954
  24 H2       -1.2867   -12.9467    -2.7992  H       1  <O>11       0.1550
  25 H3        1.3059    -9.2509    -6.5042  H       1  <O>11       0.0626
  26 H4       -1.0429    -9.8087    -6.8009  H       1  <O>11       0.0618
  27 H5       -2.2307   -11.0431    -5.0753  H       1  <O>11       0.0636
  28 H6       -3.7440   -11.7808     0.9354  H       1  <O>11       0.0831
  29 H7       -3.7309    -9.3694     1.0565  H       1  <O>11       0.0654
  30 H8       -0.7337    -7.6450     0.4611  H       1  <O>11       0.0625
  31 H9       -0.7538    -5.1977     0.4590  H       1  <O>11       0.0633
  32 H10      -2.4786    -4.0151    -0.7484  H       1  <O>11       0.0829
  33 H11      -4.2053    -7.5504    -1.8579  H       1  <O>11       0.0836
  34 H12       1.2865   -11.1716    -2.7547  H       1  <O>11       0.0644
@<TRIPOS>BOND
     1     1     2    2
     2     2     3    1
     3     2     4    1
     4     4     5   ar
     5     5     6   ar
     6     6     7   ar
     7     7     8   ar
     8     8     9    1
     9     9    10    1
    10    10    11   ar
    11    11    12   ar
    12    12    13   ar
    13    13    14   ar
    14    14    15    1
    15    15    16   ar
    16    16    17   ar
    17    17    18   ar
    18    18    19   ar
    19    19    20   ar
    20    15    20   ar
    21    14    21   ar
    22    10    21   ar
    23     8    22   ar
    24     4    22   ar
    25     3    23    1
    26     9    24    1
    27     5    25    1
    28     6    26    1
    29     7    27    1
    30    12    28    1
    31    13    29    1
    32    16    30    1
    33    17    31    1
    34    18    32    1
    35    20    33    1
    36    22    34    1
@<TRIPOS>MOLECULE
mol47_2_8
 34 36 0 0 0
SMALL
USER_CHARGES
****
VDW energy = -153.07
@<TRIPOS>ATOM
   1 O1        3.4420    -9.1855    -5.2979  O.2     1  <O>11      -0.2451
   2 C1        2.8552    -9.8129    -4.4288  C.2     1  <O>11       0.3369
   3 O2        3.5096   -10.1823    -3.3012  O.3     1  <O>11      -0.4771
   4 C2        1.4620   -10.1610    -4.6040  C.ar    1  <O>11       0.0606
   5 C3        1.0134   -11.4175    -4.1926  C.ar    1  <O>11      -0.0477
   6 C4       -0.3305   -11.7649    -4.3706  C.ar    1  <O>11      -0.0592
   7 C5       -1.2205   -10.8590    -4.9532  C.ar    1  <O>11      -0.0404
   8 C6       -0.7568    -9.6008    -5.3553  C.ar    1  <O>11       0.0344
   9 N1       -1.6793    -8.6703    -5.9544  N.pl3   1  <O>11      -0.2836
  10 C7       -1.2186    -7.3611    -6.3769  C.ar    1  <O>11       0.2200
  11 N2       -0.3287    -7.2743    -7.3933  N.ar    1  <O>11      -0.2226
  12 C8        0.0843    -6.0496    -7.7683  C.ar    1  <O>11       0.0332
  13 C9       -0.3481    -4.8899    -7.1761  C.ar    1  <O>11      -0.0174
  14 C10      -1.2479    -5.0587    -6.1542  C.ar    1  <O>11       0.0775
  15 C11      -1.7603    -3.9153    -5.4737  C.ar    1  <O>11       0.0186
  16 C12      -2.9155    -3.2780    -5.9143  C.ar    1  <O>11      -0.0497
  17 C13      -3.3598    -2.1440    -5.2216  C.ar    1  <O>11      -0.0430
  18 C14      -2.6578    -1.7013    -4.1019  C.ar    1  <O>11       0.0276
  19 N3       -1.5514    -2.3256    -3.6692  N.ar    1  <O>11      -0.2626
  20 C15      -1.1225    -3.4080    -4.3516  C.ar    1  <O>11       0.0367
  21 N4       -1.6905    -6.2631    -5.7434  N.ar    1  <O>11      -0.2142
  22 C16       0.5801    -9.2441    -5.1802  C.ar    1  <O>11      -0.0265
  23 H1        2.9041   -10.6687    -2.7201  H       1  <O>11       0.2954
  24 H2       -2.6582    -8.9322    -6.0811  H       1  <O>11       0.1550
  25 H3        1.6693   -12.0865    -3.7596  H       1  <O>11       0.0626
  26 H4       -0.6655   -12.6936    -4.0704  H       1  <O>11       0.0618
  27 H5       -2.2113   -11.1153    -5.0861  H       1  <O>11       0.0636
  28 H6        0.7627    -5.9789    -8.5427  H       1  <O>11       0.0831
  29 H7       -0.0206    -3.9587    -7.4773  H       1  <O>11       0.0654
  30 H8       -3.4339    -3.6326    -6.7331  H       1  <O>11       0.0625
  31 H9       -4.2022    -1.6393    -5.5388  H       1  <O>11       0.0633
  32 H10      -2.9980    -0.8711    -3.5919  H       1  <O>11       0.0829
  33 H11      -0.2704    -3.8859    -4.0191  H       1  <O>11       0.0836
  34 H12       0.9141    -8.3127    -5.4733  H       1  <O>11       0.0644
@<TRIPOS>BOND
     1     1     2    2
     2     2     3    1
     3     2     4    1
     4     4     5   ar
     5     5     6   ar
     6     6     7   ar
     7     7     8   ar
     8     8     9    1
     9     9    10    1
    10    10    11   ar
    11    11    12   ar
    12    12    13   ar
    13    13    14   ar
    14    14    15    1
    15    15    16   ar
    16    16    17   ar
    17    17    18   ar
    18    18    19   ar
    19    19    20   ar
    20    15    20   ar
    21    14    21   ar
    22    10    21   ar
    23     8    22   ar
    24     4    22   ar
    25     3    23    1
    26     9    24    1
    27     5    25    1
    28     6    26    1
    29     7    27    1
    30    12    28    1
    31    13    29    1
    32    16    30    1
    33    17    31    1
    34    18    32    1
    35    20    33    1
    36    22    34    1
@<TRIPOS>MOLECULE
mol47_2_9
 34 36 0 0 0
SMALL
USER_CHARGES
****
VDW energy = -152.81
@<TRIPOS>ATOM
   1 O1        3.4420    -9.1855    -5.2979  O.2     1  <O>11      -0.2451
   2 C1        2.8552    -9.8129    -4.4288  C.2     1  <O>11       0.3369
   3 O2        3.5096   -10.1823    -3.3012  O.3     1  <O>11      -0.4771
   4 C2        1.4620   -10.1610    -4.6040  C.ar    1  <O>11       0.0606
   5 C3        0.8010    -9.7730    -5.7710  C.ar    1  <O>11      -0.0477
   6 C4       -0.5500   -10.0960    -5.9410  C.ar    1  <O>11      -0.0592
   7 C5       -1.2340   -10.8060    -4.9510  C.ar    1  <O>11      -0.0404
   8 C6       -0.5560   -11.1930    -3.7890  C.ar    1  <O>11       0.0344
   9 N1       -1.2660   -11.9260    -2.7720  N.pl3   1  <O>11      -0.2836
  10 C7       -2.3495   -11.2935    -2.0435  C.ar    1  <O>11       0.2200
  11 N2       -3.0025   -12.0013    -1.0921  N.ar    1  <O>11      -0.2226
  12 C8       -4.0040   -11.3941    -0.4292  C.ar    1  <O>11       0.0332
  13 C9       -4.3953   -10.1006    -0.6670  C.ar    1  <O>11      -0.0174
  14 C10      -3.6874    -9.4489    -1.6450  C.ar    1  <O>11       0.0775
  15 C11      -4.0148    -8.0992    -1.9677  C.ar    1  <O>11       0.0186
  16 C12      -3.4032    -7.0372    -1.3097  C.ar    1  <O>11      -0.0497
  17 C13      -3.7816    -5.7319    -1.6504  C.ar    1  <O>11      -0.0430
  18 C14      -4.7313    -5.5281    -2.6499  C.ar    1  <O>11       0.0276
  19 N3       -5.3102    -6.5534    -3.2941  N.ar    1  <O>11      -0.2626
  20 C15      -4.9506    -7.8073    -2.9487  C.ar    1  <O>11       0.0367
  21 N4       -2.6780   -10.0143    -2.3354  N.ar    1  <O>11      -0.2142
  22 C16       0.7910   -10.8780    -3.6110  C.ar    1  <O>11      -0.0265
  23 H1        2.9041   -10.6687    -2.7201  H       1  <O>11       0.2954
  24 H2       -1.0059   -12.8913    -2.5633  H       1  <O>11       0.1550
  25 H3        1.3059    -9.2509    -6.5042  H       1  <O>11       0.0626
  26 H4       -1.0429    -9.8087    -6.8009  H       1  <O>11       0.0618
  27 H5       -2.2307   -11.0431    -5.0753  H       1  <O>11       0.0636
  28 H6       -4.5045   -11.9300     0.2970  H       1  <O>11       0.0831
  29 H7       -5.1658    -9.6509    -0.1482  H       1  <O>11       0.0654
  30 H8       -2.6867    -7.2070    -0.5867  H       1  <O>11       0.0625
  31 H9       -3.3592    -4.9257    -1.1639  H       1  <O>11       0.0633
  32 H10      -4.9966    -4.5630    -2.9012  H       1  <O>11       0.0829
  33 H11      -5.3980    -8.5949    -3.4433  H       1  <O>11       0.0836
  34 H12       1.2865   -11.1716    -2.7547  H       1  <O>11       0.0644
@<TRIPOS>BOND
     1     1     2    2
     2     2     3    1
     3     2     4    1
     4     4     5   ar
     5     5     6   ar
     6     6     7   ar
     7     7     8   ar
     8     8     9    1
     9     9    10    1
    10    10    11   ar
    11    11    12   ar
    12    12    13   ar
    13    13    14   ar
    14    14    15    1
    15    15    16   ar
    16    16    17   ar
    17    17    18   ar
    18    18    19   ar
    19    19    20   ar
    20    15    20   ar
    21    14    21   ar
    22    10    21   ar
    23     8    22   ar
    24     4    22   ar
    25     3    23    1
    26     9    24    1
    27     5    25    1
    28     6    26    1
    29     7    27    1
    30    12    28    1
    31    13    29    1
    32    16    30    1
    33    17    31    1
    34    18    32    1
    35    20    33    1
    36    22    34    1
@<TRIPOS>MOLECULE
mol47_2_10
 34 36 0 0 0
SMALL
USER_CHARGES
****
VDW energy = -152.54
@<TRIPOS>ATOM
   1 O1        3.4420    -9.1855    -5.2979  O.2     1  <O>11      -0.2451
   2 C1        2.8552    -9.8129    -4.4288  C.2     1  <O>11       0.3369
   3 O2        3.5096   -10.1823    -3.3012  O.3     1  <O>11      -0.4771
   4 C2        1.4620   -10.1610    -4.6040  C.ar    1  <O>11       0.0606
   5 C3        0.8010    -9.7730    -5.7710  C.ar    1  <O>11      -0.0477
   6 C4       -0.5500   -10.0960    -5.9410  C.ar    1  <O>11      -0.0592
   7 C5       -1.2340   -10.8060    -4.9510  C.ar    1  <O>11      -0.0404
   8 C6       -0.5560   -11.1930    -3.7890  C.ar    1  <O>11       0.0344
   9 N1       -1.2660   -11.9260    -2.7720  N.pl3   1  <O>11      -0.2836
  10 C7       -1.9508   -11.2152    -1.7088  C.ar    1  <O>11       0.2200
  11 N2       -3.2437   -10.8551    -1.8859  N.ar    1  <O>11      -0.2226
  12 C8       -3.8586   -10.1968    -0.8861  C.ar    1  <O>11       0.0332
  13 C9       -3.2453    -9.8733     0.2980  C.ar    1  <O>11      -0.0174
  14 C10      -1.9363   -10.2706     0.4028  C.ar    1  <O>11       0.0775
  15 C11      -1.2089    -9.9839     1.5952  C.ar    1  <O>11       0.0186
  16 C12      -1.1979   -10.8789     2.6599  C.ar    1  <O>11      -0.0497
  17 C13      -0.4862   -10.5343     3.8164  C.ar    1  <O>11      -0.0430
  18 C14       0.2107    -9.3282     3.8633  C.ar    1  <O>11       0.0276
  19 N3        0.2112    -8.4719     2.8298  N.ar    1  <O>11      -0.2626
  20 C15      -0.4894    -8.8055     1.7258  C.ar    1  <O>11       0.0367
  21 N4       -1.2786   -10.9312    -0.5699  N.ar    1  <O>11      -0.2142
  22 C16       0.7910   -10.8780    -3.6110  C.ar    1  <O>11      -0.0265
  23 H1        2.9041   -10.6687    -2.7201  H       1  <O>11       0.2954
  24 H2       -1.2867   -12.9467    -2.7992  H       1  <O>11       0.1550
  25 H3        1.3059    -9.2509    -6.5042  H       1  <O>11       0.0626
  26 H4       -1.0429    -9.8087    -6.8009  H       1  <O>11       0.0618
  27 H5       -2.2307   -11.0431    -5.0753  H       1  <O>11       0.0636
  28 H6       -4.8442    -9.9204    -1.0169  H       1  <O>11       0.0831
  29 H7       -3.7330    -9.3681     1.0542  H       1  <O>11       0.0654
  30 H8       -1.7028   -11.7770     2.5992  H       1  <O>11       0.0625
  31 H9       -0.4780   -11.1701     4.6293  H       1  <O>11       0.0633
  32 H10       0.7404    -9.0871     4.7155  H       1  <O>11       0.0829
  33 H11      -0.4900    -8.1452     0.9326  H       1  <O>11       0.0836
  34 H12       1.2865   -11.1716    -2.7547  H       1  <O>11       0.0644
@<TRIPOS>BOND
     1     1     2    2
     2     2     3    1
     3     2     4    1
     4     4     5   ar
     5     5     6   ar
     6     6     7   ar
     7     7     8   ar
     8     8     9    1
     9     9    10    1
    10    10    11   ar
    11    11    12   ar
    12    12    13   ar
    13    13    14   ar
    14    14    15    1
    15    15    16   ar
    16    16    17   ar
    17    17    18   ar
    18    18    19   ar
    19    19    20   ar
    20    15    20   ar
    21    14    21   ar
    22    10    21   ar
    23     8    22   ar
    24     4    22   ar
    25     3    23    1
    26     9    24    1
    27     5    25    1
    28     6    26    1
    29     7    27    1
    30    12    28    1
    31    13    29    1
    32    16    30    1
    33    17    31    1
    34    18    32    1
    35    20    33    1
    36    22    34    1
@<TRIPOS>MOLECULE
mol47_2_11
 34 36 0 0 0
SMALL
USER_CHARGES
****
VDW energy = -152.50
@<TRIPOS>ATOM
   1 O1        3.4420    -9.1855    -5.2979  O.2     1  <O>11      -0.2451
   2 C1        2.8552    -9.8129    -4.4288  C.2     1  <O>11       0.3369
   3 O2        3.5096   -10.1823    -3.3012  O.3     1  <O>11      -0.4771
   4 C2        1.4620   -10.1610    -4.6040  C.ar    1  <O>11       0.0606
   5 C3        0.8010    -9.7730    -5.7710  C.ar    1  <O>11      -0.0477
   6 C4       -0.5500   -10.0960    -5.9410  C.ar    1  <O>11      -0.0592
   7 C5       -1.2340   -10.8060    -4.9510  C.ar    1  <O>11      -0.0404
   8 C6       -0.5560   -11.1930    -3.7890  C.ar    1  <O>11       0.0344
   9 N1       -1.2660   -11.9260    -2.7720  N.pl3   1  <O>11      -0.2836
  10 C7       -1.9508   -11.2152    -1.7088  C.ar    1  <O>11       0.2200
  11 N2       -3.0136   -10.4358    -2.0181  N.ar    1  <O>11      -0.2226
  12 C8       -3.6333    -9.7861    -1.0155  C.ar    1  <O>11       0.0332
  13 C9       -3.2450    -9.8726     0.2977  C.ar    1  <O>11      -0.0174
  14 C10      -2.1610   -10.6803     0.5320  C.ar    1  <O>11       0.0775
  15 C11      -1.6787   -10.8391     1.8643  C.ar    1  <O>11       0.0186
  16 C12      -2.1654   -11.8503     2.6862  C.ar    1  <O>11      -0.0497
  17 C13      -1.6732   -11.9443     3.9946  C.ar    1  <O>11      -0.0430
  18 C14      -0.6969   -11.0498     4.4297  C.ar    1  <O>11       0.0276
  19 N3       -0.2176   -10.0836     3.6311  N.ar    1  <O>11      -0.2626
  20 C15      -0.7085    -9.9913     2.3775  C.ar    1  <O>11       0.0367
  21 N4       -1.5083   -11.3502    -0.4377  N.ar    1  <O>11      -0.2142
  22 C16       0.7910   -10.8780    -3.6110  C.ar    1  <O>11      -0.0265
  23 H1        2.9041   -10.6687    -2.7201  H       1  <O>11       0.2954
  24 H2       -1.2867   -12.9467    -2.7992  H       1  <O>11       0.1550
  25 H3        1.3059    -9.2509    -6.5042  H       1  <O>11       0.0626
  26 H4       -1.0429    -9.8087    -6.8009  H       1  <O>11       0.0618
  27 H5       -2.2307   -11.0431    -5.0753  H       1  <O>11       0.0636
  28 H6       -4.4439    -9.1908    -1.2468  H       1  <O>11       0.0831
  29 H7       -3.7328    -9.3672     1.0538  H       1  <O>11       0.0654
  30 H8       -2.8733   -12.5166     2.3398  H       1  <O>11       0.0625
  31 H9       -2.0316   -12.6719     4.6327  H       1  <O>11       0.0633
  32 H10      -0.3329   -11.1327     5.3918  H       1  <O>11       0.0829
  33 H11      -0.3406    -9.2466     1.7650  H       1  <O>11       0.0836
  34 H12       1.2865   -11.1716    -2.7547  H       1  <O>11       0.0644
@<TRIPOS>BOND
     1     1     2    2
     2     2     3    1
     3     2     4    1
     4     4     5   ar
     5     5     6   ar
     6     6     7   ar
     7     7     8   ar
     8     8     9    1
     9     9    10    1
    10    10    11   ar
    11    11    12   ar
    12    12    13   ar
    13    13    14   ar
    14    14    15    1
    15    15    16   ar
    16    16    17   ar
    17    17    18   ar
    18    18    19   ar
    19    19    20   ar
    20    15    20   ar
    21    14    21   ar
    22    10    21   ar
    23     8    22   ar
    24     4    22   ar
    25     3    23    1
    26     9    24    1
    27     5    25    1
    28     6    26    1
    29     7    27    1
    30    12    28    1
    31    13    29    1
    32    16    30    1
    33    17    31    1
    34    18    32    1
    35    20    33    1
    36    22    34    1
@<TRIPOS>MOLECULE
mol47_2_12
 34 36 0 0 0
SMALL
USER_CHARGES
****
VDW energy = -152.24
@<TRIPOS>ATOM
   1 O1        3.4420    -9.1855    -5.2979  O.2     1  <O>11      -0.2451
   2 C1        2.8552    -9.8129    -4.4288  C.2     1  <O>11       0.3369
   3 O2        3.5096   -10.1823    -3.3012  O.3     1  <O>11      -0.4771
   4 C2        1.4620   -10.1610    -4.6040  C.ar    1  <O>11       0.0606
   5 C3        0.8010    -9.7730    -5.7710  C.ar    1  <O>11      -0.0477
   6 C4       -0.5500   -10.0960    -5.9410  C.ar    1  <O>11      -0.0592
   7 C5       -1.2340   -10.8060    -4.9510  C.ar    1  <O>11      -0.0404
   8 C6       -0.5560   -11.1930    -3.7890  C.ar    1  <O>11       0.0344
   9 N1       -1.2660   -11.9260    -2.7720  N.pl3   1  <O>11      -0.2836
  10 C7       -1.9508   -11.2152    -1.7088  C.ar    1  <O>11       0.2200
  11 N2       -2.6114   -11.9246    -0.7638  N.ar    1  <O>11      -0.2226
  12 C8       -3.2392   -11.2440     0.2130  C.ar    1  <O>11       0.0332
  13 C9       -3.2440    -9.8746     0.2996  C.ar    1  <O>11      -0.0174
  14 C10      -2.5543    -9.2262    -0.6934  C.ar    1  <O>11       0.0775
  15 C11      -2.4971    -7.8015    -0.6935  C.ar    1  <O>11       0.0186
  16 C12      -2.9942    -7.0651    -1.7638  C.ar    1  <O>11      -0.0497
  17 C13      -2.8895    -5.6686    -1.7212  C.ar    1  <O>11      -0.0430
  18 C14      -2.3214    -5.0536    -0.6069  C.ar    1  <O>11       0.0276
  19 N3       -1.8552    -5.7646     0.4315  N.ar    1  <O>11      -0.2626
  20 C15      -1.9466    -7.1097     0.3750  C.ar    1  <O>11       0.0367
  21 N4       -1.9110    -9.8633    -1.6911  N.ar    1  <O>11      -0.2142
  22 C16       0.7910   -10.8780    -3.6110  C.ar    1  <O>11      -0.0265
  23 H1        2.9041   -10.6687    -2.7201  H       1  <O>11       0.2954
  24 H2       -1.2867   -12.9467    -2.7992  H       1  <O>11       0.1550
  25 H3        1.3059    -9.2509    -6.5042  H       1  <O>11       0.0626
  26 H4       -1.0429    -9.8087    -6.8009  H       1  <O>11       0.0618
  27 H5       -2.2307   -11.0431    -5.0753  H       1  <O>11       0.0636
  28 H6       -3.7440   -11.7808     0.9354  H       1  <O>11       0.0831
  29 H7       -3.7309    -9.3694     1.0565  H       1  <O>11       0.0654
  30 H8       -3.4305    -7.5369    -2.5713  H       1  <O>11       0.0625
  31 H9       -3.2312    -5.0984    -2.5106  H       1  <O>11       0.0633
  32 H10      -2.2574    -4.0240    -0.5797  H       1  <O>11       0.0829
  33 H11      -1.5859    -7.6554     1.1732  H       1  <O>11       0.0836
  34 H12       1.2865   -11.1716    -2.7547  H       1  <O>11       0.0644
@<TRIPOS>BOND
     1     1     2    2
     2     2     3    1
     3     2     4    1
     4     4     5   ar
     5     5     6   ar
     6     6     7   ar
     7     7     8   ar
     8     8     9    1
     9     9    10    1
    10    10    11   ar
    11    11    12   ar
    12    12    13   ar
    13    13    14   ar
    14    14    15    1
    15    15    16   ar
    16    16    17   ar
    17    17    18   ar
    18    18    19   ar
    19    19    20   ar
    20    15    20   ar
    21    14    21   ar
    22    10    21   ar
    23     8    22   ar
    24     4    22   ar
    25     3    23    1
    26     9    24    1
    27     5    25    1
    28     6    26    1
    29     7    27    1
    30    12    28    1
    31    13    29    1
    32    16    30    1
    33    17    31    1
    34    18    32    1
    35    20    33    1
    36    22    34    1
@<TRIPOS>MOLECULE
mol47_2_13
 34 36 0 0 0
SMALL
USER_CHARGES
****
VDW energy = -149.62
@<TRIPOS>ATOM
   1 O1        3.4420    -9.1855    -5.2979  O.2     1  <O>11      -0.2451
   2 C1        2.8552    -9.8129    -4.4288  C.2     1  <O>11       0.3369
   3 O2        3.5096   -10.1823    -3.3012  O.3     1  <O>11      -0.4771
   4 C2        1.4620   -10.1610    -4.6040  C.ar    1  <O>11       0.0606
   5 C3        0.8010    -9.7730    -5.7710  C.ar    1  <O>11      -0.0477
   6 C4       -0.5500   -10.0960    -5.9410  C.ar    1  <O>11      -0.0592
   7 C5       -1.2340   -10.8060    -4.9510  C.ar    1  <O>11      -0.0404
   8 C6       -0.5560   -11.1930    -3.7890  C.ar    1  <O>11       0.0344
   9 N1       -1.2660   -11.9260    -2.7720  N.pl3   1  <O>11      -0.2836
  10 C7       -0.5810   -12.3370    -1.5610  C.ar    1  <O>11       0.2200
  11 N2        0.0364   -13.5414    -1.5321  N.ar    1  <O>11      -0.2226
  12 C8        0.6656   -13.9015    -0.3982  C.ar    1  <O>11       0.0332
  13 C9        0.7131   -13.1144     0.7247  C.ar    1  <O>11      -0.0174
  14 C10       0.0645   -11.9100     0.6190  C.ar    1  <O>11       0.0775
  15 C11       0.0561   -11.0171     1.7306  C.ar    1  <O>11       0.0186
  16 C12       1.0567   -10.0643     1.8912  C.ar    1  <O>11      -0.0497
  17 C13       1.0114    -9.2295     3.0155  C.ar    1  <O>11      -0.0430
  18 C14      -0.0392    -9.3519     3.9232  C.ar    1  <O>11       0.0276
  19 N3       -1.0119   -10.2620     3.7594  N.ar    1  <O>11      -0.2626
  20 C15      -0.9518   -11.0718     2.6817  C.ar    1  <O>11       0.0367
  21 N4       -0.5786   -11.5059    -0.4938  N.ar    1  <O>11      -0.2142
  22 C16       0.7910   -10.8780    -3.6110  C.ar    1  <O>11      -0.0265
  23 H1        2.9041   -10.6687    -2.7201  H       1  <O>11       0.2954
  24 H2       -2.2520   -12.1570    -2.9040  H       1  <O>11       0.1550
  25 H3        1.3059    -9.2509    -6.5042  H       1  <O>11       0.0626
  26 H4       -1.0429    -9.8087    -6.8009  H       1  <O>11       0.0618
  27 H5       -2.2307   -11.0431    -5.0753  H       1  <O>11       0.0636
  28 H6        1.1376   -14.8188    -0.3719  H       1  <O>11       0.0831
  29 H7        1.2009   -13.4070     1.5858  H       1  <O>11       0.0654
  30 H8        1.8156    -9.9744     1.1976  H       1  <O>11       0.0625
  31 H9        1.7520    -8.5276     3.1706  H       1  <O>11       0.0633
  32 H10      -0.0698    -8.7261     4.7431  H       1  <O>11       0.0829
  33 H11      -1.6992   -11.7726     2.5580  H       1  <O>11       0.0836
  34 H12       1.2865   -11.1716    -2.7547  H       1  <O>11       0.0644
@<TRIPOS>BOND
     1     1     2    2
     2     2     3    1
     3     2     4    1
     4     4     5   ar
     5     5     6   ar
     6     6     7   ar
     7     7     8   ar
     8     8     9    1
     9     9    10    1
    10    10    11   ar
    11    11    12   ar
    12    12    13   ar
    13    13    14   ar
    14    14    15    1
    15    15    16   ar
    16    16    17   ar
    17    17    18   ar
    18    18    19   ar
    19    19    20   ar
    20    15    20   ar
    21    14    21   ar
    22    10    21   ar
    23     8    22   ar
    24     4    22   ar
    25     3    23    1
    26     9    24    1
    27     5    25    1
    28     6    26    1
    29     7    27    1
    30    12    28    1
    31    13    29    1
    32    16    30    1
    33    17    31    1
    34    18    32    1
    35    20    33    1
    36    22    34    1
@<TRIPOS>MOLECULE
mol47_2_14
 34 36 0 0 0
SMALL
USER_CHARGES
****
VDW energy = -149.47
@<TRIPOS>ATOM
   1 O1        3.4420    -9.1855    -5.2979  O.2     1  <O>11      -0.2451
   2 C1        2.8552    -9.8129    -4.4288  C.2     1  <O>11       0.3369
   3 O2        3.5096   -10.1823    -3.3012  O.3     1  <O>11      -0.4771
   4 C2        1.4620   -10.1610    -4.6040  C.ar    1  <O>11       0.0606
   5 C3        0.8010    -9.7730    -5.7710  C.ar    1  <O>11      -0.0477
   6 C4       -0.5500   -10.0960    -5.9410  C.ar    1  <O>11      -0.0592
   7 C5       -1.2340   -10.8060    -4.9510  C.ar    1  <O>11      -0.0404
   8 C6       -0.5560   -11.1930    -3.7890  C.ar    1  <O>11       0.0344
   9 N1       -1.2660   -11.9260    -2.7720  N.pl3   1  <O>11      -0.2836
  10 C7       -0.5810   -12.3370    -1.5610  C.ar    1  <O>11       0.2200
  11 N2       -0.5781   -11.5048    -0.4933  N.ar    1  <O>11      -0.2226
  12 C8        0.0634   -11.9071     0.6193  C.ar    1  <O>11       0.0332
  13 C9        0.7117   -13.1117     0.7264  C.ar    1  <O>11      -0.0174
  14 C10       0.6655   -13.8992    -0.3961  C.ar    1  <O>11       0.0775
  15 C11       1.3076   -15.1723    -0.3875  C.ar    1  <O>11       0.0186
  16 C12       0.6249   -16.3158     0.0138  C.ar    1  <O>11      -0.0497
  17 C13       1.3128   -17.5362     0.0257  C.ar    1  <O>11      -0.0430
  18 C14       2.6432   -17.5817    -0.3872  C.ar    1  <O>11       0.0276
  19 N3        3.2966   -16.4801    -0.7880  N.ar    1  <O>11      -0.2626
  20 C15       2.6304   -15.3065    -0.7818  C.ar    1  <O>11       0.0367
  21 N4        0.0365   -13.5401    -1.5321  N.ar    1  <O>11      -0.2142
  22 C16       0.7910   -10.8780    -3.6110  C.ar    1  <O>11      -0.0265
  23 H1        2.9041   -10.6687    -2.7201  H       1  <O>11       0.2954
  24 H2       -2.2520   -12.1570    -2.9040  H       1  <O>11       0.1550
  25 H3        1.3059    -9.2509    -6.5042  H       1  <O>11       0.0626
  26 H4       -1.0429    -9.8087    -6.8009  H       1  <O>11       0.0618
  27 H5       -2.2307   -11.0431    -5.0753  H       1  <O>11       0.0636
  28 H6        0.0680   -11.2758     1.4356  H       1  <O>11       0.0831
  29 H7        1.1984   -13.4038     1.5882  H       1  <O>11       0.0654
  30 H8       -0.3665   -16.2663     0.2965  H       1  <O>11       0.0625
  31 H9        0.8370   -18.3969     0.3386  H       1  <O>11       0.0633
  32 H10       3.1391   -18.4867    -0.3847  H       1  <O>11       0.0829
  33 H11       3.1346   -14.4598    -1.0882  H       1  <O>11       0.0836
  34 H12       1.2865   -11.1716    -2.7547  H       1  <O>11       0.0644
@<TRIPOS>BOND
     1     1     2    2
     2     2     3    1
     3     2     4    1
     4     4     5   ar
     5     5     6   ar
     6     6     7   ar
     7     7     8   ar
     8     8     9    1
     9     9    10    1
    10    10    11   ar
    11    11    12   ar
    12    12    13   ar
    13    13    14   ar
    14    14    15    1
    15    15    16   ar
    16    16    17   ar
    17    17    18   ar
    18    18    19   ar
    19    19    20   ar
    20    15    20   ar
    21    14    21   ar
    22    10    21   ar
    23     8    22   ar
    24     4    22   ar
    25     3    23    1
    26     9    24    1
    27     5    25    1
    28     6    26    1
    29     7    27    1
    30    12    28    1
    31    13    29    1
    32    16    30    1
    33    17    31    1
    34    18    32    1
    35    20    33    1
    36    22    34    1
@<TRIPOS>MOLECULE
mol47_2_15
 34 36 0 0 0
SMALL
USER_CHARGES
****
VDW energy = -149.09
@<TRIPOS>ATOM
   1 O1        3.4420    -9.1855    -5.2979  O.2     1  <O>11      -0.2451
   2 C1        2.8552    -9.8129    -4.4288  C.2     1  <O>11       0.3369
   3 O2        3.5096   -10.1823    -3.3012  O.3     1  <O>11      -0.4771
   4 C2        1.4620   -10.1610    -4.6040  C.ar    1  <O>11       0.0606
   5 C3        0.8010    -9.7730    -5.7710  C.ar    1  <O>11      -0.0477
   6 C4       -0.5500   -10.0960    -5.9410  C.ar    1  <O>11      -0.0592
   7 C5       -1.2340   -10.8060    -4.9510  C.ar    1  <O>11      -0.0404
   8 C6       -0.5560   -11.1930    -3.7890  C.ar    1  <O>11       0.0344
   9 N1       -1.2660   -11.9260    -2.7720  N.pl3   1  <O>11      -0.2836
  10 C7       -0.5810   -12.3370    -1.5610  C.ar    1  <O>11       0.2200
  11 N2       -0.1424   -11.3886    -0.7003  N.ar    1  <O>11      -0.2226
  12 C8        0.4902   -11.7932     0.4165  C.ar    1  <O>11       0.0332
  13 C9        0.7123   -13.1114     0.7261  C.ar    1  <O>11      -0.0174
  14 C10       0.2398   -14.0129    -0.1939  C.ar    1  <O>11       0.0775
  15 C11       0.4187   -15.4088     0.0350  C.ar    1  <O>11       0.0186
  16 C12      -0.5347   -16.1489     0.7264  C.ar    1  <O>11      -0.0497
  17 C13      -0.2952   -17.5122     0.9435  C.ar    1  <O>11      -0.0430
  18 C14       0.8670   -18.0962     0.4429  C.ar    1  <O>11       0.0276
  19 N3        1.7794   -17.3841    -0.2366  N.ar    1  <O>11      -0.2626
  20 C15       1.5474   -16.0685    -0.4278  C.ar    1  <O>11       0.0367
  21 N4       -0.3988   -13.6564    -1.3254  N.ar    1  <O>11      -0.2142
  22 C16       0.7910   -10.8780    -3.6110  C.ar    1  <O>11      -0.0265
  23 H1        2.9041   -10.6687    -2.7201  H       1  <O>11       0.2954
  24 H2       -2.2520   -12.1570    -2.9040  H       1  <O>11       0.1550
  25 H3        1.3059    -9.2509    -6.5042  H       1  <O>11       0.0626
  26 H4       -1.0429    -9.8087    -6.8009  H       1  <O>11       0.0618
  27 H5       -2.2307   -11.0431    -5.0753  H       1  <O>11       0.0636
  28 H6        0.8262   -11.0735     1.0754  H       1  <O>11       0.0831
  29 H7        1.1992   -13.4033     1.5880  H       1  <O>11       0.0654
  30 H8       -1.3994   -15.7037     1.0717  H       1  <O>11       0.0625
  31 H9       -0.9758   -18.0808     1.4713  H       1  <O>11       0.0633
  32 H10       1.0304   -19.1031     0.5989  H       1  <O>11       0.0829
  33 H11       2.2507   -15.5216    -0.9486  H       1  <O>11       0.0836
  34 H12       1.2865   -11.1716    -2.7547  H       1  <O>11       0.0644
@<TRIPOS>BOND
     1     1     2    2
     2     2     3    1
     3     2     4    1
     4     4     5   ar
     5     5     6   ar
     6     6     7   ar
     7     7     8   ar
     8     8     9    1
     9     9    10    1
    10    10    11   ar
    11    11    12   ar
    12    12    13   ar
    13    13    14   ar
    14    14    15    1
    15    15    16   ar
    16    16    17   ar
    17    17    18   ar
    18    18    19   ar
    19    19    20   ar
    20    15    20   ar
    21    14    21   ar
    22    10    21   ar
    23     8    22   ar
    24     4    22   ar
    25     3    23    1
    26     9    24    1
    27     5    25    1
    28     6    26    1
    29     7    27    1
    30    12    28    1
    31    13    29    1
    32    16    30    1
    33    17    31    1
    34    18    32    1
    35    20    33    1
    36    22    34    1
@<TRIPOS>MOLECULE
mol47_2_16
 34 36 0 0 0
SMALL
USER_CHARGES
****
VDW energy = -147.33
@<TRIPOS>ATOM
   1 O1        3.4420    -9.1855    -5.2979  O.2     1  <O>11      -0.2451
   2 C1        2.8552    -9.8129    -4.4288  C.2     1  <O>11       0.3369
   3 O2        3.5096   -10.1823    -3.3012  O.3     1  <O>11      -0.4771
   4 C2        1.4620   -10.1610    -4.6040  C.ar    1  <O>11       0.0606
   5 C3        0.4750    -9.2817    -4.1546  C.ar    1  <O>11      -0.0477
   6 C4       -0.8745    -9.6183    -4.3101  C.ar    1  <O>11      -0.0592
   7 C5       -1.2337   -10.8255    -4.9148  C.ar    1  <O>11      -0.0404
   8 C6       -0.2326   -11.6941    -5.3653  C.ar    1  <O>11       0.0344
   9 N1       -0.6088   -12.9371    -5.9892  N.pl3   1  <O>11      -0.2836
  10 C7        0.4136   -13.8503    -6.4637  C.ar    1  <O>11       0.2200
  11 N2        0.8635   -13.7297    -7.7348  N.ar    1  <O>11      -0.2226
  12 C8        1.8122   -14.5877    -8.1530  C.ar    1  <O>11       0.0332
  13 C9        2.3444   -15.5738    -7.3610  C.ar    1  <O>11      -0.0174
  14 C10       1.8382   -15.6336    -6.0872  C.ar    1  <O>11       0.0775
  15 C11       2.3261   -16.6227    -5.1836  C.ar    1  <O>11       0.0186
  16 C12       3.1995   -17.6165    -5.6132  C.ar    1  <O>11      -0.0497
  17 C13       3.6277   -18.5770    -4.6874  C.ar    1  <O>11      -0.0430
  18 C14       3.1960   -18.4999    -3.3644  C.ar    1  <O>11       0.0276
  19 N3        2.3647   -17.5321    -2.9478  N.ar    1  <O>11      -0.2626
  20 C15       1.9456   -16.6202    -3.8499  C.ar    1  <O>11       0.0367
  21 N4        0.8890   -14.7977    -5.6233  N.ar    1  <O>11      -0.2142
  22 C16       1.1151   -11.3668    -5.2172  C.ar    1  <O>11      -0.0265
  23 H1        2.9041   -10.6687    -2.7201  H       1  <O>11       0.2954
  24 H2       -1.5960   -13.1750    -6.0980  H       1  <O>11       0.1550
  25 H3        0.7391    -8.3884    -3.7103  H       1  <O>11       0.0626
  26 H4       -1.6070    -8.9723    -3.9769  H       1  <O>11       0.0618
  27 H5       -2.2287   -11.0748    -5.0282  H       1  <O>11       0.0636
  28 H6        2.1581   -14.4993    -9.1213  H       1  <O>11       0.0831
  29 H7        3.0721   -16.2230    -7.6988  H       1  <O>11       0.0654
  30 H8        3.5250   -17.6455    -6.5921  H       1  <O>11       0.0625
  31 H9        4.2592   -19.3376    -4.9835  H       1  <O>11       0.0633
  32 H10       3.5243   -19.2058    -2.6871  H       1  <O>11       0.0829
  33 H11       1.3048   -15.8778    -3.5288  H       1  <O>11       0.0836
  34 H12       1.8481   -12.0089    -5.5570  H       1  <O>11       0.0644
@<TRIPOS>BOND
     1     1     2    2
     2     2     3    1
     3     2     4    1
     4     4     5   ar
     5     5     6   ar
     6     6     7   ar
     7     7     8   ar
     8     8     9    1
     9     9    10    1
    10    10    11   ar
    11    11    12   ar
    12    12    13   ar
    13    13    14   ar
    14    14    15    1
    15    15    16   ar
    16    16    17   ar
    17    17    18   ar
    18    18    19   ar
    19    19    20   ar
    20    15    20   ar
    21    14    21   ar
    22    10    21   ar
    23     8    22   ar
    24     4    22   ar
    25     3    23    1
    26     9    24    1
    27     5    25    1
    28     6    26    1
    29     7    27    1
    30    12    28    1
    31    13    29    1
    32    16    30    1
    33    17    31    1
    34    18    32    1
    35    20    33    1
    36    22    34    1
@<TRIPOS>MOLECULE
mol47_2_17
 34 36 0 0 0
SMALL
USER_CHARGES
****
VDW energy = -147.23
@<TRIPOS>ATOM
   1 O1        3.4420    -9.1855    -5.2979  O.2     1  <O>11      -0.2451
   2 C1        2.8552    -9.8129    -4.4288  C.2     1  <O>11       0.3369
   3 O2        3.5096   -10.1823    -3.3012  O.3     1  <O>11      -0.4771
   4 C2        1.4620   -10.1610    -4.6040  C.ar    1  <O>11       0.0606
   5 C3        0.8010    -9.7730    -5.7710  C.ar    1  <O>11      -0.0477
   6 C4       -0.5500   -10.0960    -5.9410  C.ar    1  <O>11      -0.0592
   7 C5       -1.2340   -10.8060    -4.9510  C.ar    1  <O>11      -0.0404
   8 C6       -0.5560   -11.1930    -3.7890  C.ar    1  <O>11       0.0344
   9 N1       -1.2660   -11.9260    -2.7720  N.pl3   1  <O>11      -0.2836
  10 C7       -0.5810   -12.3370    -1.5610  C.ar    1  <O>11       0.2200
  11 N2       -0.1424   -11.3886    -0.7003  N.ar    1  <O>11      -0.2226
  12 C8        0.4902   -11.7932     0.4165  C.ar    1  <O>11       0.0332
  13 C9        0.7123   -13.1114     0.7261  C.ar    1  <O>11      -0.0174
  14 C10       0.2398   -14.0129    -0.1939  C.ar    1  <O>11       0.0775
  15 C11       0.4187   -15.4088     0.0350  C.ar    1  <O>11       0.0186
  16 C12      -0.6740   -16.2635     0.1360  C.ar    1  <O>11      -0.0497
  17 C13      -0.4399   -17.6221     0.3859  C.ar    1  <O>11      -0.0430
  18 C14       0.8693   -18.0868     0.4983  C.ar    1  <O>11       0.0276
  19 N3        1.9232   -17.2635     0.3863  N.ar    1  <O>11      -0.2626
  20 C15       1.6876   -15.9541     0.1607  C.ar    1  <O>11       0.0367
  21 N4       -0.3988   -13.6564    -1.3254  N.ar    1  <O>11      -0.2142
  22 C16       0.7910   -10.8780    -3.6110  C.ar    1  <O>11      -0.0265
  23 H1        2.9041   -10.6687    -2.7201  H       1  <O>11       0.2954
  24 H2       -2.2520   -12.1570    -2.9040  H       1  <O>11       0.1550
  25 H3        1.3059    -9.2509    -6.5042  H       1  <O>11       0.0626
  26 H4       -1.0429    -9.8087    -6.8009  H       1  <O>11       0.0618
  27 H5       -2.2307   -11.0431    -5.0753  H       1  <O>11       0.0636
  28 H6        0.8262   -11.0735     1.0754  H       1  <O>11       0.0831
  29 H7        1.1992   -13.4033     1.5880  H       1  <O>11       0.0654
  30 H8       -1.6358   -15.9049     0.0292  H       1  <O>11       0.0625
  31 H9       -1.2327   -18.2753     0.4861  H       1  <O>11       0.0633
  32 H10       1.0325   -19.0908     0.6724  H       1  <O>11       0.0829
  33 H11       2.4989   -15.3217     0.0768  H       1  <O>11       0.0836
  34 H12       1.2865   -11.1716    -2.7547  H       1  <O>11       0.0644
@<TRIPOS>BOND
     1     1     2    2
     2     2     3    1
     3     2     4    1
     4     4     5   ar
     5     5     6   ar
     6     6     7   ar
     7     7     8   ar
     8     8     9    1
     9     9    10    1
    10    10    11   ar
    11    11    12   ar
    12    12    13   ar
    13    13    14   ar
    14    14    15    1
    15    15    16   ar
    16    16    17   ar
    17    17    18   ar
    18    18    19   ar
    19    19    20   ar
    20    15    20   ar
    21    14    21   ar
    22    10    21   ar
    23     8    22   ar
    24     4    22   ar
    25     3    23    1
    26     9    24    1
    27     5    25    1
    28     6    26    1
    29     7    27    1
    30    12    28    1
    31    13    29    1
    32    16    30    1
    33    17    31    1
    34    18    32    1
    35    20    33    1
    36    22    34    1
@<TRIPOS>MOLECULE
mol47_2_18
 34 36 0 0 0
SMALL
USER_CHARGES
****
VDW energy = -145.86
@<TRIPOS>ATOM
   1 O1        3.4420    -9.1855    -5.2979  O.2     1  <O>11      -0.2451
   2 C1        2.8552    -9.8129    -4.4288  C.2     1  <O>11       0.3369
   3 O2        3.5096   -10.1823    -3.3012  O.3     1  <O>11      -0.4771
   4 C2        1.4620   -10.1610    -4.6040  C.ar    1  <O>11       0.0606
   5 C3        0.5946   -10.0837    -3.5126  C.ar    1  <O>11      -0.0477
   6 C4       -0.7516   -10.4309    -3.6727  C.ar    1  <O>11      -0.0592
   7 C5       -1.2274   -10.8492    -4.9180  C.ar    1  <O>11      -0.0404
   8 C6       -0.3466   -10.9160    -6.0041  C.ar    1  <O>11       0.0344
   9 N1       -0.8430   -11.3468    -7.2862  N.pl3   1  <O>11      -0.2836
  10 C7       -0.8206   -12.7540    -7.6382  C.ar    1  <O>11       0.2200
  11 N2       -1.5991   -13.6172    -6.9443  N.ar    1  <O>11      -0.2226
  12 C8       -1.5622   -14.9177    -7.2886  C.ar    1  <O>11       0.0332
  13 C9       -0.7797   -15.4113    -8.3019  C.ar    1  <O>11      -0.0174
  14 C10      -0.0190   -14.4767    -8.9578  C.ar    1  <O>11       0.0775
  15 C11       0.8283   -14.8870   -10.0286  C.ar    1  <O>11       0.0186
  16 C12       1.0058   -16.2344   -10.3251  C.ar    1  <O>11      -0.0497
  17 C13       1.8693   -16.5809   -11.3726  C.ar    1  <O>11      -0.0430
  18 C14       2.5024   -15.5779   -12.1045  C.ar    1  <O>11       0.0276
  19 N3        2.3191   -14.2778   -11.8267  N.ar    1  <O>11      -0.2626
  20 C15       1.4974   -13.9540   -10.8064  C.ar    1  <O>11       0.0367
  21 N4       -0.0221   -13.1651    -8.6496  N.ar    1  <O>11      -0.2142
  22 C16       0.9963   -10.5699    -5.8555  C.ar    1  <O>11      -0.0265
  23 H1        2.9041   -10.6687    -2.7201  H       1  <O>11       0.2954
  24 H2       -1.2103   -10.6610    -7.9478  H       1  <O>11       0.1550
  25 H3        0.9443    -9.7723    -2.5929  H       1  <O>11       0.0626
  26 H4       -1.3953   -10.3778    -2.8679  H       1  <O>11       0.0618
  27 H5       -2.2197   -11.1068    -5.0362  H       1  <O>11       0.0636
  28 H6       -2.1542   -15.5792    -6.7623  H       1  <O>11       0.0831
  29 H7       -0.7645   -16.4124    -8.5523  H       1  <O>11       0.0654
  30 H8        0.5123   -16.9627    -9.7855  H       1  <O>11       0.0625
  31 H9        2.0356   -17.5735   -11.6010  H       1  <O>11       0.0633
  32 H10       3.1289   -15.8421   -12.8808  H       1  <O>11       0.0829
  33 H11       1.3590   -12.9540   -10.5924  H       1  <O>11       0.0836
  34 H12       1.6389   -10.6156    -6.6617  H       1  <O>11       0.0644
@<TRIPOS>BOND
     1     1     2    2
     2     2     3    1
     3     2     4    1
     4     4     5   ar
     5     5     6   ar
     6     6     7   ar
     7     7     8   ar
     8     8     9    1
     9     9    10    1
    10    10    11   ar
    11    11    12   ar
    12    12    13   ar
    13    13    14   ar
    14    14    15    1
    15    15    16   ar
    16    16    17   ar
    17    17    18   ar
    18    18    19   ar
    19    19    20   ar
    20    15    20   ar
    21    14    21   ar
    22    10    21   ar
    23     8    22   ar
    24     4    22   ar
    25     3    23    1
    26     9    24    1
    27     5    25    1
    28     6    26    1
    29     7    27    1
    30    12    28    1
    31    13    29    1
    32    16    30    1
    33    17    31    1
    34    18    32    1
    35    20    33    1
    36    22    34    1
@<TRIPOS>MOLECULE
mol47_2_19
 34 36 0 0 0
SMALL
USER_CHARGES
****
VDW energy = -145.73
@<TRIPOS>ATOM
   1 O1        3.4420    -9.1855    -5.2979  O.2     1  <O>11      -0.2451
   2 C1        2.8552    -9.8129    -4.4288  C.2     1  <O>11       0.3369
   3 O2        3.5096   -10.1823    -3.3012  O.3     1  <O>11      -0.4771
   4 C2        1.4620   -10.1610    -4.6040  C.ar    1  <O>11       0.0606
   5 C3        0.5946   -10.0837    -3.5126  C.ar    1  <O>11      -0.0477
   6 C4       -0.7516   -10.4309    -3.6727  C.ar    1  <O>11      -0.0592
   7 C5       -1.2274   -10.8492    -4.9180  C.ar    1  <O>11      -0.0404
   8 C6       -0.3466   -10.9160    -6.0041  C.ar    1  <O>11       0.0344
   9 N1       -0.8430   -11.3468    -7.2862  N.pl3   1  <O>11      -0.2836
  10 C7       -0.8206   -12.7540    -7.6382  C.ar    1  <O>11       0.2200
  11 N2        0.2706   -13.2581    -8.2610  N.ar    1  <O>11      -0.2226
  12 C8        0.2691   -14.5660    -8.5778  C.ar    1  <O>11       0.0332
  13 C9       -0.7767   -15.4109    -8.3034  C.ar    1  <O>11      -0.0174
  14 C10      -1.8460   -14.8274    -7.6722  C.ar    1  <O>11       0.0775
  15 C11      -2.9840   -15.6201    -7.3412  C.ar    1  <O>11       0.0186
  16 C12      -3.0889   -16.9379    -7.7739  C.ar    1  <O>11      -0.0497
  17 C13      -4.2408   -17.6621    -7.4397  C.ar    1  <O>11      -0.0430
  18 C14      -5.2323   -17.0618    -6.6657  C.ar    1  <O>11       0.0276
  19 N3       -5.1232   -15.7948    -6.2366  N.ar    1  <O>11      -0.2626
  20 C15      -4.0172   -15.1001    -6.5761  C.ar    1  <O>11       0.0367
  21 N4       -1.8909   -13.5237    -7.3353  N.ar    1  <O>11      -0.2142
  22 C16       0.9963   -10.5699    -5.8555  C.ar    1  <O>11      -0.0265
  23 H1        2.9041   -10.6687    -2.7201  H       1  <O>11       0.2954
  24 H2       -1.2103   -10.6610    -7.9478  H       1  <O>11       0.1550
  25 H3        0.9443    -9.7723    -2.5929  H       1  <O>11       0.0626
  26 H4       -1.3953   -10.3778    -2.8679  H       1  <O>11       0.0618
  27 H5       -2.2197   -11.1068    -5.0362  H       1  <O>11       0.0636
  28 H6        1.0990   -14.9544    -9.0525  H       1  <O>11       0.0831
  29 H7       -0.7601   -16.4120    -8.5536  H       1  <O>11       0.0654
  30 H8       -2.3351   -17.3724    -8.3287  H       1  <O>11       0.0625
  31 H9       -4.3544   -18.6350    -7.7649  H       1  <O>11       0.0633
  32 H10      -6.0727   -17.6060    -6.4158  H       1  <O>11       0.0829
  33 H11      -3.9356   -14.1253    -6.2473  H       1  <O>11       0.0836
  34 H12       1.6389   -10.6156    -6.6617  H       1  <O>11       0.0644
@<TRIPOS>BOND
     1     1     2    2
     2     2     3    1
     3     2     4    1
     4     4     5   ar
     5     5     6   ar
     6     6     7   ar
     7     7     8   ar
     8     8     9    1
     9     9    10    1
    10    10    11   ar
    11    11    12   ar
    12    12    13   ar
    13    13    14   ar
    14    14    15    1
    15    15    16   ar
    16    16    17   ar
    17    17    18   ar
    18    18    19   ar
    19    19    20   ar
    20    15    20   ar
    21    14    21   ar
    22    10    21   ar
    23     8    22   ar
    24     4    22   ar
    25     3    23    1
    26     9    24    1
    27     5    25    1
    28     6    26    1
    29     7    27    1
    30    12    28    1
    31    13    29    1
    32    16    30    1
    33    17    31    1
    34    18    32    1
    35    20    33    1
    36    22    34    1
@<TRIPOS>MOLECULE
mol47_2_20
 34 36 0 0 0
SMALL
USER_CHARGES
****
VDW energy = -143.64
@<TRIPOS>ATOM
   1 O1        3.4420    -9.1855    -5.2979  O.2     1  <O>11      -0.2451
   2 C1        2.8552    -9.8129    -4.4288  C.2     1  <O>11       0.3369
   3 O2        3.5096   -10.1823    -3.3012  O.3     1  <O>11      -0.4771
   4 C2        1.4620   -10.1610    -4.6040  C.ar    1  <O>11       0.0606
   5 C3        0.8010    -9.7730    -5.7710  C.ar    1  <O>11      -0.0477
   6 C4       -0.5500   -10.0960    -5.9410  C.ar    1  <O>11      -0.0592
   7 C5       -1.2340   -10.8060    -4.9510  C.ar    1  <O>11      -0.0404
   8 C6       -0.5560   -11.1930    -3.7890  C.ar    1  <O>11       0.0344
   9 N1       -1.2660   -11.9260    -2.7720  N.pl3   1  <O>11      -0.2836
  10 C7       -1.9508   -11.2152    -1.7088  C.ar    1  <O>11       0.2200
  11 N2       -2.6114   -11.9246    -0.7638  N.ar    1  <O>11      -0.2226
  12 C8       -3.2392   -11.2440     0.2130  C.ar    1  <O>11       0.0332
  13 C9       -3.2440    -9.8746     0.2996  C.ar    1  <O>11      -0.0174
  14 C10      -2.5543    -9.2262    -0.6934  C.ar    1  <O>11       0.0775
  15 C11      -2.4971    -7.8015    -0.6935  C.ar    1  <O>11       0.0186
  16 C12      -3.2456    -7.0549     0.2105  C.ar    1  <O>11      -0.0497
  17 C13      -3.1694    -5.6573     0.1489  C.ar    1  <O>11      -0.0430
  18 C14      -2.3327    -5.0531    -0.7879  C.ar    1  <O>11       0.0276
  19 N3       -1.6000    -5.7749    -1.6500  N.ar    1  <O>11      -0.2626
  20 C15      -1.6914    -7.1201    -1.5934  C.ar    1  <O>11       0.0367
  21 N4       -1.9110    -9.8633    -1.6911  N.ar    1  <O>11      -0.2142
  22 C16       0.7910   -10.8780    -3.6110  C.ar    1  <O>11      -0.0265
  23 H1        2.9041   -10.6687    -2.7201  H       1  <O>11       0.2954
  24 H2       -1.2867   -12.9467    -2.7992  H       1  <O>11       0.1550
  25 H3        1.3059    -9.2509    -6.5042  H       1  <O>11       0.0626
  26 H4       -1.0429    -9.8087    -6.8009  H       1  <O>11       0.0618
  27 H5       -2.2307   -11.0431    -5.0753  H       1  <O>11       0.0636
  28 H6       -3.7440   -11.7808     0.9354  H       1  <O>11       0.0831
  29 H7       -3.7309    -9.3694     1.0565  H       1  <O>11       0.0654
  30 H8       -3.8438    -7.5202     0.9110  H       1  <O>11       0.0625
  31 H9       -3.7297    -5.0782     0.7937  H       1  <O>11       0.0633
  32 H10      -2.2752    -4.0233    -0.8195  H       1  <O>11       0.0829
  33 H11      -1.1290    -7.6739    -2.2582  H       1  <O>11       0.0836
  34 H12       1.2865   -11.1716    -2.7547  H       1  <O>11       0.0644
@<TRIPOS>BOND
     1     1     2    2
     2     2     3    1
     3     2     4    1
     4     4     5   ar
     5     5     6   ar
     6     6     7   ar
     7     7     8   ar
     8     8     9    1
     9     9    10    1
    10    10    11   ar
    11    11    12   ar
    12    12    13   ar
    13    13    14   ar
    14    14    15    1
    15    15    16   ar
    16    16    17   ar
    17    17    18   ar
    18    18    19   ar
    19    19    20   ar
    20    15    20   ar
    21    14    21   ar
    22    10    21   ar
    23     8    22   ar
    24     4    22   ar
    25     3    23    1
    26     9    24    1
    27     5    25    1
    28     6    26    1
    29     7    27    1
    30    12    28    1
    31    13    29    1
    32    16    30    1
    33    17    31    1
    34    18    32    1
    35    20    33    1
    36    22    34    1
@<TRIPOS>MOLECULE
mol47_2_21
 34 36 0 0 0
SMALL
USER_CHARGES
****
VDW energy = -143.61
@<TRIPOS>ATOM
   1 O1        3.4420    -9.1855    -5.2979  O.2     1  <O>11      -0.2451
   2 C1        2.8552    -9.8129    -4.4288  C.2     1  <O>11       0.3369
   3 O2        3.5096   -10.1823    -3.3012  O.3     1  <O>11      -0.4771
   4 C2        1.4620   -10.1610    -4.6040  C.ar    1  <O>11       0.0606
   5 C3        0.8010    -9.7730    -5.7710  C.ar    1  <O>11      -0.0477
   6 C4       -0.5500   -10.0960    -5.9410  C.ar    1  <O>11      -0.0592
   7 C5       -1.2340   -10.8060    -4.9510  C.ar    1  <O>11      -0.0404
   8 C6       -0.5560   -11.1930    -3.7890  C.ar    1  <O>11       0.0344
   9 N1       -1.2660   -11.9260    -2.7720  N.pl3   1  <O>11      -0.2836
  10 C7       -1.2971   -13.3759    -2.8098  C.ar    1  <O>11       0.2200
  11 N2       -1.9706   -14.0438    -1.8438  N.ar    1  <O>11      -0.2226
  12 C8       -1.9860   -15.3884    -1.8993  C.ar    1  <O>11       0.0332
  13 C9       -1.3571   -16.1136    -2.8798  C.ar    1  <O>11      -0.0174
  14 C10      -0.6958   -15.3671    -3.8220  C.ar    1  <O>11       0.0775
  15 C11      -0.0107   -16.0255    -4.8851  C.ar    1  <O>11       0.0186
  16 C12       0.1197   -17.4103    -4.9037  C.ar    1  <O>11      -0.0497
  17 C13       0.8242   -18.0019    -5.9604  C.ar    1  <O>11      -0.0430
  18 C14       1.3486   -17.2008    -6.9733  C.ar    1  <O>11       0.0276
  19 N3        1.2096   -15.8660    -6.9617  N.ar    1  <O>11      -0.2626
  20 C15       0.5427   -15.3038    -5.9321  C.ar    1  <O>11       0.0367
  21 N4       -0.6520   -14.0207    -3.8086  N.ar    1  <O>11      -0.2142
  22 C16       0.7910   -10.8780    -3.6110  C.ar    1  <O>11      -0.0265
  23 H1        2.9041   -10.6687    -2.7201  H       1  <O>11       0.2954
  24 H2       -1.7483   -11.4245    -2.0244  H       1  <O>11       0.1550
  25 H3        1.3059    -9.2509    -6.5042  H       1  <O>11       0.0626
  26 H4       -1.0429    -9.8087    -6.8009  H       1  <O>11       0.0618
  27 H5       -2.2307   -11.0431    -5.0753  H       1  <O>11       0.0636
  28 H6       -2.4983   -15.9016    -1.1649  H       1  <O>11       0.0831
  29 H7       -1.3800   -17.1450    -2.9065  H       1  <O>11       0.0654
  30 H8       -0.2934   -17.9890    -4.1557  H       1  <O>11       0.0625
  31 H9        0.9540   -19.0253    -5.9887  H       1  <O>11       0.0633
  32 H10       1.8574   -17.6460    -7.7529  H       1  <O>11       0.0829
  33 H11       0.4383   -14.2771    -5.9233  H       1  <O>11       0.0836
  34 H12       1.2865   -11.1716    -2.7547  H       1  <O>11       0.0644
@<TRIPOS>BOND
     1     1     2    2
     2     2     3    1
     3     2     4    1
     4     4     5   ar
     5     5     6   ar
     6     6     7   ar
     7     7     8   ar
     8     8     9    1
     9     9    10    1
    10    10    11   ar
    11    11    12   ar
    12    12    13   ar
    13    13    14   ar
    14    14    15    1
    15    15    16   ar
    16    16    17   ar
    17    17    18   ar
    18    18    19   ar
    19    19    20   ar
    20    15    20   ar
    21    14    21   ar
    22    10    21   ar
    23     8    22   ar
    24     4    22   ar
    25     3    23    1
    26     9    24    1
    27     5    25    1
    28     6    26    1
    29     7    27    1
    30    12    28    1
    31    13    29    1
    32    16    30    1
    33    17    31    1
    34    18    32    1
    35    20    33    1
    36    22    34    1
@<TRIPOS>MOLECULE
mol47_2_22
 34 36 0 0 0
SMALL
USER_CHARGES
****
VDW energy = -142.40
@<TRIPOS>ATOM
   1 O1        3.4420    -9.1855    -5.2979  O.2     1  <O>11      -0.2451
   2 C1        2.8552    -9.8129    -4.4288  C.2     1  <O>11       0.3369
   3 O2        3.5096   -10.1823    -3.3012  O.3     1  <O>11      -0.4771
   4 C2        1.4620   -10.1610    -4.6040  C.ar    1  <O>11       0.0606
   5 C3        0.8010    -9.7730    -5.7710  C.ar    1  <O>11      -0.0477
   6 C4       -0.5500   -10.0960    -5.9410  C.ar    1  <O>11      -0.0592
   7 C5       -1.2340   -10.8060    -4.9510  C.ar    1  <O>11      -0.0404
   8 C6       -0.5560   -11.1930    -3.7890  C.ar    1  <O>11       0.0344
   9 N1       -1.2660   -11.9260    -2.7720  N.pl3   1  <O>11      -0.2836
  10 C7       -1.7533   -13.2643    -3.0478  C.ar    1  <O>11       0.2200
  11 N2       -2.4180   -13.9343    -2.0773  N.ar    1  <O>11      -0.2226
  12 C8       -2.8610   -15.1743    -2.3558  C.ar    1  <O>11       0.0332
  13 C9       -2.6743   -15.7913    -3.5670  C.ar    1  <O>11      -0.0174
  14 C10      -1.9921   -15.0502    -4.4986  C.ar    1  <O>11       0.0775
  15 C11      -1.7469   -15.6005    -5.7909  C.ar    1  <O>11       0.0186
  16 C12      -2.0597   -16.9256    -6.0759  C.ar    1  <O>11      -0.0497
  17 C13      -1.7744   -17.4202    -7.3553  C.ar    1  <O>11      -0.0430
  18 C14      -1.2157   -16.5749    -8.3124  C.ar    1  <O>11       0.0276
  19 N3       -0.9277   -15.2926    -8.0406  N.ar    1  <O>11      -0.2626
  20 C15      -1.1920   -14.8292    -6.8010  C.ar    1  <O>11       0.0367
  21 N4       -1.5296   -13.8063    -4.2667  N.ar    1  <O>11      -0.2142
  22 C16       0.7910   -10.8780    -3.6110  C.ar    1  <O>11      -0.0265
  23 H1        2.9041   -10.6687    -2.7201  H       1  <O>11       0.2954
  24 H2       -1.4269   -11.5029    -1.8565  H       1  <O>11       0.1550
  25 H3        1.3059    -9.2509    -6.5042  H       1  <O>11       0.0626
  26 H4       -1.0429    -9.8087    -6.8009  H       1  <O>11       0.0618
  27 H5       -2.2307   -11.0431    -5.0753  H       1  <O>11       0.0636
  28 H6       -3.3682   -15.6886    -1.6188  H       1  <O>11       0.0831
  29 H7       -3.0215   -16.7432    -3.7629  H       1  <O>11       0.0654
  30 H8       -2.4924   -17.5309    -5.3607  H       1  <O>11       0.0625
  31 H9       -1.9769   -18.4051    -7.5879  H       1  <O>11       0.0633
  32 H10      -1.0182   -16.9450    -9.2552  H       1  <O>11       0.0829
  33 H11      -0.9681   -13.8436    -6.5926  H       1  <O>11       0.0836
  34 H12       1.2865   -11.1716    -2.7547  H       1  <O>11       0.0644
@<TRIPOS>BOND
     1     1     2    2
     2     2     3    1
     3     2     4    1
     4     4     5   ar
     5     5     6   ar
     6     6     7   ar
     7     7     8   ar
     8     8     9    1
     9     9    10    1
    10    10    11   ar
    11    11    12   ar
    12    12    13   ar
    13    13    14   ar
    14    14    15    1
    15    15    16   ar
    16    16    17   ar
    17    17    18   ar
    18    18    19   ar
    19    19    20   ar
    20    15    20   ar
    21    14    21   ar
    22    10    21   ar
    23     8    22   ar
    24     4    22   ar
    25     3    23    1
    26     9    24    1
    27     5    25    1
    28     6    26    1
    29     7    27    1
    30    12    28    1
    31    13    29    1
    32    16    30    1
    33    17    31    1
    34    18    32    1
    35    20    33    1
    36    22    34    1
@<TRIPOS>MOLECULE
mol47_2_23
 34 36 0 0 0
SMALL
USER_CHARGES
****
VDW energy = -142.28
@<TRIPOS>ATOM
   1 O1        3.4420    -9.1855    -5.2979  O.2     1  <O>11      -0.2451
   2 C1        2.8552    -9.8129    -4.4288  C.2     1  <O>11       0.3369
   3 O2        3.5096   -10.1823    -3.3012  O.3     1  <O>11      -0.4771
   4 C2        1.4620   -10.1610    -4.6040  C.ar    1  <O>11       0.0606
   5 C3        0.8010    -9.7730    -5.7710  C.ar    1  <O>11      -0.0477
   6 C4       -0.5500   -10.0960    -5.9410  C.ar    1  <O>11      -0.0592
   7 C5       -1.2340   -10.8060    -4.9510  C.ar    1  <O>11      -0.0404
   8 C6       -0.5560   -11.1930    -3.7890  C.ar    1  <O>11       0.0344
   9 N1       -1.2660   -11.9260    -2.7720  N.pl3   1  <O>11      -0.2836
  10 C7       -1.9508   -11.2152    -1.7088  C.ar    1  <O>11       0.2200
  11 N2       -3.2437   -10.8551    -1.8859  N.ar    1  <O>11      -0.2226
  12 C8       -3.8586   -10.1968    -0.8861  C.ar    1  <O>11       0.0332
  13 C9       -3.2453    -9.8733     0.2980  C.ar    1  <O>11      -0.0174
  14 C10      -1.9363   -10.2706     0.4028  C.ar    1  <O>11       0.0775
  15 C11      -1.2089    -9.9839     1.5952  C.ar    1  <O>11       0.0186
  16 C12      -1.7567    -9.1851     2.5935  C.ar    1  <O>11      -0.0497
  17 C13      -0.9872    -8.9163     3.7330  C.ar    1  <O>11      -0.0430
  18 C14       0.2852    -9.4723     3.8525  C.ar    1  <O>11       0.0276
  19 N3        0.8071   -10.2547     2.8950  N.ar    1  <O>11      -0.2626
  20 C15       0.0646   -10.4957     1.7943  C.ar    1  <O>11       0.0367
  21 N4       -1.2786   -10.9312    -0.5699  N.ar    1  <O>11      -0.2142
  22 C16       0.7910   -10.8780    -3.6110  C.ar    1  <O>11      -0.0265
  23 H1        2.9041   -10.6687    -2.7201  H       1  <O>11       0.2954
  24 H2       -1.2867   -12.9467    -2.7992  H       1  <O>11       0.1550
  25 H3        1.3059    -9.2509    -6.5042  H       1  <O>11       0.0626
  26 H4       -1.0429    -9.8087    -6.8009  H       1  <O>11       0.0618
  27 H5       -2.2307   -11.0431    -5.0753  H       1  <O>11       0.0636
  28 H6       -4.8442    -9.9204    -1.0169  H       1  <O>11       0.0831
  29 H7       -3.7330    -9.3681     1.0542  H       1  <O>11       0.0654
  30 H8       -2.7089    -8.7990     2.4969  H       1  <O>11       0.0625
  31 H9       -1.3606    -8.3099     4.4800  H       1  <O>11       0.0633
  32 H10       0.8410    -9.2771     4.6998  H       1  <O>11       0.0829
  33 H11       0.4678   -11.0958     1.0578  H       1  <O>11       0.0836
  34 H12       1.2865   -11.1716    -2.7547  H       1  <O>11       0.0644
@<TRIPOS>BOND
     1     1     2    2
     2     2     3    1
     3     2     4    1
     4     4     5   ar
     5     5     6   ar
     6     6     7   ar
     7     7     8   ar
     8     8     9    1
     9     9    10    1
    10    10    11   ar
    11    11    12   ar
    12    12    13   ar
    13    13    14   ar
    14    14    15    1
    15    15    16   ar
    16    16    17   ar
    17    17    18   ar
    18    18    19   ar
    19    19    20   ar
    20    15    20   ar
    21    14    21   ar
    22    10    21   ar
    23     8    22   ar
    24     4    22   ar
    25     3    23    1
    26     9    24    1
    27     5    25    1
    28     6    26    1
    29     7    27    1
    30    12    28    1
    31    13    29    1
    32    16    30    1
    33    17    31    1
    34    18    32    1
    35    20    33    1
    36    22    34    1
@<TRIPOS>MOLECULE
mol47_2_24
 34 36 0 0 0
SMALL
USER_CHARGES
****
VDW energy = -142.20
@<TRIPOS>ATOM
   1 O1        3.4420    -9.1855    -5.2979  O.2     1  <O>11      -0.2451
   2 C1        2.8552    -9.8129    -4.4288  C.2     1  <O>11       0.3369
   3 O2        3.5096   -10.1823    -3.3012  O.3     1  <O>11      -0.4771
   4 C2        1.4620   -10.1610    -4.6040  C.ar    1  <O>11       0.0606
   5 C3        0.8010    -9.7730    -5.7710  C.ar    1  <O>11      -0.0477
   6 C4       -0.5500   -10.0960    -5.9410  C.ar    1  <O>11      -0.0592
   7 C5       -1.2340   -10.8060    -4.9510  C.ar    1  <O>11      -0.0404
   8 C6       -0.5560   -11.1930    -3.7890  C.ar    1  <O>11       0.0344
   9 N1       -1.2660   -11.9260    -2.7720  N.pl3   1  <O>11      -0.2836
  10 C7       -1.9508   -11.2152    -1.7088  C.ar    1  <O>11       0.2200
  11 N2       -1.2780   -10.9316    -0.5688  N.ar    1  <O>11      -0.2226
  12 C8       -1.9334   -10.2714     0.4037  C.ar    1  <O>11       0.0332
  13 C9       -3.2422    -9.8729     0.2997  C.ar    1  <O>11      -0.0174
  14 C10      -3.8567   -10.1965    -0.8836  C.ar    1  <O>11       0.0775
  15 C11      -5.2176    -9.8257    -1.0924  C.ar    1  <O>11       0.0186
  16 C12      -5.9740    -9.2706    -0.0655  C.ar    1  <O>11      -0.0497
  17 C13      -7.3134    -8.9479    -0.3202  C.ar    1  <O>11      -0.0430
  18 C14      -7.8443    -9.1616    -1.5911  C.ar    1  <O>11       0.0276
  19 N3       -7.1093    -9.6838    -2.5851  N.ar    1  <O>11      -0.2626
  20 C15      -5.8246   -10.0056    -2.3263  C.ar    1  <O>11       0.0367
  21 N4       -3.2428   -10.8559    -1.8853  N.ar    1  <O>11      -0.2142
  22 C16       0.7910   -10.8780    -3.6110  C.ar    1  <O>11      -0.0265
  23 H1        2.9041   -10.6687    -2.7201  H       1  <O>11       0.2954
  24 H2       -1.2867   -12.9467    -2.7992  H       1  <O>11       0.1550
  25 H3        1.3059    -9.2509    -6.5042  H       1  <O>11       0.0626
  26 H4       -1.0429    -9.8087    -6.8009  H       1  <O>11       0.0618
  27 H5       -2.2307   -11.0431    -5.0753  H       1  <O>11       0.0636
  28 H6       -1.4242   -10.0531     1.2745  H       1  <O>11       0.0831
  29 H7       -3.7288    -9.3669     1.0561  H       1  <O>11       0.0654
  30 H8       -5.5579    -9.1003     0.8634  H       1  <O>11       0.0625
  31 H9       -7.9037    -8.5540     0.4291  H       1  <O>11       0.0633
  32 H10      -8.8290    -8.9116    -1.7725  H       1  <O>11       0.0829
  33 H11      -5.2610   -10.4091    -3.0909  H       1  <O>11       0.0836
  34 H12       1.2865   -11.1716    -2.7547  H       1  <O>11       0.0644
@<TRIPOS>BOND
     1     1     2    2
     2     2     3    1
     3     2     4    1
     4     4     5   ar
     5     5     6   ar
     6     6     7   ar
     7     7     8   ar
     8     8     9    1
     9     9    10    1
    10    10    11   ar
    11    11    12   ar
    12    12    13   ar
    13    13    14   ar
    14    14    15    1
    15    15    16   ar
    16    16    17   ar
    17    17    18   ar
    18    18    19   ar
    19    19    20   ar
    20    15    20   ar
    21    14    21   ar
    22    10    21   ar
    23     8    22   ar
    24     4    22   ar
    25     3    23    1
    26     9    24    1
    27     5    25    1
    28     6    26    1
    29     7    27    1
    30    12    28    1
    31    13    29    1
    32    16    30    1
    33    17    31    1
    34    18    32    1
    35    20    33    1
    36    22    34    1
@<TRIPOS>MOLECULE
mol47_2_25
 34 36 0 0 0
SMALL
USER_CHARGES
****
VDW energy = -142.09
@<TRIPOS>ATOM
   1 O1        3.4420    -9.1855    -5.2979  O.2     1  <O>11      -0.2451
   2 C1        2.8552    -9.8129    -4.4288  C.2     1  <O>11       0.3369
   3 O2        3.5096   -10.1823    -3.3012  O.3     1  <O>11      -0.4771
   4 C2        1.4620   -10.1610    -4.6040  C.ar    1  <O>11       0.0606
   5 C3        0.8010    -9.7730    -5.7710  C.ar    1  <O>11      -0.0477
   6 C4       -0.5500   -10.0960    -5.9410  C.ar    1  <O>11      -0.0592
   7 C5       -1.2340   -10.8060    -4.9510  C.ar    1  <O>11      -0.0404
   8 C6       -0.5560   -11.1930    -3.7890  C.ar    1  <O>11       0.0344
   9 N1       -1.2660   -11.9260    -2.7720  N.pl3   1  <O>11      -0.2836
  10 C7       -1.9508   -11.2152    -1.7088  C.ar    1  <O>11       0.2200
  11 N2       -3.0136   -10.4358    -2.0181  N.ar    1  <O>11      -0.2226
  12 C8       -3.6333    -9.7861    -1.0155  C.ar    1  <O>11       0.0332
  13 C9       -3.2450    -9.8726     0.2977  C.ar    1  <O>11      -0.0174
  14 C10      -2.1610   -10.6803     0.5320  C.ar    1  <O>11       0.0775
  15 C11      -1.6787   -10.8391     1.8643  C.ar    1  <O>11       0.0186
  16 C12      -2.1962   -10.0796     2.9084  C.ar    1  <O>11      -0.0497
  17 C13      -1.6675   -10.2601     4.1933  C.ar    1  <O>11      -0.0430
  18 C14      -0.6653   -11.2065     4.3996  C.ar    1  <O>11       0.0276
  19 N3       -0.1769   -11.9490     3.3940  N.ar    1  <O>11      -0.2626
  20 C15      -0.6816   -11.7575     2.1572  C.ar    1  <O>11       0.0367
  21 N4       -1.5083   -11.3502    -0.4377  N.ar    1  <O>11      -0.2142
  22 C16       0.7910   -10.8780    -3.6110  C.ar    1  <O>11      -0.0265
  23 H1        2.9041   -10.6687    -2.7201  H       1  <O>11       0.2954
  24 H2       -1.2867   -12.9467    -2.7992  H       1  <O>11       0.1550
  25 H3        1.3059    -9.2509    -6.5042  H       1  <O>11       0.0626
  26 H4       -1.0429    -9.8087    -6.8009  H       1  <O>11       0.0618
  27 H5       -2.2307   -11.0431    -5.0753  H       1  <O>11       0.0636
  28 H6       -4.4439    -9.1908    -1.2468  H       1  <O>11       0.0831
  29 H7       -3.7328    -9.3672     1.0538  H       1  <O>11       0.0654
  30 H8       -2.9529    -9.3982     2.7403  H       1  <O>11       0.0625
  31 H9       -2.0183    -9.6954     4.9826  H       1  <O>11       0.0633
  32 H10      -0.2888   -11.3398     5.3511  H       1  <O>11       0.0829
  33 H11      -0.3037   -12.3275     1.3844  H       1  <O>11       0.0836
  34 H12       1.2865   -11.1716    -2.7547  H       1  <O>11       0.0644
@<TRIPOS>BOND
     1     1     2    2
     2     2     3    1
     3     2     4    1
     4     4     5   ar
     5     5     6   ar
     6     6     7   ar
     7     7     8   ar
     8     8     9    1
     9     9    10    1
    10    10    11   ar
    11    11    12   ar
    12    12    13   ar
    13    13    14   ar
    14    14    15    1
    15    15    16   ar
    16    16    17   ar
    17    17    18   ar
    18    18    19   ar
    19    19    20   ar
    20    15    20   ar
    21    14    21   ar
    22    10    21   ar
    23     8    22   ar
    24     4    22   ar
    25     3    23    1
    26     9    24    1
    27     5    25    1
    28     6    26    1
    29     7    27    1
    30    12    28    1
    31    13    29    1
    32    16    30    1
    33    17    31    1
    34    18    32    1
    35    20    33    1
    36    22    34    1
@<TRIPOS>MOLECULE
mol47_2_26
 34 36 0 0 0
SMALL
USER_CHARGES
****
VDW energy = -140.77
@<TRIPOS>ATOM
   1 O1        3.4420    -9.1855    -5.2979  O.2     1  <O>11      -0.2451
   2 C1        2.8552    -9.8129    -4.4288  C.2     1  <O>11       0.3369
   3 O2        3.5096   -10.1823    -3.3012  O.3     1  <O>11      -0.4771
   4 C2        1.4620   -10.1610    -4.6040  C.ar    1  <O>11       0.0606
   5 C3        0.8010    -9.7730    -5.7710  C.ar    1  <O>11      -0.0477
   6 C4       -0.5500   -10.0960    -5.9410  C.ar    1  <O>11      -0.0592
   7 C5       -1.2340   -10.8060    -4.9510  C.ar    1  <O>11      -0.0404
   8 C6       -0.5560   -11.1930    -3.7890  C.ar    1  <O>11       0.0344
   9 N1       -1.2660   -11.9260    -2.7720  N.pl3   1  <O>11      -0.2836
  10 C7       -1.7533   -13.2643    -3.0478  C.ar    1  <O>11       0.2200
  11 N2       -2.7248   -13.4314    -3.9756  N.ar    1  <O>11      -0.2226
  12 C8       -3.1612   -14.6818    -4.2150  C.ar    1  <O>11       0.0332
  13 C9       -2.6743   -15.7907    -3.5699  C.ar    1  <O>11      -0.0174
  14 C10      -1.6930   -15.5413    -2.6440  C.ar    1  <O>11       0.0775
  15 C11      -1.1192   -16.6269    -1.9193  C.ar    1  <O>11       0.0186
  16 C12      -1.6352   -17.9139    -2.0301  C.ar    1  <O>11      -0.0497
  17 C13      -1.0471   -18.9378    -1.2759  C.ar    1  <O>11      -0.0430
  18 C14       0.0479   -18.6527    -0.4620  C.ar    1  <O>11       0.0276
  19 N3        0.5539   -17.4133    -0.3671  N.ar    1  <O>11      -0.2626
  20 C15      -0.0285   -16.4306    -1.0855  C.ar    1  <O>11       0.0367
  21 N4       -1.2241   -14.3084    -2.3699  N.ar    1  <O>11      -0.2142
  22 C16       0.7910   -10.8780    -3.6110  C.ar    1  <O>11      -0.0265
  23 H1        2.9041   -10.6687    -2.7201  H       1  <O>11       0.2954
  24 H2       -1.4269   -11.5029    -1.8565  H       1  <O>11       0.1550
  25 H3        1.3059    -9.2509    -6.5042  H       1  <O>11       0.0626
  26 H4       -1.0429    -9.8087    -6.8009  H       1  <O>11       0.0618
  27 H5       -2.2307   -11.0431    -5.0753  H       1  <O>11       0.0636
  28 H6       -3.9017   -14.8138    -4.9215  H       1  <O>11       0.0831
  29 H7       -3.0209   -16.7426    -3.7668  H       1  <O>11       0.0654
  30 H8       -2.4335   -18.1102    -2.6539  H       1  <O>11       0.0625
  31 H9       -1.4226   -19.8979    -1.3228  H       1  <O>11       0.0633
  32 H10       0.4810   -19.4150     0.0822  H       1  <O>11       0.0829
  33 H11       0.3602   -15.4776    -1.0100  H       1  <O>11       0.0836
  34 H12       1.2865   -11.1716    -2.7547  H       1  <O>11       0.0644
@<TRIPOS>BOND
     1     1     2    2
     2     2     3    1
     3     2     4    1
     4     4     5   ar
     5     5     6   ar
     6     6     7   ar
     7     7     8   ar
     8     8     9    1
     9     9    10    1
    10    10    11   ar
    11    11    12   ar
    12    12    13   ar
    13    13    14   ar
    14    14    15    1
    15    15    16   ar
    16    16    17   ar
    17    17    18   ar
    18    18    19   ar
    19    19    20   ar
    20    15    20   ar
    21    14    21   ar
    22    10    21   ar
    23     8    22   ar
    24     4    22   ar
    25     3    23    1
    26     9    24    1
    27     5    25    1
    28     6    26    1
    29     7    27    1
    30    12    28    1
    31    13    29    1
    32    16    30    1
    33    17    31    1
    34    18    32    1
    35    20    33    1
    36    22    34    1
@<TRIPOS>MOLECULE
mol47_2_27
 34 36 0 0 0
SMALL
USER_CHARGES
****
VDW energy = -138.96
@<TRIPOS>ATOM
   1 O1        3.4420    -9.1855    -5.2979  O.2     1  <O>11      -0.2451
   2 C1        2.8552    -9.8129    -4.4288  C.2     1  <O>11       0.3369
   3 O2        3.5096   -10.1823    -3.3012  O.3     1  <O>11      -0.4771
   4 C2        1.4620   -10.1610    -4.6040  C.ar    1  <O>11       0.0606
   5 C3        0.8010    -9.7730    -5.7710  C.ar    1  <O>11      -0.0477
   6 C4       -0.5500   -10.0960    -5.9410  C.ar    1  <O>11      -0.0592
   7 C5       -1.2340   -10.8060    -4.9510  C.ar    1  <O>11      -0.0404
   8 C6       -0.5560   -11.1930    -3.7890  C.ar    1  <O>11       0.0344
   9 N1       -1.2660   -11.9260    -2.7720  N.pl3   1  <O>11      -0.2836
  10 C7       -0.5810   -12.3370    -1.5610  C.ar    1  <O>11       0.2200
  11 N2        0.0364   -13.5414    -1.5321  N.ar    1  <O>11      -0.2226
  12 C8        0.6656   -13.9015    -0.3982  C.ar    1  <O>11       0.0332
  13 C9        0.7131   -13.1144     0.7247  C.ar    1  <O>11      -0.0174
  14 C10       0.0645   -11.9100     0.6190  C.ar    1  <O>11       0.0775
  15 C11       0.0561   -11.0171     1.7306  C.ar    1  <O>11       0.0186
  16 C12       0.5689   -11.4048     2.9641  C.ar    1  <O>11      -0.0497
  17 C13       0.5123   -10.4949     4.0281  C.ar    1  <O>11      -0.0430
  18 C14      -0.0250    -9.2255     3.8218  C.ar    1  <O>11       0.0276
  19 N3       -0.5062    -8.8477     2.6273  N.ar    1  <O>11      -0.2626
  20 C15      -0.4613    -9.7359     1.6124  C.ar    1  <O>11       0.0367
  21 N4       -0.5786   -11.5059    -0.4938  N.ar    1  <O>11      -0.2142
  22 C16       0.7910   -10.8780    -3.6110  C.ar    1  <O>11      -0.0265
  23 H1        2.9041   -10.6687    -2.7201  H       1  <O>11       0.2954
  24 H2       -2.2520   -12.1570    -2.9040  H       1  <O>11       0.1550
  25 H3        1.3059    -9.2509    -6.5042  H       1  <O>11       0.0626
  26 H4       -1.0429    -9.8087    -6.8009  H       1  <O>11       0.0618
  27 H5       -2.2307   -11.0431    -5.0753  H       1  <O>11       0.0636
  28 H6        1.1376   -14.8188    -0.3719  H       1  <O>11       0.0831
  29 H7        1.2009   -13.4070     1.5858  H       1  <O>11       0.0654
  30 H8        0.9819   -12.3418     3.0927  H       1  <O>11       0.0625
  31 H9        0.8665   -10.7633     4.9595  H       1  <O>11       0.0633
  32 H10      -0.0534    -8.5584     4.6086  H       1  <O>11       0.0829
  33 H11      -0.8337    -9.4448     0.6950  H       1  <O>11       0.0836
  34 H12       1.2865   -11.1716    -2.7547  H       1  <O>11       0.0644
@<TRIPOS>BOND
     1     1     2    2
     2     2     3    1
     3     2     4    1
     4     4     5   ar
     5     5     6   ar
     6     6     7   ar
     7     7     8   ar
     8     8     9    1
     9     9    10    1
    10    10    11   ar
    11    11    12   ar
    12    12    13   ar
    13    13    14   ar
    14    14    15    1
    15    15    16   ar
    16    16    17   ar
    17    17    18   ar
    18    18    19   ar
    19    19    20   ar
    20    15    20   ar
    21    14    21   ar
    22    10    21   ar
    23     8    22   ar
    24     4    22   ar
    25     3    23    1
    26     9    24    1
    27     5    25    1
    28     6    26    1
    29     7    27    1
    30    12    28    1
    31    13    29    1
    32    16    30    1
    33    17    31    1
    34    18    32    1
    35    20    33    1
    36    22    34    1
@<TRIPOS>MOLECULE
mol47_2_28
 34 36 0 0 0
SMALL
USER_CHARGES
****
VDW energy = -124.24
@<TRIPOS>ATOM
   1 O1        3.4420    -9.1855    -5.2979  O.2     1  <O>11      -0.2451
   2 C1        2.8552    -9.8129    -4.4288  C.2     1  <O>11       0.3369
   3 O2        3.5096   -10.1823    -3.3012  O.3     1  <O>11      -0.4771
   4 C2        1.4620   -10.1610    -4.6040  C.ar    1  <O>11       0.0606
   5 C3        0.8010    -9.7730    -5.7710  C.ar    1  <O>11      -0.0477
   6 C4       -0.5500   -10.0960    -5.9410  C.ar    1  <O>11      -0.0592
   7 C5       -1.2340   -10.8060    -4.9510  C.ar    1  <O>11      -0.0404
   8 C6       -0.5560   -11.1930    -3.7890  C.ar    1  <O>11       0.0344
   9 N1       -1.2660   -11.9260    -2.7720  N.pl3   1  <O>11      -0.2836
  10 C7       -0.5810   -12.3370    -1.5610  C.ar    1  <O>11       0.2200
  11 N2       -1.2680   -13.0250    -0.6190  N.ar    1  <O>11      -0.2226
  12 C8       -0.6120   -13.3960     0.4960  C.ar    1  <O>11       0.0332
  13 C9        0.7110   -13.1140     0.7260  C.ar    1  <O>11      -0.0174
  14 C10       1.3390   -12.4140    -0.2730  C.ar    1  <O>11       0.0775
  15 C11       2.7160   -12.0720    -0.1320  C.ar    1  <O>11       0.0186
  16 C12       3.0989   -10.8739     0.4620  C.ar    1  <O>11      -0.0497
  17 C13       4.4655   -10.5785     0.5520  C.ar    1  <O>11      -0.0430
  18 C14       5.4017   -11.4944     0.0751  C.ar    1  <O>11       0.0276
  19 N3        5.0314   -12.6565    -0.4847  N.ar    1  <O>11      -0.2626
  20 C15       3.7125   -12.9257    -0.5808  C.ar    1  <O>11       0.0367
  21 N4        0.7250   -12.0210    -1.4060  N.ar    1  <O>11      -0.2142
  22 C16       0.7910   -10.8780    -3.6110  C.ar    1  <O>11      -0.0265
  23 H1        2.9041   -10.6687    -2.7201  H       1  <O>11       0.2954
  24 H2       -2.2520   -12.1570    -2.9040  H       1  <O>11       0.1550
  25 H3        1.3059    -9.2509    -6.5042  H       1  <O>11       0.0626
  26 H4       -1.0429    -9.8087    -6.8009  H       1  <O>11       0.0618
  27 H5       -2.2307   -11.0431    -5.0753  H       1  <O>11       0.0636
  28 H6       -1.1319   -13.9207     1.2167  H       1  <O>11       0.0831
  29 H7        1.1980   -13.4070     1.5874  H       1  <O>11       0.0654
  30 H8        2.3921   -10.2172     0.8283  H       1  <O>11       0.0625
  31 H9        4.7773    -9.6875     0.9691  H       1  <O>11       0.0633
  32 H10       6.4065   -11.2729     0.1546  H       1  <O>11       0.0829
  33 H11       3.4290   -13.8187    -1.0134  H       1  <O>11       0.0836
  34 H12       1.2865   -11.1716    -2.7547  H       1  <O>11       0.0644
@<TRIPOS>BOND
     1     1     2    2
     2     2     3    1
     3     2     4    1
     4     4     5   ar
     5     5     6   ar
     6     6     7   ar
     7     7     8   ar
     8     8     9    1
     9     9    10    1
    10    10    11   ar
    11    11    12   ar
    12    12    13   ar
    13    13    14   ar
    14    14    15    1
    15    15    16   ar
    16    16    17   ar
    17    17    18   ar
    18    18    19   ar
    19    19    20   ar
    20    15    20   ar
    21    14    21   ar
    22    10    21   ar
    23     8    22   ar
    24     4    22   ar
    25     3    23    1
    26     9    24    1
    27     5    25    1
    28     6    26    1
    29     7    27    1
    30    12    28    1
    31    13    29    1
    32    16    30    1
    33    17    31    1
    34    18    32    1
    35    20    33    1
    36    22    34    1
@<TRIPOS>MOLECULE
mol47_2_29
 34 36 0 0 0
SMALL
USER_CHARGES
****
VDW energy = -124.20
@<TRIPOS>ATOM
   1 O1        3.4420    -9.1855    -5.2979  O.2     1  <O>11      -0.2451
   2 C1        2.8552    -9.8129    -4.4288  C.2     1  <O>11       0.3369
   3 O2        3.5096   -10.1823    -3.3012  O.3     1  <O>11      -0.4771
   4 C2        1.4620   -10.1610    -4.6040  C.ar    1  <O>11       0.0606
   5 C3        0.8010    -9.7730    -5.7710  C.ar    1  <O>11      -0.0477
   6 C4       -0.5500   -10.0960    -5.9410  C.ar    1  <O>11      -0.0592
   7 C5       -1.2340   -10.8060    -4.9510  C.ar    1  <O>11      -0.0404
   8 C6       -0.5560   -11.1930    -3.7890  C.ar    1  <O>11       0.0344
   9 N1       -1.2660   -11.9260    -2.7720  N.pl3   1  <O>11      -0.2836
  10 C7       -0.5810   -12.3370    -1.5610  C.ar    1  <O>11       0.2200
  11 N2       -1.2680   -13.0250    -0.6190  N.ar    1  <O>11      -0.2226
  12 C8       -0.6120   -13.3960     0.4960  C.ar    1  <O>11       0.0332
  13 C9        0.7110   -13.1140     0.7260  C.ar    1  <O>11      -0.0174
  14 C10       1.3390   -12.4140    -0.2730  C.ar    1  <O>11       0.0775
  15 C11       2.7160   -12.0720    -0.1320  C.ar    1  <O>11       0.0186
  16 C12       3.7159   -12.9266    -0.5844  C.ar    1  <O>11      -0.0497
  17 C13       5.0526   -12.5506    -0.3976  C.ar    1  <O>11      -0.0430
  18 C14       5.3473   -11.3291     0.2053  C.ar    1  <O>11       0.0276
  19 N3        4.3815   -10.4988     0.6283  N.ar    1  <O>11      -0.2626
  20 C15       3.0971   -10.8761     0.4579  C.ar    1  <O>11       0.0367
  21 N4        0.7250   -12.0210    -1.4060  N.ar    1  <O>11      -0.2142
  22 C16       0.7910   -10.8780    -3.6110  C.ar    1  <O>11      -0.0265
  23 H1        2.9041   -10.6687    -2.7201  H       1  <O>11       0.2954
  24 H2       -2.2520   -12.1570    -2.9040  H       1  <O>11       0.1550
  25 H3        1.3059    -9.2509    -6.5042  H       1  <O>11       0.0626
  26 H4       -1.0429    -9.8087    -6.8009  H       1  <O>11       0.0618
  27 H5       -2.2307   -11.0431    -5.0753  H       1  <O>11       0.0636
  28 H6       -1.1319   -13.9207     1.2167  H       1  <O>11       0.0831
  29 H7        1.1980   -13.4070     1.5874  H       1  <O>11       0.0654
  30 H8        3.4784   -13.8178    -1.0474  H       1  <O>11       0.0625
  31 H9        5.8149   -13.1749    -0.7048  H       1  <O>11       0.0633
  32 H10       6.3346   -11.0558     0.3298  H       1  <O>11       0.0829
  33 H11       2.3554   -10.2377     0.7855  H       1  <O>11       0.0836
  34 H12       1.2865   -11.1716    -2.7547  H       1  <O>11       0.0644
@<TRIPOS>BOND
     1     1     2    2
     2     2     3    1
     3     2     4    1
     4     4     5   ar
     5     5     6   ar
     6     6     7   ar
     7     7     8   ar
     8     8     9    1
     9     9    10    1
    10    10    11   ar
    11    11    12   ar
    12    12    13   ar
    13    13    14   ar
    14    14    15    1
    15    15    16   ar
    16    16    17   ar
    17    17    18   ar
    18    18    19   ar
    19    19    20   ar
    20    15    20   ar
    21    14    21   ar
    22    10    21   ar
    23     8    22   ar
    24     4    22   ar
    25     3    23    1
    26     9    24    1
    27     5    25    1
    28     6    26    1
    29     7    27    1
    30    12    28    1
    31    13    29    1
    32    16    30    1
    33    17    31    1
    34    18    32    1
    35    20    33    1
    36    22    34    1
@<TRIPOS>MOLECULE
mol47_2_30
 34 36 0 0 0
SMALL
USER_CHARGES
****
VDW energy = -122.05
@<TRIPOS>ATOM
   1 O1        3.4420    -9.1855    -5.2979  O.2     1  <O>11      -0.2451
   2 C1        2.8552    -9.8129    -4.4288  C.2     1  <O>11       0.3369
   3 O2        3.5096   -10.1823    -3.3012  O.3     1  <O>11      -0.4771
   4 C2        1.4620   -10.1610    -4.6040  C.ar    1  <O>11       0.0606
   5 C3        0.8010    -9.7730    -5.7710  C.ar    1  <O>11      -0.0477
   6 C4       -0.5500   -10.0960    -5.9410  C.ar    1  <O>11      -0.0592
   7 C5       -1.2340   -10.8060    -4.9510  C.ar    1  <O>11      -0.0404
   8 C6       -0.5560   -11.1930    -3.7890  C.ar    1  <O>11       0.0344
   9 N1       -1.2660   -11.9260    -2.7720  N.pl3   1  <O>11      -0.2836
  10 C7       -0.5810   -12.3370    -1.5610  C.ar    1  <O>11       0.2200
  11 N2       -1.2680   -13.0250    -0.6190  N.ar    1  <O>11      -0.2226
  12 C8       -0.6120   -13.3960     0.4960  C.ar    1  <O>11       0.0332
  13 C9        0.7110   -13.1140     0.7260  C.ar    1  <O>11      -0.0174
  14 C10       1.3390   -12.4140    -0.2730  C.ar    1  <O>11       0.0775
  15 C11       2.7160   -12.0720    -0.1320  C.ar    1  <O>11       0.0186
  16 C12       3.1283   -10.7435    -0.1407  C.ar    1  <O>11      -0.0497
  17 C13       4.4967   -10.4668    -0.0230  C.ar    1  <O>11      -0.0430
  18 C14       5.4018   -11.5161     0.1270  C.ar    1  <O>11       0.0276
  19 N3        5.0012   -12.7968     0.1498  N.ar    1  <O>11      -0.2626
  20 C15       3.6829   -13.0544     0.0205  C.ar    1  <O>11       0.0367
  21 N4        0.7250   -12.0210    -1.4060  N.ar    1  <O>11      -0.2142
  22 C16       0.7910   -10.8780    -3.6110  C.ar    1  <O>11      -0.0265
  23 H1        2.9041   -10.6687    -2.7201  H       1  <O>11       0.2954
  24 H2       -2.2520   -12.1570    -2.9040  H       1  <O>11       0.1550
  25 H3        1.3059    -9.2509    -6.5042  H       1  <O>11       0.0626
  26 H4       -1.0429    -9.8087    -6.8009  H       1  <O>11       0.0618
  27 H5       -2.2307   -11.0431    -5.0753  H       1  <O>11       0.0636
  28 H6       -1.1319   -13.9207     1.2167  H       1  <O>11       0.0831
  29 H7        1.1980   -13.4070     1.5874  H       1  <O>11       0.0654
  30 H8        2.4414    -9.9787    -0.2318  H       1  <O>11       0.0625
  31 H9        4.8327    -9.4913    -0.0472  H       1  <O>11       0.0633
  32 H10       6.4068   -11.3024     0.2231  H       1  <O>11       0.0829
  33 H11       3.3764   -14.0397     0.0361  H       1  <O>11       0.0836
  34 H12       1.2865   -11.1716    -2.7547  H       1  <O>11       0.0644
@<TRIPOS>BOND
     1     1     2    2
     2     2     3    1
     3     2     4    1
     4     4     5   ar
     5     5     6   ar
     6     6     7   ar
     7     7     8   ar
     8     8     9    1
     9     9    10    1
    10    10    11   ar
    11    11    12   ar
    12    12    13   ar
    13    13    14   ar
    14    14    15    1
    15    15    16   ar
    16    16    17   ar
    17    17    18   ar
    18    18    19   ar
    19    19    20   ar
    20    15    20   ar
    21    14    21   ar
    22    10    21   ar
    23     8    22   ar
    24     4    22   ar
    25     3    23    1
    26     9    24    1
    27     5    25    1
    28     6    26    1
    29     7    27    1
    30    12    28    1
    31    13    29    1
    32    16    30    1
    33    17    31    1
    34    18    32    1
    35    20    33    1
    36    22    34    1
