@<TRIPOS>MOLECULE
mol48_1_1
 37 39 0 0 0
SMALL
USER_CHARGES
****
VDW energy = 59.63
@<TRIPOS>ATOM
   1 O1        3.4420    -9.1855    -5.2979  O.2     1  <O>11      -0.2451
   2 C1        2.8552    -9.8129    -4.4288  C.2     1  <O>11       0.3369
   3 O2        3.5096   -10.1823    -3.3012  O.3     1  <O>11      -0.4771
   4 C2        1.4620   -10.1610    -4.6040  C.ar    1  <O>11       0.0606
   5 C3        0.4750    -9.2817    -4.1546  C.ar    1  <O>11      -0.0477
   6 C4       -0.8745    -9.6183    -4.3101  C.ar    1  <O>11      -0.0592
   7 C5       -1.2337   -10.8255    -4.9148  C.ar    1  <O>11      -0.0408
   8 C6       -0.2326   -11.6941    -5.3653  C.ar    1  <O>11       0.0282
   9 N1       -0.6088   -12.9371    -5.9892  N.pl3   1  <O>11      -0.3396
  10 C7       -1.3119   -12.9274    -7.2693  C.3     1  <O>11       0.0384
  11 C8       -0.8717   -14.0896    -8.0840  C.ar    1  <O>11       0.0186
  12 C9       -1.5554   -15.3198    -7.9858  C.ar    1  <O>11       0.1221
  13 O3       -2.5503   -15.4384    -7.1692  O.3     1  <O>11      -0.5064
  14 C10      -1.1617   -16.4033    -8.7663  C.ar    1  <O>11      -0.0193
  15 C11      -0.0672   -16.2812    -9.6305  C.ar    1  <O>11      -0.0506
  16 C12       0.6412   -15.0738    -9.7319  C.ar    1  <O>11      -0.0173
  17 C13       1.7432   -14.9381   -10.5913  C.ar    1  <O>11      -0.0540
  18 C14       2.4299   -13.7255   -10.6846  C.ar    1  <O>11      -0.0612
  19 C15       2.0225   -12.6339    -9.9220  C.ar    1  <O>11      -0.0612
  20 C16       0.9279   -12.7526    -9.0641  C.ar    1  <O>11      -0.0536
  21 C17       0.2318   -13.9670    -8.9554  C.ar    1  <O>11      -0.0097
  22 C18       1.1151   -11.3668    -5.2172  C.ar    1  <O>11      -0.0269
  23 H1        2.9041   -10.6687    -2.7201  H       1  <O>11       0.2954
  24 H2       -0.3841   -13.8240    -5.5382  H       1  <O>11       0.1464
  25 H3       -1.0839   -12.0034    -7.8011  H       1  <O>11       0.0512
  26 H4       -2.3859   -12.9904    -7.0947  H       1  <O>11       0.0512
  27 H5       -2.9082   -16.3378    -7.2214  H       1  <O>11       0.2921
  28 H6        0.7391    -8.3884    -3.7103  H       1  <O>11       0.0626
  29 H7       -1.6070    -8.9723    -3.9769  H       1  <O>11       0.0618
  30 H8       -2.2287   -11.0748    -5.0282  H       1  <O>11       0.0636
  31 H9       -1.6762   -17.2960    -8.7078  H       1  <O>11       0.0654
  32 H10       0.2229   -17.0905   -10.2012  H       1  <O>11       0.0625
  33 H11       2.0492   -15.7430   -11.1600  H       1  <O>11       0.0624
  34 H12       3.2393   -13.6384   -11.3189  H       1  <O>11       0.0618
  35 H13       2.5295   -11.7377    -9.9912  H       1  <O>11       0.0618
  36 H14       0.6274   -11.9397    -8.5040  H       1  <O>11       0.0624
  37 H15       1.8481   -12.0089    -5.5570  H       1  <O>11       0.0644
@<TRIPOS>BOND
     1     1     2    2
     2     2     3    1
     3     2     4    1
     4     4     5   ar
     5     5     6   ar
     6     6     7   ar
     7     7     8   ar
     8     8     9    1
     9     9    10    1
    10    10    11    1
    11    11    12   ar
    12    12    13    1
    13    12    14   ar
    14    14    15   ar
    15    15    16   ar
    16    16    17   ar
    17    17    18   ar
    18    18    19   ar
    19    19    20   ar
    20    20    21   ar
    21    11    21   ar
    22    16    21   ar
    23     8    22   ar
    24     4    22   ar
    25     3    23    1
    26     9    24    1
    27    10    25    1
    28    10    26    1
    29    13    27    1
    30     5    28    1
    31     6    29    1
    32     7    30    1
    33    14    31    1
    34    15    32    1
    35    17    33    1
    36    18    34    1
    37    19    35    1
    38    20    36    1
    39    22    37    1
@<TRIPOS>MOLECULE
mol48_1_2
 37 39 0 0 0
SMALL
USER_CHARGES
****
VDW energy = 62.26
@<TRIPOS>ATOM
   1 O1        3.4420    -9.1855    -5.2979  O.2     1  <O>11      -0.2451
   2 C1        2.8552    -9.8129    -4.4288  C.2     1  <O>11       0.3369
   3 O2        3.5096   -10.1823    -3.3012  O.3     1  <O>11      -0.4771
   4 C2        1.4620   -10.1610    -4.6040  C.ar    1  <O>11       0.0606
   5 C3        0.4750    -9.2817    -4.1546  C.ar    1  <O>11      -0.0477
   6 C4       -0.8745    -9.6183    -4.3101  C.ar    1  <O>11      -0.0592
   7 C5       -1.2337   -10.8255    -4.9148  C.ar    1  <O>11      -0.0408
   8 C6       -0.2326   -11.6941    -5.3653  C.ar    1  <O>11       0.0282
   9 N1       -0.6088   -12.9371    -5.9892  N.pl3   1  <O>11      -0.3396
  10 C7        0.2851   -14.0898    -5.9164  C.3     1  <O>11       0.0384
  11 C8       -0.5204   -15.3346    -5.8156  C.ar    1  <O>11       0.0186
  12 C9       -0.9183   -16.0145    -6.9859  C.ar    1  <O>11       0.1221
  13 O3       -0.5993   -15.5393    -8.1449  O.3     1  <O>11      -0.5064
  14 C10      -1.6512   -17.1946    -6.8945  C.ar    1  <O>11      -0.0193
  15 C11      -2.0188   -17.6936    -5.6393  C.ar    1  <O>11      -0.0506
  16 C12      -1.6516   -17.0253    -4.4611  C.ar    1  <O>11      -0.0173
  17 C13      -2.0168   -17.5119    -3.1956  C.ar    1  <O>11      -0.0540
  18 C14      -1.6342   -16.8371    -2.0343  C.ar    1  <O>11      -0.0612
  19 C15      -0.8808   -15.6693    -2.1234  C.ar    1  <O>11      -0.0612
  20 C16      -0.5089   -15.1736    -3.3741  C.ar    1  <O>11      -0.0536
  21 C17      -0.8913   -15.8380    -4.5503  C.ar    1  <O>11      -0.0097
  22 C18       1.1151   -11.3668    -5.2172  C.ar    1  <O>11      -0.0269
  23 H1        2.9041   -10.6687    -2.7201  H       1  <O>11       0.2954
  24 H2       -1.4992   -13.0132    -6.4811  H       1  <O>11       0.1464
  25 H3        0.9242   -13.9981    -5.0380  H       1  <O>11       0.0512
  26 H4        0.9035   -14.1275    -6.8131  H       1  <O>11       0.0512
  27 H5       -0.9446   -16.1196    -8.8403  H       1  <O>11       0.2921
  28 H6        0.7391    -8.3884    -3.7103  H       1  <O>11       0.0626
  29 H7       -1.6070    -8.9723    -3.9769  H       1  <O>11       0.0618
  30 H8       -2.2287   -11.0748    -5.0282  H       1  <O>11       0.0636
  31 H9       -1.9235   -17.7012    -7.7515  H       1  <O>11       0.0654
  32 H10      -2.5677   -18.5655    -5.5796  H       1  <O>11       0.0625
  33 H11      -2.5738   -18.3776    -3.1229  H       1  <O>11       0.0624
  34 H12      -1.9098   -17.2039    -1.1099  H       1  <O>11       0.0618
  35 H13      -0.5977   -15.1707    -1.2654  H       1  <O>11       0.0618
  36 H14       0.0528   -14.3100    -3.4349  H       1  <O>11       0.0624
  37 H15       1.8481   -12.0089    -5.5570  H       1  <O>11       0.0644
@<TRIPOS>BOND
     1     1     2    2
     2     2     3    1
     3     2     4    1
     4     4     5   ar
     5     5     6   ar
     6     6     7   ar
     7     7     8   ar
     8     8     9    1
     9     9    10    1
    10    10    11    1
    11    11    12   ar
    12    12    13    1
    13    12    14   ar
    14    14    15   ar
    15    15    16   ar
    16    16    17   ar
    17    17    18   ar
    18    18    19   ar
    19    19    20   ar
    20    20    21   ar
    21    11    21   ar
    22    16    21   ar
    23     8    22   ar
    24     4    22   ar
    25     3    23    1
    26     9    24    1
    27    10    25    1
    28    10    26    1
    29    13    27    1
    30     5    28    1
    31     6    29    1
    32     7    30    1
    33    14    31    1
    34    15    32    1
    35    17    33    1
    36    18    34    1
    37    19    35    1
    38    20    36    1
    39    22    37    1
@<TRIPOS>MOLECULE
mol48_1_3
 37 39 0 0 0
SMALL
USER_CHARGES
****
VDW energy = 62.50
@<TRIPOS>ATOM
   1 O1        3.4420    -9.1855    -5.2979  O.2     1  <O>11      -0.2451
   2 C1        2.8552    -9.8129    -4.4288  C.2     1  <O>11       0.3369
   3 O2        3.5096   -10.1823    -3.3012  O.3     1  <O>11      -0.4771
   4 C2        1.4620   -10.1610    -4.6040  C.ar    1  <O>11       0.0606
   5 C3        0.4750    -9.2817    -4.1546  C.ar    1  <O>11      -0.0477
   6 C4       -0.8745    -9.6183    -4.3101  C.ar    1  <O>11      -0.0592
   7 C5       -1.2337   -10.8255    -4.9148  C.ar    1  <O>11      -0.0408
   8 C6       -0.2326   -11.6941    -5.3653  C.ar    1  <O>11       0.0282
   9 N1       -0.6088   -12.9371    -5.9892  N.pl3   1  <O>11      -0.3396
  10 C7        0.2851   -14.0898    -5.9164  C.3     1  <O>11       0.0384
  11 C8       -0.5204   -15.3346    -5.8156  C.ar    1  <O>11       0.0186
  12 C9       -0.8876   -15.8370    -4.5494  C.ar    1  <O>11       0.1221
  13 O3       -0.5024   -15.2240    -3.4786  O.3     1  <O>11      -0.5064
  14 C10      -1.6636   -16.9888    -4.4519  C.ar    1  <O>11      -0.0193
  15 C11      -2.0574   -17.6664    -5.6118  C.ar    1  <O>11      -0.0506
  16 C12      -1.6887   -17.1974    -6.8822  C.ar    1  <O>11      -0.0173
  17 C13      -2.0730   -17.8691    -8.0538  C.ar    1  <O>11      -0.0540
  18 C14      -1.7034   -17.3816    -9.3093  C.ar    1  <O>11      -0.0612
  19 C15      -0.9472   -16.2165    -9.4092  C.ar    1  <O>11      -0.0612
  20 C16      -0.5585   -15.5368    -8.2537  C.ar    1  <O>11      -0.0536
  21 C17      -0.9176   -16.0182    -6.9847  C.ar    1  <O>11      -0.0097
  22 C18       1.1151   -11.3668    -5.2172  C.ar    1  <O>11      -0.0269
  23 H1        2.9041   -10.6687    -2.7201  H       1  <O>11       0.2954
  24 H2       -1.4992   -13.0132    -6.4811  H       1  <O>11       0.1464
  25 H3        0.9242   -13.9981    -5.0380  H       1  <O>11       0.0512
  26 H4        0.9035   -14.1275    -6.8131  H       1  <O>11       0.0512
  27 H5       -0.8357   -15.6924    -2.6982  H       1  <O>11       0.2921
  28 H6        0.7391    -8.3884    -3.7103  H       1  <O>11       0.0626
  29 H7       -1.6070    -8.9723    -3.9769  H       1  <O>11       0.0618
  30 H8       -2.2287   -11.0748    -5.0282  H       1  <O>11       0.0636
  31 H9       -1.9482   -17.3428    -3.5253  H       1  <O>11       0.0654
  32 H10      -2.6271   -18.5232    -5.5315  H       1  <O>11       0.0625
  33 H11      -2.6346   -18.7322    -7.9864  H       1  <O>11       0.0624
  34 H12      -1.9909   -17.8848   -10.1632  H       1  <O>11       0.0618
  35 H13      -0.6744   -15.8560   -10.3368  H       1  <O>11       0.0618
  36 H14      -0.0016   -14.6716    -8.3330  H       1  <O>11       0.0624
  37 H15       1.8481   -12.0089    -5.5570  H       1  <O>11       0.0644
@<TRIPOS>BOND
     1     1     2    2
     2     2     3    1
     3     2     4    1
     4     4     5   ar
     5     5     6   ar
     6     6     7   ar
     7     7     8   ar
     8     8     9    1
     9     9    10    1
    10    10    11    1
    11    11    12   ar
    12    12    13    1
    13    12    14   ar
    14    14    15   ar
    15    15    16   ar
    16    16    17   ar
    17    17    18   ar
    18    18    19   ar
    19    19    20   ar
    20    20    21   ar
    21    11    21   ar
    22    16    21   ar
    23     8    22   ar
    24     4    22   ar
    25     3    23    1
    26     9    24    1
    27    10    25    1
    28    10    26    1
    29    13    27    1
    30     5    28    1
    31     6    29    1
    32     7    30    1
    33    14    31    1
    34    15    32    1
    35    17    33    1
    36    18    34    1
    37    19    35    1
    38    20    36    1
    39    22    37    1
@<TRIPOS>MOLECULE
mol48_1_4
 37 39 0 0 0
SMALL
USER_CHARGES
****
VDW energy = 63.59
@<TRIPOS>ATOM
   1 O1        3.4420    -9.1855    -5.2979  O.2     1  <O>11      -0.2451
   2 C1        2.8552    -9.8129    -4.4288  C.2     1  <O>11       0.3369
   3 O2        3.5096   -10.1823    -3.3012  O.3     1  <O>11      -0.4771
   4 C2        1.4620   -10.1610    -4.6040  C.ar    1  <O>11       0.0606
   5 C3        1.1306   -11.3698    -5.2192  C.ar    1  <O>11      -0.0477
   6 C4       -0.2153   -11.7066    -5.4026  C.ar    1  <O>11      -0.0592
   7 C5       -1.2229   -10.8409    -4.9699  C.ar    1  <O>11      -0.0408
   8 C6       -0.8747    -9.6351    -4.3496  C.ar    1  <O>11       0.0282
   9 N1       -1.9179    -8.7469    -3.9043  N.pl3   1  <O>11      -0.3396
  10 C7       -2.7948    -8.1043    -4.8797  C.3     1  <O>11       0.0384
  11 C8       -4.1624    -7.9834    -4.3111  C.ar    1  <O>11       0.0186
  12 C9       -4.5236    -6.8323    -3.5798  C.ar    1  <O>11       0.1221
  13 O3       -3.6548    -5.8947    -3.3872  O.3     1  <O>11      -0.5064
  14 C10      -5.8117    -6.7045    -3.0674  C.ar    1  <O>11      -0.0193
  15 C11      -6.7433    -7.7326    -3.2539  C.ar    1  <O>11      -0.0506
  16 C12      -6.4025    -8.8959    -3.9612  C.ar    1  <O>11      -0.0173
  17 C13      -7.3252    -9.9369    -4.1524  C.ar    1  <O>11      -0.0540
  18 C14      -6.9695   -11.0830    -4.8668  C.ar    1  <O>11      -0.0612
  19 C15      -5.6887   -11.2019    -5.4001  C.ar    1  <O>11      -0.0612
  20 C16      -4.7605   -10.1751    -5.2197  C.ar    1  <O>11      -0.0536
  21 C17      -5.1019    -9.0198    -4.4987  C.ar    1  <O>11      -0.0097
  22 C18       0.4636    -9.2913    -4.1600  C.ar    1  <O>11      -0.0269
  23 H1        2.9041   -10.6687    -2.7201  H       1  <O>11       0.2954
  24 H2       -2.0454    -8.5667    -2.9084  H       1  <O>11       0.1464
  25 H3       -2.8303    -8.7068    -5.7875  H       1  <O>11       0.0512
  26 H4       -2.4097    -7.1126    -5.1169  H       1  <O>11       0.0512
  27 H5       -4.0574    -5.1795    -2.8716  H       1  <O>11       0.2921
  28 H6        1.8739   -12.0113    -5.5368  H       1  <O>11       0.0626
  29 H7       -0.4644   -12.5978    -5.8593  H       1  <O>11       0.0618
  30 H8       -2.2155   -11.0882    -5.1063  H       1  <O>11       0.0636
  31 H9       -6.0797    -5.8524    -2.5504  H       1  <O>11       0.0654
  32 H10      -7.6943    -7.6336    -2.8656  H       1  <O>11       0.0625
  33 H11      -8.2763    -9.8541    -3.7608  H       1  <O>11       0.0624
  34 H12      -7.6561   -11.8419    -4.9995  H       1  <O>11       0.0618
  35 H13      -5.4259   -12.0485    -5.9284  H       1  <O>11       0.0618
  36 H14      -3.8139   -10.2661    -5.6203  H       1  <O>11       0.0624
  37 H15       0.7134    -8.4037    -3.6966  H       1  <O>11       0.0644
@<TRIPOS>BOND
     1     1     2    2
     2     2     3    1
     3     2     4    1
     4     4     5   ar
     5     5     6   ar
     6     6     7   ar
     7     7     8   ar
     8     8     9    1
     9     9    10    1
    10    10    11    1
    11    11    12   ar
    12    12    13    1
    13    12    14   ar
    14    14    15   ar
    15    15    16   ar
    16    16    17   ar
    17    17    18   ar
    18    18    19   ar
    19    19    20   ar
    20    20    21   ar
    21    11    21   ar
    22    16    21   ar
    23     8    22   ar
    24     4    22   ar
    25     3    23    1
    26     9    24    1
    27    10    25    1
    28    10    26    1
    29    13    27    1
    30     5    28    1
    31     6    29    1
    32     7    30    1
    33    14    31    1
    34    15    32    1
    35    17    33    1
    36    18    34    1
    37    19    35    1
    38    20    36    1
    39    22    37    1
@<TRIPOS>MOLECULE
mol48_1_5
 37 39 0 0 0
SMALL
USER_CHARGES
****
VDW energy = 65.41
@<TRIPOS>ATOM
   1 O1        3.4420    -9.1855    -5.2979  O.2     1  <O>11      -0.2451
   2 C1        2.8552    -9.8129    -4.4288  C.2     1  <O>11       0.3369
   3 O2        3.5096   -10.1823    -3.3012  O.3     1  <O>11      -0.4771
   4 C2        1.4620   -10.1610    -4.6040  C.ar    1  <O>11       0.0606
   5 C3        0.4750    -9.2817    -4.1546  C.ar    1  <O>11      -0.0477
   6 C4       -0.8745    -9.6183    -4.3101  C.ar    1  <O>11      -0.0592
   7 C5       -1.2337   -10.8255    -4.9148  C.ar    1  <O>11      -0.0408
   8 C6       -0.2326   -11.6941    -5.3653  C.ar    1  <O>11       0.0282
   9 N1       -0.6088   -12.9371    -5.9892  N.pl3   1  <O>11      -0.3396
  10 C7       -0.7863   -14.1372    -5.1759  C.3     1  <O>11       0.0384
  11 C8       -1.8891   -14.9582    -5.7400  C.ar    1  <O>11       0.0186
  12 C9       -1.7990   -15.4503    -7.0592  C.ar    1  <O>11       0.1221
  13 O3       -0.7656   -15.1659    -7.7818  O.3     1  <O>11      -0.5064
  14 C10      -2.8186   -16.2409    -7.5821  C.ar    1  <O>11      -0.0193
  15 C11      -3.9494   -16.5256    -6.8076  C.ar    1  <O>11      -0.0506
  16 C12      -4.0713   -16.0319    -5.4995  C.ar    1  <O>11      -0.0173
  17 C13      -5.2015   -16.3060    -4.7127  C.ar    1  <O>11      -0.0540
  18 C14      -5.3002   -15.8127    -3.4098  C.ar    1  <O>11      -0.0612
  19 C15      -4.2704   -15.0414    -2.8771  C.ar    1  <O>11      -0.0612
  20 C16      -3.1399   -14.7613    -3.6464  C.ar    1  <O>11      -0.0536
  21 C17      -3.0294   -15.2454    -4.9595  C.ar    1  <O>11      -0.0097
  22 C18       1.1151   -11.3668    -5.2172  C.ar    1  <O>11      -0.0269
  23 H1        2.9041   -10.6687    -2.7201  H       1  <O>11       0.2954
  24 H2       -0.7521   -12.9798    -6.9982  H       1  <O>11       0.1464
  25 H3       -1.0335   -13.8492    -4.1539  H       1  <O>11       0.0512
  26 H4        0.1368   -14.7167    -5.1767  H       1  <O>11       0.0512
  27 H5       -0.8565   -15.5770    -8.6549  H       1  <O>11       0.2921
  28 H6        0.7391    -8.3884    -3.7103  H       1  <O>11       0.0626
  29 H7       -1.6070    -8.9723    -3.9769  H       1  <O>11       0.0618
  30 H8       -2.2287   -11.0748    -5.0282  H       1  <O>11       0.0636
  31 H9       -2.7410   -16.6167    -8.5402  H       1  <O>11       0.0654
  32 H10      -4.7042   -17.1070    -7.2042  H       1  <O>11       0.0625
  33 H11      -5.9674   -16.8781    -5.1013  H       1  <O>11       0.0624
  34 H12      -6.1365   -16.0198    -2.8417  H       1  <O>11       0.0618
  35 H13      -4.3430   -14.6772    -1.9143  H       1  <O>11       0.0618
  36 H14      -2.3775   -14.1927    -3.2458  H       1  <O>11       0.0624
  37 H15       1.8481   -12.0089    -5.5570  H       1  <O>11       0.0644
@<TRIPOS>BOND
     1     1     2    2
     2     2     3    1
     3     2     4    1
     4     4     5   ar
     5     5     6   ar
     6     6     7   ar
     7     7     8   ar
     8     8     9    1
     9     9    10    1
    10    10    11    1
    11    11    12   ar
    12    12    13    1
    13    12    14   ar
    14    14    15   ar
    15    15    16   ar
    16    16    17   ar
    17    17    18   ar
    18    18    19   ar
    19    19    20   ar
    20    20    21   ar
    21    11    21   ar
    22    16    21   ar
    23     8    22   ar
    24     4    22   ar
    25     3    23    1
    26     9    24    1
    27    10    25    1
    28    10    26    1
    29    13    27    1
    30     5    28    1
    31     6    29    1
    32     7    30    1
    33    14    31    1
    34    15    32    1
    35    17    33    1
    36    18    34    1
    37    19    35    1
    38    20    36    1
    39    22    37    1
@<TRIPOS>MOLECULE
mol48_1_6
 37 39 0 0 0
SMALL
USER_CHARGES
****
VDW energy = 65.83
@<TRIPOS>ATOM
   1 O1        3.4420    -9.1855    -5.2979  O.2     1  <O>11      -0.2451
   2 C1        2.8552    -9.8129    -4.4288  C.2     1  <O>11       0.3369
   3 O2        3.5096   -10.1823    -3.3012  O.3     1  <O>11      -0.4771
   4 C2        1.4620   -10.1610    -4.6040  C.ar    1  <O>11       0.0606
   5 C3        0.4750    -9.2817    -4.1546  C.ar    1  <O>11      -0.0477
   6 C4       -0.8745    -9.6183    -4.3101  C.ar    1  <O>11      -0.0592
   7 C5       -1.2337   -10.8255    -4.9148  C.ar    1  <O>11      -0.0408
   8 C6       -0.2326   -11.6941    -5.3653  C.ar    1  <O>11       0.0282
   9 N1       -0.6088   -12.9371    -5.9892  N.pl3   1  <O>11      -0.3396
  10 C7       -1.3119   -12.9274    -7.2693  C.3     1  <O>11       0.0384
  11 C8       -0.8717   -14.0896    -8.0840  C.ar    1  <O>11       0.0186
  12 C9       -1.0602   -15.4018    -7.6013  C.ar    1  <O>11       0.1221
  13 O3       -1.5957   -15.5883    -6.4397  O.3     1  <O>11      -0.5064
  14 C10      -0.6722   -16.4937    -8.3730  C.ar    1  <O>11      -0.0193
  15 C11      -0.0679   -16.2895    -9.6190  C.ar    1  <O>11      -0.0506
  16 C12       0.1480   -14.9935   -10.1129  C.ar    1  <O>11      -0.0173
  17 C13       0.7566   -14.7736   -11.3589  C.ar    1  <O>11      -0.0540
  18 C14       0.9548   -13.4764   -11.8369  C.ar    1  <O>11      -0.0612
  19 C15       0.5457   -12.3838   -11.0765  C.ar    1  <O>11      -0.0612
  20 C16      -0.0619   -12.5862    -9.8364  C.ar    1  <O>11      -0.0536
  21 C17      -0.2623   -13.8842    -9.3404  C.ar    1  <O>11      -0.0097
  22 C18       1.1151   -11.3668    -5.2172  C.ar    1  <O>11      -0.0269
  23 H1        2.9041   -10.6687    -2.7201  H       1  <O>11       0.2954
  24 H2       -0.3841   -13.8240    -5.5382  H       1  <O>11       0.1464
  25 H3       -1.0839   -12.0034    -7.8011  H       1  <O>11       0.0512
  26 H4       -2.3859   -12.9904    -7.0947  H       1  <O>11       0.0512
  27 H5       -1.6547   -16.5385    -6.2577  H       1  <O>11       0.2921
  28 H6        0.7391    -8.3884    -3.7103  H       1  <O>11       0.0626
  29 H7       -1.6070    -8.9723    -3.9769  H       1  <O>11       0.0618
  30 H8       -2.2287   -11.0748    -5.0282  H       1  <O>11       0.0636
  31 H9       -0.8298   -17.4530    -8.0266  H       1  <O>11       0.0654
  32 H10       0.2230   -17.1035   -10.1827  H       1  <O>11       0.0625
  33 H11       1.0607   -15.5792   -11.9277  H       1  <O>11       0.0624
  34 H12       1.4045   -13.3275   -12.7537  H       1  <O>11       0.0618
  35 H13       0.6917   -11.4252   -11.4297  H       1  <O>11       0.0618
  36 H14      -0.3670   -11.7734    -9.2784  H       1  <O>11       0.0624
  37 H15       1.8481   -12.0089    -5.5570  H       1  <O>11       0.0644
@<TRIPOS>BOND
     1     1     2    2
     2     2     3    1
     3     2     4    1
     4     4     5   ar
     5     5     6   ar
     6     6     7   ar
     7     7     8   ar
     8     8     9    1
     9     9    10    1
    10    10    11    1
    11    11    12   ar
    12    12    13    1
    13    12    14   ar
    14    14    15   ar
    15    15    16   ar
    16    16    17   ar
    17    17    18   ar
    18    18    19   ar
    19    19    20   ar
    20    20    21   ar
    21    11    21   ar
    22    16    21   ar
    23     8    22   ar
    24     4    22   ar
    25     3    23    1
    26     9    24    1
    27    10    25    1
    28    10    26    1
    29    13    27    1
    30     5    28    1
    31     6    29    1
    32     7    30    1
    33    14    31    1
    34    15    32    1
    35    17    33    1
    36    18    34    1
    37    19    35    1
    38    20    36    1
    39    22    37    1
@<TRIPOS>MOLECULE
mol48_1_7
 37 39 0 0 0
SMALL
USER_CHARGES
****
VDW energy = 67.74
@<TRIPOS>ATOM
   1 O1        3.4420    -9.1855    -5.2979  O.2     1  <O>11      -0.2451
   2 C1        2.8552    -9.8129    -4.4288  C.2     1  <O>11       0.3369
   3 O2        3.5096   -10.1823    -3.3012  O.3     1  <O>11      -0.4771
   4 C2        1.4620   -10.1610    -4.6040  C.ar    1  <O>11       0.0606
   5 C3        0.8969   -10.1023    -5.8794  C.ar    1  <O>11      -0.0477
   6 C4       -0.4534   -10.4260    -6.0535  C.ar    1  <O>11      -0.0592
   7 C5       -1.2322   -10.8094    -4.9587  C.ar    1  <O>11      -0.0408
   8 C6       -0.6498   -10.8690    -3.6871  C.ar    1  <O>11       0.0282
   9 N1       -1.4573   -11.2662    -2.5620  N.pl3   1  <O>11      -0.3396
  10 C7       -1.1316   -10.7820    -1.2231  C.3     1  <O>11       0.0384
  11 C8       -2.3864   -10.5629    -0.4577  C.ar    1  <O>11       0.0186
  12 C9       -2.9363   -11.6103     0.3110  C.ar    1  <O>11       0.1221
  13 O3       -2.3578   -12.7661     0.3291  O.3     1  <O>11      -0.5064
  14 C10      -4.0978   -11.4009     1.0495  C.ar    1  <O>11      -0.0193
  15 C11      -4.7378   -10.1566     1.0076  C.ar    1  <O>11      -0.0506
  16 C12      -4.2212    -9.1047     0.2353  C.ar    1  <O>11      -0.0173
  17 C13      -4.8547    -7.8529     0.1807  C.ar    1  <O>11      -0.0540
  18 C14      -4.3201    -6.8158    -0.5869  C.ar    1  <O>11      -0.0612
  19 C15      -3.1454    -7.0166    -1.3073  C.ar    1  <O>11      -0.0612
  20 C16      -2.5032    -8.2551    -1.2621  C.ar    1  <O>11      -0.0536
  21 C17      -3.0321    -9.3086    -0.4997  C.ar    1  <O>11      -0.0097
  22 C18       0.6957   -10.5507    -3.5034  C.ar    1  <O>11      -0.0269
  23 H1        2.9041   -10.6687    -2.7201  H       1  <O>11       0.2954
  24 H2       -2.2566   -11.8847    -2.6995  H       1  <O>11       0.1464
  25 H3       -0.5841    -9.8425    -1.3006  H       1  <O>11       0.0512
  26 H4       -0.5155   -11.5200    -0.7095  H       1  <O>11       0.0512
  27 H5       -2.8564   -13.3702     0.9001  H       1  <O>11       0.2921
  28 H6        1.4718    -9.8219    -6.6893  H       1  <O>11       0.0626
  29 H7       -0.8756   -10.3812    -6.9940  H       1  <O>11       0.0618
  30 H8       -2.2284   -11.0467    -5.0864  H       1  <O>11       0.0636
  31 H9       -4.4868   -12.1624     1.6273  H       1  <O>11       0.0654
  32 H10      -5.6020   -10.0107     1.5525  H       1  <O>11       0.0625
  33 H11      -5.7248    -7.6974     0.7134  H       1  <O>11       0.0624
  34 H12      -4.7956    -5.9005    -0.6202  H       1  <O>11       0.0618
  35 H13      -2.7500    -6.2503    -1.8742  H       1  <O>11       0.0618
  36 H14      -1.6307    -8.3977    -1.7945  H       1  <O>11       0.0624
  37 H15       1.1204   -10.6025    -2.5643  H       1  <O>11       0.0644
@<TRIPOS>BOND
     1     1     2    2
     2     2     3    1
     3     2     4    1
     4     4     5   ar
     5     5     6   ar
     6     6     7   ar
     7     7     8   ar
     8     8     9    1
     9     9    10    1
    10    10    11    1
    11    11    12   ar
    12    12    13    1
    13    12    14   ar
    14    14    15   ar
    15    15    16   ar
    16    16    17   ar
    17    17    18   ar
    18    18    19   ar
    19    19    20   ar
    20    20    21   ar
    21    11    21   ar
    22    16    21   ar
    23     8    22   ar
    24     4    22   ar
    25     3    23    1
    26     9    24    1
    27    10    25    1
    28    10    26    1
    29    13    27    1
    30     5    28    1
    31     6    29    1
    32     7    30    1
    33    14    31    1
    34    15    32    1
    35    17    33    1
    36    18    34    1
    37    19    35    1
    38    20    36    1
    39    22    37    1
@<TRIPOS>MOLECULE
mol48_1_8
 37 39 0 0 0
SMALL
USER_CHARGES
****
VDW energy = 68.24
@<TRIPOS>ATOM
   1 O1        3.4420    -9.1855    -5.2979  O.2     1  <O>11      -0.2451
   2 C1        2.8552    -9.8129    -4.4288  C.2     1  <O>11       0.3369
   3 O2        3.5096   -10.1823    -3.3012  O.3     1  <O>11      -0.4771
   4 C2        1.4620   -10.1610    -4.6040  C.ar    1  <O>11       0.0606
   5 C3        0.8969   -10.1023    -5.8794  C.ar    1  <O>11      -0.0477
   6 C4       -0.4534   -10.4260    -6.0535  C.ar    1  <O>11      -0.0592
   7 C5       -1.2322   -10.8094    -4.9587  C.ar    1  <O>11      -0.0408
   8 C6       -0.6498   -10.8690    -3.6871  C.ar    1  <O>11       0.0282
   9 N1       -1.4573   -11.2662    -2.5620  N.pl3   1  <O>11      -0.3396
  10 C7       -1.1316   -10.7820    -1.2231  C.3     1  <O>11       0.0384
  11 C8       -2.3864   -10.5629    -0.4577  C.ar    1  <O>11       0.0186
  12 C9       -3.0284    -9.3073    -0.4994  C.ar    1  <O>11       0.1221
  13 O3       -2.5098    -8.3431    -1.1866  O.3     1  <O>11      -0.5064
  14 C10      -4.2176    -9.1061     0.1960  C.ar    1  <O>11      -0.0193
  15 C11      -4.7637   -10.1432     0.9613  C.ar    1  <O>11      -0.0506
  16 C12      -4.1339   -11.3954     1.0343  C.ar    1  <O>11      -0.0173
  17 C13      -4.6680   -12.4433     1.8012  C.ar    1  <O>11      -0.0540
  18 C14      -4.0309   -13.6850     1.8541  C.ar    1  <O>11      -0.0612
  19 C15      -2.8539   -13.8949     1.1401  C.ar    1  <O>11      -0.0612
  20 C16      -2.3112   -12.8634     0.3721  C.ar    1  <O>11      -0.0536
  21 C17      -2.9373   -11.6082     0.3142  C.ar    1  <O>11      -0.0097
  22 C18       0.6957   -10.5507    -3.5034  C.ar    1  <O>11      -0.0269
  23 H1        2.9041   -10.6687    -2.7201  H       1  <O>11       0.2954
  24 H2       -2.2566   -11.8847    -2.6995  H       1  <O>11       0.1464
  25 H3       -0.5841    -9.8425    -1.3006  H       1  <O>11       0.0512
  26 H4       -0.5155   -11.5200    -0.7095  H       1  <O>11       0.0512
  27 H5       -3.0684    -7.5544    -1.1128  H       1  <O>11       0.2921
  28 H6        1.4718    -9.8219    -6.6893  H       1  <O>11       0.0626
  29 H7       -0.8756   -10.3812    -6.9940  H       1  <O>11       0.0618
  30 H8       -2.2284   -11.0467    -5.0864  H       1  <O>11       0.0636
  31 H9       -4.6962    -8.1931     0.1474  H       1  <O>11       0.0654
  32 H10      -5.6421    -9.9848     1.4793  H       1  <O>11       0.0625
  33 H11      -5.5407   -12.2943     2.3315  H       1  <O>11       0.0624
  34 H12      -4.4325   -14.4471     2.4223  H       1  <O>11       0.0618
  35 H13      -2.3832   -14.8125     1.1787  H       1  <O>11       0.0618
  36 H14      -1.4410   -13.0251    -0.1585  H       1  <O>11       0.0624
  37 H15       1.1204   -10.6025    -2.5643  H       1  <O>11       0.0644
@<TRIPOS>BOND
     1     1     2    2
     2     2     3    1
     3     2     4    1
     4     4     5   ar
     5     5     6   ar
     6     6     7   ar
     7     7     8   ar
     8     8     9    1
     9     9    10    1
    10    10    11    1
    11    11    12   ar
    12    12    13    1
    13    12    14   ar
    14    14    15   ar
    15    15    16   ar
    16    16    17   ar
    17    17    18   ar
    18    18    19   ar
    19    19    20   ar
    20    20    21   ar
    21    11    21   ar
    22    16    21   ar
    23     8    22   ar
    24     4    22   ar
    25     3    23    1
    26     9    24    1
    27    10    25    1
    28    10    26    1
    29    13    27    1
    30     5    28    1
    31     6    29    1
    32     7    30    1
    33    14    31    1
    34    15    32    1
    35    17    33    1
    36    18    34    1
    37    19    35    1
    38    20    36    1
    39    22    37    1
@<TRIPOS>MOLECULE
mol48_1_9
 37 39 0 0 0
SMALL
USER_CHARGES
****
VDW energy = 68.43
@<TRIPOS>ATOM
   1 O1        3.4420    -9.1855    -5.2979  O.2     1  <O>11      -0.2451
   2 C1        2.8552    -9.8129    -4.4288  C.2     1  <O>11       0.3369
   3 O2        3.5096   -10.1823    -3.3012  O.3     1  <O>11      -0.4771
   4 C2        1.4620   -10.1610    -4.6040  C.ar    1  <O>11       0.0606
   5 C3        0.4750    -9.2817    -4.1546  C.ar    1  <O>11      -0.0477
   6 C4       -0.8745    -9.6183    -4.3101  C.ar    1  <O>11      -0.0592
   7 C5       -1.2337   -10.8255    -4.9148  C.ar    1  <O>11      -0.0408
   8 C6       -0.2326   -11.6941    -5.3653  C.ar    1  <O>11       0.0282
   9 N1       -0.6088   -12.9371    -5.9892  N.pl3   1  <O>11      -0.3396
  10 C7        0.2851   -14.0898    -5.9164  C.3     1  <O>11       0.0384
  11 C8       -0.5204   -15.3346    -5.8156  C.ar    1  <O>11       0.0186
  12 C9       -1.4294   -15.6720    -6.8403  C.ar    1  <O>11       0.1221
  13 O3       -1.5753   -14.8842    -7.8547  O.3     1  <O>11      -0.5064
  14 C10      -2.1670   -16.8501    -6.7614  C.ar    1  <O>11      -0.0193
  15 C11      -2.0276   -17.6887    -5.6493  C.ar    1  <O>11      -0.0506
  16 C12      -1.1441   -17.3655    -4.6077  C.ar    1  <O>11      -0.0173
  17 C13      -0.9971   -18.1951    -3.4844  C.ar    1  <O>11      -0.0540
  18 C14      -0.1061   -17.8605    -2.4623  C.ar    1  <O>11      -0.0612
  19 C15       0.6497   -16.6943    -2.5512  C.ar    1  <O>11      -0.0612
  20 C16       0.5157   -15.8600    -3.6621  C.ar    1  <O>11      -0.0536
  21 C17      -0.3802   -16.1804    -4.6944  C.ar    1  <O>11      -0.0097
  22 C18       1.1151   -11.3668    -5.2172  C.ar    1  <O>11      -0.0269
  23 H1        2.9041   -10.6687    -2.7201  H       1  <O>11       0.2954
  24 H2       -1.4992   -13.0132    -6.4811  H       1  <O>11       0.1464
  25 H3        0.9242   -13.9981    -5.0380  H       1  <O>11       0.0512
  26 H4        0.9035   -14.1275    -6.8131  H       1  <O>11       0.0512
  27 H5       -2.2307   -15.2568    -8.4640  H       1  <O>11       0.2921
  28 H6        0.7391    -8.3884    -3.7103  H       1  <O>11       0.0626
  29 H7       -1.6070    -8.9723    -3.9769  H       1  <O>11       0.0618
  30 H8       -2.2287   -11.0748    -5.0282  H       1  <O>11       0.0636
  31 H9       -2.8162   -17.1049    -7.5221  H       1  <O>11       0.0654
  32 H10      -2.5824   -18.5572    -5.5945  H       1  <O>11       0.0625
  33 H11      -1.5534   -19.0614    -3.4134  H       1  <O>11       0.0624
  34 H12      -0.0079   -18.4776    -1.6411  H       1  <O>11       0.0618
  35 H13       1.3084   -16.4471    -1.7962  H       1  <O>11       0.0618
  36 H14       1.0810   -14.9989    -3.7254  H       1  <O>11       0.0624
  37 H15       1.8481   -12.0089    -5.5570  H       1  <O>11       0.0644
@<TRIPOS>BOND
     1     1     2    2
     2     2     3    1
     3     2     4    1
     4     4     5   ar
     5     5     6   ar
     6     6     7   ar
     7     7     8   ar
     8     8     9    1
     9     9    10    1
    10    10    11    1
    11    11    12   ar
    12    12    13    1
    13    12    14   ar
    14    14    15   ar
    15    15    16   ar
    16    16    17   ar
    17    17    18   ar
    18    18    19   ar
    19    19    20   ar
    20    20    21   ar
    21    11    21   ar
    22    16    21   ar
    23     8    22   ar
    24     4    22   ar
    25     3    23    1
    26     9    24    1
    27    10    25    1
    28    10    26    1
    29    13    27    1
    30     5    28    1
    31     6    29    1
    32     7    30    1
    33    14    31    1
    34    15    32    1
    35    17    33    1
    36    18    34    1
    37    19    35    1
    38    20    36    1
    39    22    37    1
@<TRIPOS>MOLECULE
mol48_1_10
 37 39 0 0 0
SMALL
USER_CHARGES
****
VDW energy = 68.83
@<TRIPOS>ATOM
   1 O1        3.4420    -9.1855    -5.2979  O.2     1  <O>11      -0.2451
   2 C1        2.8552    -9.8129    -4.4288  C.2     1  <O>11       0.3369
   3 O2        3.5096   -10.1823    -3.3012  O.3     1  <O>11      -0.4771
   4 C2        1.4620   -10.1610    -4.6040  C.ar    1  <O>11       0.0606
   5 C3        0.4750    -9.2817    -4.1546  C.ar    1  <O>11      -0.0477
   6 C4       -0.8745    -9.6183    -4.3101  C.ar    1  <O>11      -0.0592
   7 C5       -1.2337   -10.8255    -4.9148  C.ar    1  <O>11      -0.0408
   8 C6       -0.2326   -11.6941    -5.3653  C.ar    1  <O>11       0.0282
   9 N1       -0.6088   -12.9371    -5.9892  N.pl3   1  <O>11      -0.3396
  10 C7        0.2851   -14.0898    -5.9164  C.3     1  <O>11       0.0384
  11 C8       -0.5204   -15.3346    -5.8156  C.ar    1  <O>11       0.0186
  12 C9       -1.4029   -15.5182    -4.7303  C.ar    1  <O>11       0.1221
  13 O3       -1.4914   -14.6111    -3.8136  O.3     1  <O>11      -0.5064
  14 C10      -2.1777   -16.6718    -4.6460  C.ar    1  <O>11      -0.0193
  15 C11      -2.0611   -17.6651    -5.6254  C.ar    1  <O>11      -0.0506
  16 C12      -1.1763   -17.5146    -6.7045  C.ar    1  <O>11      -0.0173
  17 C13      -1.0458   -18.5044    -7.6917  C.ar    1  <O>11      -0.0540
  18 C14      -0.1661   -18.3321    -8.7627  C.ar    1  <O>11      -0.0612
  19 C15       0.5922   -17.1683    -8.8608  C.ar    1  <O>11      -0.0612
  20 C16       0.4728   -16.1745    -7.8880  C.ar    1  <O>11      -0.0536
  21 C17      -0.4030   -16.3365    -6.8027  C.ar    1  <O>11      -0.0097
  22 C18       1.1151   -11.3668    -5.2172  C.ar    1  <O>11      -0.0269
  23 H1        2.9041   -10.6687    -2.7201  H       1  <O>11       0.2954
  24 H2       -1.4992   -13.0132    -6.4811  H       1  <O>11       0.1464
  25 H3        0.9242   -13.9981    -5.0380  H       1  <O>11       0.0512
  26 H4        0.9035   -14.1275    -6.8131  H       1  <O>11       0.0512
  27 H5       -2.1364   -14.8869    -3.1447  H       1  <O>11       0.2921
  28 H6        0.7391    -8.3884    -3.7103  H       1  <O>11       0.0626
  29 H7       -1.6070    -8.9723    -3.9769  H       1  <O>11       0.0618
  30 H8       -2.2287   -11.0748    -5.0282  H       1  <O>11       0.0636
  31 H9       -2.8376   -16.7946    -3.8621  H       1  <O>11       0.0654
  32 H10      -2.6339   -18.5205    -5.5529  H       1  <O>11       0.0625
  33 H11      -1.6061   -19.3685    -7.6253  H       1  <O>11       0.0624
  34 H12      -0.0781   -19.0674    -9.4814  H       1  <O>11       0.0618
  35 H13       1.2420   -17.0406    -9.6523  H       1  <O>11       0.0618
  36 H14       1.0339   -15.3120    -7.9673  H       1  <O>11       0.0624
  37 H15       1.8481   -12.0089    -5.5570  H       1  <O>11       0.0644
@<TRIPOS>BOND
     1     1     2    2
     2     2     3    1
     3     2     4    1
     4     4     5   ar
     5     5     6   ar
     6     6     7   ar
     7     7     8   ar
     8     8     9    1
     9     9    10    1
    10    10    11    1
    11    11    12   ar
    12    12    13    1
    13    12    14   ar
    14    14    15   ar
    15    15    16   ar
    16    16    17   ar
    17    17    18   ar
    18    18    19   ar
    19    19    20   ar
    20    20    21   ar
    21    11    21   ar
    22    16    21   ar
    23     8    22   ar
    24     4    22   ar
    25     3    23    1
    26     9    24    1
    27    10    25    1
    28    10    26    1
    29    13    27    1
    30     5    28    1
    31     6    29    1
    32     7    30    1
    33    14    31    1
    34    15    32    1
    35    17    33    1
    36    18    34    1
    37    19    35    1
    38    20    36    1
    39    22    37    1
@<TRIPOS>MOLECULE
mol48_1_11
 37 39 0 0 0
SMALL
USER_CHARGES
****
VDW energy = 68.99
@<TRIPOS>ATOM
   1 O1        3.4420    -9.1855    -5.2979  O.2     1  <O>11      -0.2451
   2 C1        2.8552    -9.8129    -4.4288  C.2     1  <O>11       0.3369
   3 O2        3.5096   -10.1823    -3.3012  O.3     1  <O>11      -0.4771
   4 C2        1.4620   -10.1610    -4.6040  C.ar    1  <O>11       0.0606
   5 C3        0.8969   -10.1023    -5.8794  C.ar    1  <O>11      -0.0477
   6 C4       -0.4534   -10.4260    -6.0535  C.ar    1  <O>11      -0.0592
   7 C5       -1.2322   -10.8094    -4.9587  C.ar    1  <O>11      -0.0408
   8 C6       -0.6498   -10.8690    -3.6871  C.ar    1  <O>11       0.0282
   9 N1       -1.4573   -11.2662    -2.5620  N.pl3   1  <O>11      -0.3396
  10 C7       -2.5631   -10.4194    -2.1224  C.3     1  <O>11       0.0384
  11 C8       -3.6768   -11.2739    -1.6349  C.ar    1  <O>11       0.0186
  12 C9       -3.7352   -11.6502    -0.2764  C.ar    1  <O>11       0.1221
  13 O3       -2.8056   -11.2682     0.5365  O.3     1  <O>11      -0.5064
  14 C10      -4.7908   -12.4296     0.1889  C.ar    1  <O>11      -0.0193
  15 C11      -5.7824   -12.8647    -0.6981  C.ar    1  <O>11      -0.0506
  16 C12      -5.7364   -12.5198    -2.0578  C.ar    1  <O>11      -0.0173
  17 C13      -6.7217   -12.9525    -2.9597  C.ar    1  <O>11      -0.0540
  18 C14      -6.6630   -12.5913    -4.3076  C.ar    1  <O>11      -0.0612
  19 C15      -5.6205   -11.7922    -4.7698  C.ar    1  <O>11      -0.0612
  20 C16      -4.6341   -11.3530    -3.8852  C.ar    1  <O>11      -0.0536
  21 C17      -4.6767   -11.7130    -2.5289  C.ar    1  <O>11      -0.0097
  22 C18       0.6957   -10.5507    -3.5034  C.ar    1  <O>11      -0.0269
  23 H1        2.9041   -10.6687    -2.7201  H       1  <O>11       0.2954
  24 H2       -1.2580   -12.1386    -2.0724  H       1  <O>11       0.1464
  25 H3       -2.9097    -9.8125    -2.9591  H       1  <O>11       0.0512
  26 H4       -2.2241    -9.7678    -1.3171  H       1  <O>11       0.0512
  27 H5       -2.9918   -11.6071     1.4254  H       1  <O>11       0.2921
  28 H6        1.4718    -9.8219    -6.6893  H       1  <O>11       0.0626
  29 H7       -0.8756   -10.3812    -6.9940  H       1  <O>11       0.0618
  30 H8       -2.2284   -11.0467    -5.0864  H       1  <O>11       0.0636
  31 H9       -4.8422   -12.6863     1.1872  H       1  <O>11       0.0654
  32 H10      -6.5584   -13.4476    -0.3473  H       1  <O>11       0.0625
  33 H11      -7.4975   -13.5438    -2.6230  H       1  <O>11       0.0624
  34 H12      -7.3924   -12.9167    -4.9611  H       1  <O>11       0.0618
  35 H13      -5.5772   -11.5248    -5.7656  H       1  <O>11       0.0618
  36 H14      -3.8657   -10.7576    -4.2317  H       1  <O>11       0.0624
  37 H15       1.1204   -10.6025    -2.5643  H       1  <O>11       0.0644
@<TRIPOS>BOND
     1     1     2    2
     2     2     3    1
     3     2     4    1
     4     4     5   ar
     5     5     6   ar
     6     6     7   ar
     7     7     8   ar
     8     8     9    1
     9     9    10    1
    10    10    11    1
    11    11    12   ar
    12    12    13    1
    13    12    14   ar
    14    14    15   ar
    15    15    16   ar
    16    16    17   ar
    17    17    18   ar
    18    18    19   ar
    19    19    20   ar
    20    20    21   ar
    21    11    21   ar
    22    16    21   ar
    23     8    22   ar
    24     4    22   ar
    25     3    23    1
    26     9    24    1
    27    10    25    1
    28    10    26    1
    29    13    27    1
    30     5    28    1
    31     6    29    1
    32     7    30    1
    33    14    31    1
    34    15    32    1
    35    17    33    1
    36    18    34    1
    37    19    35    1
    38    20    36    1
    39    22    37    1
@<TRIPOS>MOLECULE
mol48_1_12
 37 39 0 0 0
SMALL
USER_CHARGES
****
VDW energy = 70.69
@<TRIPOS>ATOM
   1 O1        3.4420    -9.1855    -5.2979  O.2     1  <O>11      -0.2451
   2 C1        2.8552    -9.8129    -4.4288  C.2     1  <O>11       0.3369
   3 O2        3.5096   -10.1823    -3.3012  O.3     1  <O>11      -0.4771
   4 C2        1.4620   -10.1610    -4.6040  C.ar    1  <O>11       0.0606
   5 C3        0.8969   -10.1023    -5.8794  C.ar    1  <O>11      -0.0477
   6 C4       -0.4534   -10.4260    -6.0535  C.ar    1  <O>11      -0.0592
   7 C5       -1.2322   -10.8094    -4.9587  C.ar    1  <O>11      -0.0408
   8 C6       -0.6498   -10.8690    -3.6871  C.ar    1  <O>11       0.0282
   9 N1       -1.4573   -11.2662    -2.5620  N.pl3   1  <O>11      -0.3396
  10 C7       -2.1810   -10.2585    -1.7914  C.3     1  <O>11       0.0384
  11 C8       -3.4765   -10.8234    -1.3320  C.ar    1  <O>11       0.0186
  12 C9       -3.4944   -11.9647    -0.5028  C.ar    1  <O>11       0.1221
  13 O3       -2.3824   -12.5295    -0.1632  O.3     1  <O>11      -0.5064
  14 C10      -4.7051   -12.4816    -0.0499  C.ar    1  <O>11      -0.0193
  15 C11      -5.9096   -11.8847    -0.4404  C.ar    1  <O>11      -0.0506
  16 C12      -5.9191   -10.7602    -1.2802  C.ar    1  <O>11      -0.0173
  17 C13      -7.1196   -10.1538    -1.6833  C.ar    1  <O>11      -0.0540
  18 C14      -7.1078    -9.0299    -2.5124  C.ar    1  <O>11      -0.0612
  19 C15      -5.8966    -8.4977    -2.9470  C.ar    1  <O>11      -0.0612
  20 C16      -4.6946    -9.0885    -2.5539  C.ar    1  <O>11      -0.0536
  21 C17      -4.6912   -10.2221    -1.7256  C.ar    1  <O>11      -0.0097
  22 C18       0.6957   -10.5507    -3.5034  C.ar    1  <O>11      -0.0269
  23 H1        2.9041   -10.6687    -2.7201  H       1  <O>11       0.2954
  24 H2       -1.5246   -12.2506    -2.3033  H       1  <O>11       0.1464
  25 H3       -2.3667    -9.3866    -2.4190  H       1  <O>11       0.0512
  26 H4       -1.5850    -9.9640    -0.9277  H       1  <O>11       0.0512
  27 H5       -2.5661   -13.2941     0.4036  H       1  <O>11       0.2921
  28 H6        1.4718    -9.8219    -6.6893  H       1  <O>11       0.0626
  29 H7       -0.8756   -10.3812    -6.9940  H       1  <O>11       0.0618
  30 H8       -2.2284   -11.0467    -5.0864  H       1  <O>11       0.0636
  31 H9       -4.7147   -13.3041     0.5732  H       1  <O>11       0.0654
  32 H10      -6.8035   -12.2772    -0.1060  H       1  <O>11       0.0625
  33 H11      -8.0204   -10.5427    -1.3634  H       1  <O>11       0.0624
  34 H12      -7.9968    -8.5939    -2.8030  H       1  <O>11       0.0618
  35 H13      -5.8877    -7.6671    -3.5593  H       1  <O>11       0.0618
  36 H14      -3.7995    -8.6880    -2.8753  H       1  <O>11       0.0624
  37 H15       1.1204   -10.6025    -2.5643  H       1  <O>11       0.0644
@<TRIPOS>BOND
     1     1     2    2
     2     2     3    1
     3     2     4    1
     4     4     5   ar
     5     5     6   ar
     6     6     7   ar
     7     7     8   ar
     8     8     9    1
     9     9    10    1
    10    10    11    1
    11    11    12   ar
    12    12    13    1
    13    12    14   ar
    14    14    15   ar
    15    15    16   ar
    16    16    17   ar
    17    17    18   ar
    18    18    19   ar
    19    19    20   ar
    20    20    21   ar
    21    11    21   ar
    22    16    21   ar
    23     8    22   ar
    24     4    22   ar
    25     3    23    1
    26     9    24    1
    27    10    25    1
    28    10    26    1
    29    13    27    1
    30     5    28    1
    31     6    29    1
    32     7    30    1
    33    14    31    1
    34    15    32    1
    35    17    33    1
    36    18    34    1
    37    19    35    1
    38    20    36    1
    39    22    37    1
@<TRIPOS>MOLECULE
mol48_1_13
 37 39 0 0 0
SMALL
USER_CHARGES
****
VDW energy = 71.10
@<TRIPOS>ATOM
   1 O1        3.4420    -9.1855    -5.2979  O.2     1  <O>11      -0.2451
   2 C1        2.8552    -9.8129    -4.4288  C.2     1  <O>11       0.3369
   3 O2        3.5096   -10.1823    -3.3012  O.3     1  <O>11      -0.4771
   4 C2        1.4620   -10.1610    -4.6040  C.ar    1  <O>11       0.0606
   5 C3        0.4750    -9.2817    -4.1546  C.ar    1  <O>11      -0.0477
   6 C4       -0.8745    -9.6183    -4.3101  C.ar    1  <O>11      -0.0592
   7 C5       -1.2337   -10.8255    -4.9148  C.ar    1  <O>11      -0.0408
   8 C6       -0.2326   -11.6941    -5.3653  C.ar    1  <O>11       0.0282
   9 N1       -0.6088   -12.9371    -5.9892  N.pl3   1  <O>11      -0.3396
  10 C7       -1.3119   -12.9274    -7.2693  C.3     1  <O>11       0.0384
  11 C8       -2.6561   -12.3196    -7.0907  C.ar    1  <O>11       0.0186
  12 C9       -2.8292   -10.9289    -7.2530  C.ar    1  <O>11       0.1221
  13 O3       -1.8116   -10.1835    -7.5351  O.3     1  <O>11      -0.5064
  14 C10      -4.0918   -10.3597    -7.1113  C.ar    1  <O>11      -0.0193
  15 C11      -5.1880   -11.1646    -6.7795  C.ar    1  <O>11      -0.0506
  16 C12      -5.0382   -12.5477    -6.5938  C.ar    1  <O>11      -0.0173
  17 C13      -6.1278   -13.3664    -6.2567  C.ar    1  <O>11      -0.0540
  18 C14      -5.9600   -14.7422    -6.0848  C.ar    1  <O>11      -0.0612
  19 C15      -4.7020   -15.3164    -6.2493  C.ar    1  <O>11      -0.0612
  20 C16      -3.6092   -14.5159    -6.5857  C.ar    1  <O>11      -0.0536
  21 C17      -3.7616   -13.1307    -6.7559  C.ar    1  <O>11      -0.0097
  22 C18       1.1151   -11.3668    -5.2172  C.ar    1  <O>11      -0.0269
  23 H1        2.9041   -10.6687    -2.7201  H       1  <O>11       0.2954
  24 H2       -0.3841   -13.8240    -5.5382  H       1  <O>11       0.1464
  25 H3       -1.4203   -13.9500    -7.6311  H       1  <O>11       0.0512
  26 H4       -0.7417   -12.3448    -7.9928  H       1  <O>11       0.0512
  27 H5       -2.0967    -9.2604    -7.6135  H       1  <O>11       0.2921
  28 H6        0.7391    -8.3884    -3.7103  H       1  <O>11       0.0626
  29 H7       -1.6070    -8.9723    -3.9769  H       1  <O>11       0.0618
  30 H8       -2.2287   -11.0748    -5.0282  H       1  <O>11       0.0636
  31 H9       -4.2196    -9.3452    -7.2509  H       1  <O>11       0.0654
  32 H10      -6.1198   -10.7347    -6.6698  H       1  <O>11       0.0625
  33 H11      -7.0628   -12.9471    -6.1347  H       1  <O>11       0.0624
  34 H12      -6.7683   -15.3335    -5.8357  H       1  <O>11       0.0618
  35 H13      -4.5779   -16.3330    -6.1227  H       1  <O>11       0.0618
  36 H14      -2.6797   -14.9466    -6.7106  H       1  <O>11       0.0624
  37 H15       1.8481   -12.0089    -5.5570  H       1  <O>11       0.0644
@<TRIPOS>BOND
     1     1     2    2
     2     2     3    1
     3     2     4    1
     4     4     5   ar
     5     5     6   ar
     6     6     7   ar
     7     7     8   ar
     8     8     9    1
     9     9    10    1
    10    10    11    1
    11    11    12   ar
    12    12    13    1
    13    12    14   ar
    14    14    15   ar
    15    15    16   ar
    16    16    17   ar
    17    17    18   ar
    18    18    19   ar
    19    19    20   ar
    20    20    21   ar
    21    11    21   ar
    22    16    21   ar
    23     8    22   ar
    24     4    22   ar
    25     3    23    1
    26     9    24    1
    27    10    25    1
    28    10    26    1
    29    13    27    1
    30     5    28    1
    31     6    29    1
    32     7    30    1
    33    14    31    1
    34    15    32    1
    35    17    33    1
    36    18    34    1
    37    19    35    1
    38    20    36    1
    39    22    37    1
@<TRIPOS>MOLECULE
mol48_1_14
 37 39 0 0 0
SMALL
USER_CHARGES
****
VDW energy = 71.41
@<TRIPOS>ATOM
   1 O1        3.4420    -9.1855    -5.2979  O.2     1  <O>11      -0.2451
   2 C1        2.8552    -9.8129    -4.4288  C.2     1  <O>11       0.3369
   3 O2        3.5096   -10.1823    -3.3012  O.3     1  <O>11      -0.4771
   4 C2        1.4620   -10.1610    -4.6040  C.ar    1  <O>11       0.0606
   5 C3        1.0134   -11.4175    -4.1926  C.ar    1  <O>11      -0.0477
   6 C4       -0.3305   -11.7649    -4.3706  C.ar    1  <O>11      -0.0592
   7 C5       -1.2205   -10.8590    -4.9532  C.ar    1  <O>11      -0.0408
   8 C6       -0.7568    -9.6008    -5.3553  C.ar    1  <O>11       0.0282
   9 N1       -1.6793    -8.6703    -5.9544  N.pl3   1  <O>11      -0.3396
  10 C7       -1.1946    -7.6710    -6.9030  C.3     1  <O>11       0.0384
  11 C8       -2.2231    -7.4448    -7.9516  C.ar    1  <O>11       0.0186
  12 C9       -3.5063    -6.9808    -7.5931  C.ar    1  <O>11       0.1221
  13 O3       -3.7908    -6.7751    -6.3491  O.3     1  <O>11      -0.5064
  14 C10      -4.4641    -6.7437    -8.5753  C.ar    1  <O>11      -0.0193
  15 C11      -4.1631    -6.9925    -9.9196  C.ar    1  <O>11      -0.0506
  16 C12      -2.9002    -7.4725   -10.2997  C.ar    1  <O>11      -0.0173
  17 C13      -2.5858    -7.7304   -11.6436  C.ar    1  <O>11      -0.0540
  18 C14      -1.3203    -8.1996   -12.0027  C.ar    1  <O>11      -0.0612
  19 C15      -0.3536    -8.4148   -11.0237  C.ar    1  <O>11      -0.0612
  20 C16      -0.6505    -8.1618    -9.6835  C.ar    1  <O>11      -0.0536
  21 C17      -1.9201    -7.6957    -9.3070  C.ar    1  <O>11      -0.0097
  22 C18       0.5801    -9.2441    -5.1802  C.ar    1  <O>11      -0.0269
  23 H1        2.9041   -10.6687    -2.7201  H       1  <O>11       0.2954
  24 H2       -2.6706    -8.7089    -5.7174  H       1  <O>11       0.1464
  25 H3       -0.2747    -8.0276    -7.3668  H       1  <O>11       0.0512
  26 H4       -0.9979    -6.7365    -6.3777  H       1  <O>11       0.0512
  27 H5       -4.7043    -6.4601    -6.2724  H       1  <O>11       0.2921
  28 H6        1.6693   -12.0865    -3.7596  H       1  <O>11       0.0626
  29 H7       -0.6655   -12.6936    -4.0704  H       1  <O>11       0.0618
  30 H8       -2.2113   -11.1153    -5.0861  H       1  <O>11       0.0636
  31 H9       -5.3953    -6.3847    -8.3126  H       1  <O>11       0.0654
  32 H10      -4.8802    -6.8205   -10.6415  H       1  <O>11       0.0625
  33 H11      -3.2974    -7.5716   -12.3738  H       1  <O>11       0.0624
  34 H12      -1.1015    -8.3867   -12.9937  H       1  <O>11       0.0618
  35 H13       0.5817    -8.7611   -11.2889  H       1  <O>11       0.0618
  36 H14       0.0705    -8.3190    -8.9621  H       1  <O>11       0.0624
  37 H15       0.9141    -8.3127    -5.4733  H       1  <O>11       0.0644
@<TRIPOS>BOND
     1     1     2    2
     2     2     3    1
     3     2     4    1
     4     4     5   ar
     5     5     6   ar
     6     6     7   ar
     7     7     8   ar
     8     8     9    1
     9     9    10    1
    10    10    11    1
    11    11    12   ar
    12    12    13    1
    13    12    14   ar
    14    14    15   ar
    15    15    16   ar
    16    16    17   ar
    17    17    18   ar
    18    18    19   ar
    19    19    20   ar
    20    20    21   ar
    21    11    21   ar
    22    16    21   ar
    23     8    22   ar
    24     4    22   ar
    25     3    23    1
    26     9    24    1
    27    10    25    1
    28    10    26    1
    29    13    27    1
    30     5    28    1
    31     6    29    1
    32     7    30    1
    33    14    31    1
    34    15    32    1
    35    17    33    1
    36    18    34    1
    37    19    35    1
    38    20    36    1
    39    22    37    1
@<TRIPOS>MOLECULE
mol48_1_15
 37 39 0 0 0
SMALL
USER_CHARGES
****
VDW energy = 72.11
@<TRIPOS>ATOM
   1 O1        3.4420    -9.1855    -5.2979  O.2     1  <O>11      -0.2451
   2 C1        2.8552    -9.8129    -4.4288  C.2     1  <O>11       0.3369
   3 O2        3.5096   -10.1823    -3.3012  O.3     1  <O>11      -0.4771
   4 C2        1.4620   -10.1610    -4.6040  C.ar    1  <O>11       0.0606
   5 C3        0.5946   -10.0837    -3.5126  C.ar    1  <O>11      -0.0477
   6 C4       -0.7516   -10.4309    -3.6727  C.ar    1  <O>11      -0.0592
   7 C5       -1.2274   -10.8492    -4.9180  C.ar    1  <O>11      -0.0408
   8 C6       -0.3466   -10.9160    -6.0041  C.ar    1  <O>11       0.0282
   9 N1       -0.8430   -11.3468    -7.2862  N.pl3   1  <O>11      -0.3396
  10 C7        0.0549   -12.0023    -8.2334  C.3     1  <O>11       0.0384
  11 C8       -0.6948   -13.0396    -8.9887  C.ar    1  <O>11       0.0186
  12 C9       -1.3058   -14.1096    -8.3015  C.ar    1  <O>11       0.1221
  13 O3       -1.1922   -14.1964    -7.0168  O.3     1  <O>11      -0.5064
  14 C10      -2.0302   -15.0692    -9.0034  C.ar    1  <O>11      -0.0193
  15 C11      -2.1298   -14.9885   -10.3973  C.ar    1  <O>11      -0.0506
  16 C12      -1.5148   -13.9445   -11.1057  C.ar    1  <O>11      -0.0173
  17 C13      -1.6028   -13.8532   -12.5040  C.ar    1  <O>11      -0.0540
  18 C14      -0.9912   -12.8017   -13.1901  C.ar    1  <O>11      -0.0612
  19 C15      -0.2861   -11.8281   -12.4872  C.ar    1  <O>11      -0.0612
  20 C16      -0.1907   -11.9043   -11.0967  C.ar    1  <O>11      -0.0536
  21 C17      -0.7953   -12.9587   -10.3942  C.ar    1  <O>11      -0.0097
  22 C18       0.9963   -10.5699    -5.8555  C.ar    1  <O>11      -0.0269
  23 H1        2.9041   -10.6687    -2.7201  H       1  <O>11       0.2954
  24 H2       -1.8211   -11.1952    -7.5329  H       1  <O>11       0.1464
  25 H3        0.8760   -12.4704    -7.6901  H       1  <O>11       0.0512
  26 H4        0.4537   -11.2628    -8.9277  H       1  <O>11       0.0512
  27 H5       -1.6657   -14.9810    -6.7010  H       1  <O>11       0.2921
  28 H6        0.9443    -9.7723    -2.5929  H       1  <O>11       0.0626
  29 H7       -1.3953   -10.3778    -2.8679  H       1  <O>11       0.0618
  30 H8       -2.2197   -11.1068    -5.0362  H       1  <O>11       0.0636
  31 H9       -2.4935   -15.8395    -8.4963  H       1  <O>11       0.0654
  32 H10      -2.6630   -15.7070   -10.9115  H       1  <O>11       0.0625
  33 H11      -2.1251   -14.5709   -13.0305  H       1  <O>11       0.0624
  34 H12      -1.0618   -12.7461   -14.2181  H       1  <O>11       0.0618
  35 H13       0.1656   -11.0508   -12.9939  H       1  <O>11       0.0618
  36 H14       0.3295   -11.1781   -10.5799  H       1  <O>11       0.0624
  37 H15       1.6389   -10.6156    -6.6617  H       1  <O>11       0.0644
@<TRIPOS>BOND
     1     1     2    2
     2     2     3    1
     3     2     4    1
     4     4     5   ar
     5     5     6   ar
     6     6     7   ar
     7     7     8   ar
     8     8     9    1
     9     9    10    1
    10    10    11    1
    11    11    12   ar
    12    12    13    1
    13    12    14   ar
    14    14    15   ar
    15    15    16   ar
    16    16    17   ar
    17    17    18   ar
    18    18    19   ar
    19    19    20   ar
    20    20    21   ar
    21    11    21   ar
    22    16    21   ar
    23     8    22   ar
    24     4    22   ar
    25     3    23    1
    26     9    24    1
    27    10    25    1
    28    10    26    1
    29    13    27    1
    30     5    28    1
    31     6    29    1
    32     7    30    1
    33    14    31    1
    34    15    32    1
    35    17    33    1
    36    18    34    1
    37    19    35    1
    38    20    36    1
    39    22    37    1
@<TRIPOS>MOLECULE
mol48_1_16
 37 39 0 0 0
SMALL
USER_CHARGES
****
VDW energy = 72.14
@<TRIPOS>ATOM
   1 O1        3.4420    -9.1855    -5.2979  O.2     1  <O>11      -0.2451
   2 C1        2.8552    -9.8129    -4.4288  C.2     1  <O>11       0.3369
   3 O2        3.5096   -10.1823    -3.3012  O.3     1  <O>11      -0.4771
   4 C2        1.4620   -10.1610    -4.6040  C.ar    1  <O>11       0.0606
   5 C3        1.0134   -11.4175    -4.1926  C.ar    1  <O>11      -0.0477
   6 C4       -0.3305   -11.7649    -4.3706  C.ar    1  <O>11      -0.0592
   7 C5       -1.2205   -10.8590    -4.9532  C.ar    1  <O>11      -0.0408
   8 C6       -0.7568    -9.6008    -5.3553  C.ar    1  <O>11       0.0282
   9 N1       -1.6793    -8.6703    -5.9544  N.pl3   1  <O>11      -0.3396
  10 C7       -1.1946    -7.6710    -6.9030  C.3     1  <O>11       0.0384
  11 C8       -2.2231    -7.4448    -7.9516  C.ar    1  <O>11       0.0186
  12 C9       -2.6449    -8.5146    -8.7688  C.ar    1  <O>11       0.1221
  13 O3       -2.1180    -9.6852    -8.6175  O.3     1  <O>11      -0.5064
  14 C10      -3.6265    -8.3120    -9.7351  C.ar    1  <O>11      -0.0193
  15 C11      -4.1769    -7.0377    -9.9158  C.ar    1  <O>11      -0.0506
  16 C12      -3.7602    -5.9531    -9.1285  C.ar    1  <O>11      -0.0173
  17 C13      -4.3004    -4.6687    -9.3015  C.ar    1  <O>11      -0.0540
  18 C14      -3.8788    -3.6040    -8.5019  C.ar    1  <O>11      -0.0612
  19 C15      -2.9141    -3.8103    -7.5191  C.ar    1  <O>11      -0.0612
  20 C16      -2.3685    -5.0817    -7.3341  C.ar    1  <O>11      -0.0536
  21 C17      -2.7782    -6.1601    -8.1342  C.ar    1  <O>11      -0.0097
  22 C18       0.5801    -9.2441    -5.1802  C.ar    1  <O>11      -0.0269
  23 H1        2.9041   -10.6687    -2.7201  H       1  <O>11       0.2954
  24 H2       -2.6706    -8.7089    -5.7174  H       1  <O>11       0.1464
  25 H3       -0.2747    -8.0276    -7.3668  H       1  <O>11       0.0512
  26 H4       -0.9979    -6.7365    -6.3777  H       1  <O>11       0.0512
  27 H5       -2.5137   -10.3040    -9.2500  H       1  <O>11       0.2921
  28 H6        1.6693   -12.0865    -3.7596  H       1  <O>11       0.0626
  29 H7       -0.6655   -12.6936    -4.0704  H       1  <O>11       0.0618
  30 H8       -2.2113   -11.1153    -5.0861  H       1  <O>11       0.0636
  31 H9       -3.9481    -9.1008   -10.3178  H       1  <O>11       0.0654
  32 H10      -4.8994    -6.8936   -10.6384  H       1  <O>11       0.0625
  33 H11      -5.0166    -4.5097   -10.0272  H       1  <O>11       0.0624
  34 H12      -4.2824    -2.6642    -8.6395  H       1  <O>11       0.0618
  35 H13      -2.6028    -3.0238    -6.9280  H       1  <O>11       0.0618
  36 H14      -1.6568    -5.2305    -6.6017  H       1  <O>11       0.0624
  37 H15       0.9141    -8.3127    -5.4733  H       1  <O>11       0.0644
@<TRIPOS>BOND
     1     1     2    2
     2     2     3    1
     3     2     4    1
     4     4     5   ar
     5     5     6   ar
     6     6     7   ar
     7     7     8   ar
     8     8     9    1
     9     9    10    1
    10    10    11    1
    11    11    12   ar
    12    12    13    1
    13    12    14   ar
    14    14    15   ar
    15    15    16   ar
    16    16    17   ar
    17    17    18   ar
    18    18    19   ar
    19    19    20   ar
    20    20    21   ar
    21    11    21   ar
    22    16    21   ar
    23     8    22   ar
    24     4    22   ar
    25     3    23    1
    26     9    24    1
    27    10    25    1
    28    10    26    1
    29    13    27    1
    30     5    28    1
    31     6    29    1
    32     7    30    1
    33    14    31    1
    34    15    32    1
    35    17    33    1
    36    18    34    1
    37    19    35    1
    38    20    36    1
    39    22    37    1
@<TRIPOS>MOLECULE
mol48_1_17
 37 39 0 0 0
SMALL
USER_CHARGES
****
VDW energy = 74.70
@<TRIPOS>ATOM
   1 O1        3.4420    -9.1855    -5.2979  O.2     1  <O>11      -0.2451
   2 C1        2.8552    -9.8129    -4.4288  C.2     1  <O>11       0.3369
   3 O2        3.5096   -10.1823    -3.3012  O.3     1  <O>11      -0.4771
   4 C2        1.4620   -10.1610    -4.6040  C.ar    1  <O>11       0.0606
   5 C3        1.0134   -11.4175    -4.1926  C.ar    1  <O>11      -0.0477
   6 C4       -0.3305   -11.7649    -4.3706  C.ar    1  <O>11      -0.0592
   7 C5       -1.2205   -10.8590    -4.9532  C.ar    1  <O>11      -0.0408
   8 C6       -0.7568    -9.6008    -5.3553  C.ar    1  <O>11       0.0282
   9 N1       -1.6793    -8.6703    -5.9544  N.pl3   1  <O>11      -0.3396
  10 C7       -1.1946    -7.6710    -6.9030  C.3     1  <O>11       0.0384
  11 C8       -0.6953    -8.3515    -8.1261  C.ar    1  <O>11       0.0186
  12 C9       -1.5659    -9.1549    -8.8921  C.ar    1  <O>11       0.1221
  13 O3       -2.7917    -9.3149    -8.5143  O.3     1  <O>11      -0.5064
  14 C10      -1.1081    -9.7733   -10.0524  C.ar    1  <O>11      -0.0193
  15 C11       0.2266    -9.6208   -10.4456  C.ar    1  <O>11      -0.0506
  16 C12       1.1173    -8.8424    -9.6902  C.ar    1  <O>11      -0.0173
  17 C13       2.4596    -8.6839   -10.0704  C.ar    1  <O>11      -0.0540
  18 C14       3.3283    -7.8979    -9.3100  C.ar    1  <O>11      -0.0612
  19 C15       2.8657    -7.2596    -8.1620  C.ar    1  <O>11      -0.0612
  20 C16       1.5336    -7.4063    -7.7718  C.ar    1  <O>11      -0.0536
  21 C17       0.6505    -8.1981    -8.5229  C.ar    1  <O>11      -0.0097
  22 C18       0.5801    -9.2441    -5.1802  C.ar    1  <O>11      -0.0269
  23 H1        2.9041   -10.6687    -2.7201  H       1  <O>11       0.2954
  24 H2       -2.6706    -8.7089    -5.7174  H       1  <O>11       0.1464
  25 H3       -0.3844    -7.1015    -6.4472  H       1  <O>11       0.0512
  26 H4       -2.0086    -6.9963    -7.1678  H       1  <O>11       0.0512
  27 H5       -3.2535    -9.8894    -9.1438  H       1  <O>11       0.2921
  28 H6        1.6693   -12.0865    -3.7596  H       1  <O>11       0.0626
  29 H7       -0.6655   -12.6936    -4.0704  H       1  <O>11       0.0618
  30 H8       -2.2113   -11.1153    -5.0861  H       1  <O>11       0.0636
  31 H9       -1.7523   -10.3439   -10.6221  H       1  <O>11       0.0654
  32 H10       0.5606   -10.0875   -11.3034  H       1  <O>11       0.0625
  33 H11       2.8081    -9.1533   -10.9208  H       1  <O>11       0.0624
  34 H12       4.3131    -7.7902    -9.5989  H       1  <O>11       0.0618
  35 H13       3.5073    -6.6785    -7.6003  H       1  <O>11       0.0618
  36 H14       1.1945    -6.9280    -6.9225  H       1  <O>11       0.0624
  37 H15       0.9141    -8.3127    -5.4733  H       1  <O>11       0.0644
@<TRIPOS>BOND
     1     1     2    2
     2     2     3    1
     3     2     4    1
     4     4     5   ar
     5     5     6   ar
     6     6     7   ar
     7     7     8   ar
     8     8     9    1
     9     9    10    1
    10    10    11    1
    11    11    12   ar
    12    12    13    1
    13    12    14   ar
    14    14    15   ar
    15    15    16   ar
    16    16    17   ar
    17    17    18   ar
    18    18    19   ar
    19    19    20   ar
    20    20    21   ar
    21    11    21   ar
    22    16    21   ar
    23     8    22   ar
    24     4    22   ar
    25     3    23    1
    26     9    24    1
    27    10    25    1
    28    10    26    1
    29    13    27    1
    30     5    28    1
    31     6    29    1
    32     7    30    1
    33    14    31    1
    34    15    32    1
    35    17    33    1
    36    18    34    1
    37    19    35    1
    38    20    36    1
    39    22    37    1
@<TRIPOS>MOLECULE
mol48_1_18
 37 39 0 0 0
SMALL
USER_CHARGES
****
VDW energy = 89.16
@<TRIPOS>ATOM
   1 O1        3.4420    -9.1855    -5.2979  O.2     1  <O>11      -0.2451
   2 C1        2.8552    -9.8129    -4.4288  C.2     1  <O>11       0.3369
   3 O2        3.5096   -10.1823    -3.3012  O.3     1  <O>11      -0.4771
   4 C2        1.4620   -10.1610    -4.6040  C.ar    1  <O>11       0.0606
   5 C3        1.1306   -11.3698    -5.2192  C.ar    1  <O>11      -0.0477
   6 C4       -0.2153   -11.7066    -5.4026  C.ar    1  <O>11      -0.0592
   7 C5       -1.2229   -10.8409    -4.9699  C.ar    1  <O>11      -0.0408
   8 C6       -0.8747    -9.6351    -4.3496  C.ar    1  <O>11       0.0282
   9 N1       -1.9179    -8.7469    -3.9043  N.pl3   1  <O>11      -0.3396
  10 C7       -1.6711    -7.3091    -3.8336  C.3     1  <O>11       0.0384
  11 C8       -2.9130    -6.5759    -4.1919  C.ar    1  <O>11       0.0186
  12 C9       -3.2332    -5.3678    -3.5373  C.ar    1  <O>11       0.1221
  13 O3       -2.4551    -4.9136    -2.6104  O.3     1  <O>11      -0.5064
  14 C10      -4.3828    -4.6653    -3.8882  C.ar    1  <O>11      -0.0193
  15 C11      -5.2383    -5.1722    -4.8734  C.ar    1  <O>11      -0.0506
  16 C12      -4.9517    -6.3815    -5.5256  C.ar    1  <O>11      -0.0173
  17 C13      -5.8027    -6.9040    -6.5127  C.ar    1  <O>11      -0.0540
  18 C14      -5.4956    -8.1048    -7.1565  C.ar    1  <O>11      -0.0612
  19 C15      -4.3339    -8.7965    -6.8232  C.ar    1  <O>11      -0.0612
  20 C16      -3.4771    -8.2894    -5.8449  C.ar    1  <O>11      -0.0536
  21 C17      -3.7759    -7.0867    -5.1851  C.ar    1  <O>11      -0.0097
  22 C18       0.4636    -9.2913    -4.1600  C.ar    1  <O>11      -0.0269
  23 H1        2.9041   -10.6687    -2.7201  H       1  <O>11       0.2954
  24 H2       -2.8291    -9.1209    -3.6389  H       1  <O>11       0.1464
  25 H3       -0.8773    -7.0428    -4.5318  H       1  <O>11       0.0512
  26 H4       -1.3690    -7.0414    -2.8211  H       1  <O>11       0.0512
  27 H5       -2.8130    -4.0818    -2.2644  H       1  <O>11       0.2921
  28 H6        1.8739   -12.0113    -5.5368  H       1  <O>11       0.0626
  29 H7       -0.4644   -12.5978    -5.8593  H       1  <O>11       0.0618
  30 H8       -2.2155   -11.0882    -5.1063  H       1  <O>11       0.0636
  31 H9       -4.6041    -3.7714    -3.4223  H       1  <O>11       0.0654
  32 H10      -6.0920    -4.6493    -5.1238  H       1  <O>11       0.0625
  33 H11      -6.6644    -6.3954    -6.7651  H       1  <O>11       0.0624
  34 H12      -6.1296    -8.4794    -7.8794  H       1  <O>11       0.0618
  35 H13      -4.1066    -9.6836    -7.2991  H       1  <O>11       0.0618
  36 H14      -2.6154    -8.8036    -5.6042  H       1  <O>11       0.0624
  37 H15       0.7134    -8.4037    -3.6966  H       1  <O>11       0.0644
@<TRIPOS>BOND
     1     1     2    2
     2     2     3    1
     3     2     4    1
     4     4     5   ar
     5     5     6   ar
     6     6     7   ar
     7     7     8   ar
     8     8     9    1
     9     9    10    1
    10    10    11    1
    11    11    12   ar
    12    12    13    1
    13    12    14   ar
    14    14    15   ar
    15    15    16   ar
    16    16    17   ar
    17    17    18   ar
    18    18    19   ar
    19    19    20   ar
    20    20    21   ar
    21    11    21   ar
    22    16    21   ar
    23     8    22   ar
    24     4    22   ar
    25     3    23    1
    26     9    24    1
    27    10    25    1
    28    10    26    1
    29    13    27    1
    30     5    28    1
    31     6    29    1
    32     7    30    1
    33    14    31    1
    34    15    32    1
    35    17    33    1
    36    18    34    1
    37    19    35    1
    38    20    36    1
    39    22    37    1
@<TRIPOS>MOLECULE
mol48_1_19
 37 39 0 0 0
SMALL
USER_CHARGES
****
VDW energy = 89.35
@<TRIPOS>ATOM
   1 O1        3.4420    -9.1855    -5.2979  O.2     1  <O>11      -0.2451
   2 C1        2.8552    -9.8129    -4.4288  C.2     1  <O>11       0.3369
   3 O2        3.5096   -10.1823    -3.3012  O.3     1  <O>11      -0.4771
   4 C2        1.4620   -10.1610    -4.6040  C.ar    1  <O>11       0.0606
   5 C3        0.4750    -9.2817    -4.1546  C.ar    1  <O>11      -0.0477
   6 C4       -0.8745    -9.6183    -4.3101  C.ar    1  <O>11      -0.0592
   7 C5       -1.2337   -10.8255    -4.9148  C.ar    1  <O>11      -0.0408
   8 C6       -0.2326   -11.6941    -5.3653  C.ar    1  <O>11       0.0282
   9 N1       -0.6088   -12.9371    -5.9892  N.pl3   1  <O>11      -0.3396
  10 C7        0.2851   -14.0898    -5.9164  C.3     1  <O>11       0.0384
  11 C8       -0.5204   -15.3346    -5.8156  C.ar    1  <O>11       0.0186
  12 C9       -0.0816   -16.5130    -6.4553  C.ar    1  <O>11       0.1221
  13 O3        1.0103   -16.5000    -7.1470  O.3     1  <O>11      -0.5064
  14 C10      -0.8206   -17.6874    -6.3418  C.ar    1  <O>11      -0.0193
  15 C11      -2.0167   -17.6930    -5.6146  C.ar    1  <O>11      -0.0506
  16 C12      -2.4843   -16.5290    -4.9852  C.ar    1  <O>11      -0.0173
  17 C13      -3.6841   -16.5189    -4.2560  C.ar    1  <O>11      -0.0540
  18 C14      -4.1283   -15.3524    -3.6294  C.ar    1  <O>11      -0.0612
  19 C15      -3.3780   -14.1829    -3.7223  C.ar    1  <O>11      -0.0612
  20 C16      -2.1824   -14.1773    -4.4425  C.ar    1  <O>11      -0.0536
  21 C17      -1.7265   -15.3407    -5.0826  C.ar    1  <O>11      -0.0097
  22 C18       1.1151   -11.3668    -5.2172  C.ar    1  <O>11      -0.0269
  23 H1        2.9041   -10.6687    -2.7201  H       1  <O>11       0.2954
  24 H2       -1.4992   -13.0132    -6.4811  H       1  <O>11       0.1464
  25 H3        0.9242   -13.9981    -5.0380  H       1  <O>11       0.0512
  26 H4        0.9035   -14.1275    -6.8131  H       1  <O>11       0.0512
  27 H5        1.1706   -17.3811    -7.5178  H       1  <O>11       0.2921
  28 H6        0.7391    -8.3884    -3.7103  H       1  <O>11       0.0626
  29 H7       -1.6070    -8.9723    -3.9769  H       1  <O>11       0.0618
  30 H8       -2.2287   -11.0748    -5.0282  H       1  <O>11       0.0636
  31 H9       -0.4869   -18.5532    -6.7936  H       1  <O>11       0.0654
  32 H10      -2.5625   -18.5657    -5.5402  H       1  <O>11       0.0625
  33 H11      -4.2439   -17.3827    -4.1824  H       1  <O>11       0.0624
  34 H12      -5.0125   -15.3572    -3.0974  H       1  <O>11       0.0618
  35 H13      -3.7058   -13.3210    -3.2591  H       1  <O>11       0.0618
  36 H14      -1.6279   -13.3092    -4.5051  H       1  <O>11       0.0624
  37 H15       1.8481   -12.0089    -5.5570  H       1  <O>11       0.0644
@<TRIPOS>BOND
     1     1     2    2
     2     2     3    1
     3     2     4    1
     4     4     5   ar
     5     5     6   ar
     6     6     7   ar
     7     7     8   ar
     8     8     9    1
     9     9    10    1
    10    10    11    1
    11    11    12   ar
    12    12    13    1
    13    12    14   ar
    14    14    15   ar
    15    15    16   ar
    16    16    17   ar
    17    17    18   ar
    18    18    19   ar
    19    19    20   ar
    20    20    21   ar
    21    11    21   ar
    22    16    21   ar
    23     8    22   ar
    24     4    22   ar
    25     3    23    1
    26     9    24    1
    27    10    25    1
    28    10    26    1
    29    13    27    1
    30     5    28    1
    31     6    29    1
    32     7    30    1
    33    14    31    1
    34    15    32    1
    35    17    33    1
    36    18    34    1
    37    19    35    1
    38    20    36    1
    39    22    37    1
@<TRIPOS>MOLECULE
mol48_1_20
 37 39 0 0 0
SMALL
USER_CHARGES
****
VDW energy = 92.44
@<TRIPOS>ATOM
   1 O1        3.4420    -9.1855    -5.2979  O.2     1  <O>11      -0.2451
   2 C1        2.8552    -9.8129    -4.4288  C.2     1  <O>11       0.3369
   3 O2        3.5096   -10.1823    -3.3012  O.3     1  <O>11      -0.4771
   4 C2        1.4620   -10.1610    -4.6040  C.ar    1  <O>11       0.0606
   5 C3        1.0134   -11.4175    -4.1926  C.ar    1  <O>11      -0.0477
   6 C4       -0.3305   -11.7649    -4.3706  C.ar    1  <O>11      -0.0592
   7 C5       -1.2205   -10.8590    -4.9532  C.ar    1  <O>11      -0.0408
   8 C6       -0.7568    -9.6008    -5.3553  C.ar    1  <O>11       0.0282
   9 N1       -1.6793    -8.6703    -5.9544  N.pl3   1  <O>11      -0.3396
  10 C7       -1.1946    -7.6710    -6.9030  C.3     1  <O>11       0.0384
  11 C8       -2.2231    -7.4448    -7.9516  C.ar    1  <O>11       0.0186
  12 C9       -2.4148    -6.1529    -8.4851  C.ar    1  <O>11       0.1221
  13 O3       -1.7093    -5.1641    -8.0431  O.3     1  <O>11      -0.5064
  14 C10      -3.3598    -5.9423    -9.4855  C.ar    1  <O>11      -0.0193
  15 C11      -4.1417    -7.0090    -9.9442  C.ar    1  <O>11      -0.0506
  16 C12      -3.9832    -8.2996    -9.4158  C.ar    1  <O>11      -0.0173
  17 C13      -4.7632    -9.3780    -9.8633  C.ar    1  <O>11      -0.0540
  18 C14      -4.5845   -10.6568    -9.3311  C.ar    1  <O>11      -0.0612
  19 C15      -3.6233   -10.8737    -8.3471  C.ar    1  <O>11      -0.0612
  20 C16      -2.8392    -9.8121    -7.8928  C.ar    1  <O>11      -0.0536
  21 C17      -3.0117    -8.5200    -8.4142  C.ar    1  <O>11      -0.0097
  22 C18       0.5801    -9.2441    -5.1802  C.ar    1  <O>11      -0.0269
  23 H1        2.9041   -10.6687    -2.7201  H       1  <O>11       0.2954
  24 H2       -2.6706    -8.7089    -5.7174  H       1  <O>11       0.1464
  25 H3       -0.2747    -8.0276    -7.3668  H       1  <O>11       0.0512
  26 H4       -0.9979    -6.7365    -6.3777  H       1  <O>11       0.0512
  27 H5       -1.9602    -4.3520    -8.5091  H       1  <O>11       0.2921
  28 H6        1.6693   -12.0865    -3.7596  H       1  <O>11       0.0626
  29 H7       -0.6655   -12.6936    -4.0704  H       1  <O>11       0.0618
  30 H8       -2.2113   -11.1153    -5.0861  H       1  <O>11       0.0636
  31 H9       -3.4839    -5.0004    -9.8887  H       1  <O>11       0.0654
  32 H10      -4.8447    -6.8441   -10.6815  H       1  <O>11       0.0625
  33 H11      -5.4762    -9.2239   -10.5933  H       1  <O>11       0.0624
  34 H12      -5.1648   -11.4412    -9.6672  H       1  <O>11       0.0618
  35 H13      -3.4908   -11.8186    -7.9541  H       1  <O>11       0.0618
  36 H14      -2.1254    -9.9786    -7.1663  H       1  <O>11       0.0624
  37 H15       0.9141    -8.3127    -5.4733  H       1  <O>11       0.0644
@<TRIPOS>BOND
     1     1     2    2
     2     2     3    1
     3     2     4    1
     4     4     5   ar
     5     5     6   ar
     6     6     7   ar
     7     7     8   ar
     8     8     9    1
     9     9    10    1
    10    10    11    1
    11    11    12   ar
    12    12    13    1
    13    12    14   ar
    14    14    15   ar
    15    15    16   ar
    16    16    17   ar
    17    17    18   ar
    18    18    19   ar
    19    19    20   ar
    20    20    21   ar
    21    11    21   ar
    22    16    21   ar
    23     8    22   ar
    24     4    22   ar
    25     3    23    1
    26     9    24    1
    27    10    25    1
    28    10    26    1
    29    13    27    1
    30     5    28    1
    31     6    29    1
    32     7    30    1
    33    14    31    1
    34    15    32    1
    35    17    33    1
    36    18    34    1
    37    19    35    1
    38    20    36    1
    39    22    37    1
@<TRIPOS>MOLECULE
mol48_1_21
 37 39 0 0 0
SMALL
USER_CHARGES
****
VDW energy = 92.57
@<TRIPOS>ATOM
   1 O1        3.4420    -9.1855    -5.2979  O.2     1  <O>11      -0.2451
   2 C1        2.8552    -9.8129    -4.4288  C.2     1  <O>11       0.3369
   3 O2        3.5096   -10.1823    -3.3012  O.3     1  <O>11      -0.4771
   4 C2        1.4620   -10.1610    -4.6040  C.ar    1  <O>11       0.0606
   5 C3        0.5946   -10.0837    -3.5126  C.ar    1  <O>11      -0.0477
   6 C4       -0.7516   -10.4309    -3.6727  C.ar    1  <O>11      -0.0592
   7 C5       -1.2274   -10.8492    -4.9180  C.ar    1  <O>11      -0.0408
   8 C6       -0.3466   -10.9160    -6.0041  C.ar    1  <O>11       0.0282
   9 N1       -0.8430   -11.3468    -7.2862  N.pl3   1  <O>11      -0.3396
  10 C7        0.0549   -12.0023    -8.2334  C.3     1  <O>11       0.0384
  11 C8       -0.6948   -13.0396    -8.9887  C.ar    1  <O>11       0.0186
  12 C9       -0.4017   -13.2721   -10.3490  C.ar    1  <O>11       0.1221
  13 O3        0.5043   -12.5651   -10.9409  O.3     1  <O>11      -0.5064
  14 C10      -1.0844   -14.2604   -11.0528  C.ar    1  <O>11      -0.0193
  15 C11      -2.0838   -15.0069   -10.4176  C.ar    1  <O>11      -0.0506
  16 C12      -2.4071   -14.7814    -9.0706  C.ar    1  <O>11      -0.0173
  17 C13      -3.4100   -15.5196    -8.4218  C.ar    1  <O>11      -0.0540
  18 C14      -3.7111   -15.2864    -7.0781  C.ar    1  <O>11      -0.0612
  19 C15      -3.0127   -14.3143    -6.3664  C.ar    1  <O>11      -0.0612
  20 C16      -2.0121   -13.5731    -6.9970  C.ar    1  <O>11      -0.0536
  21 C17      -1.7026   -13.7924    -8.3487  C.ar    1  <O>11      -0.0097
  22 C18       0.9963   -10.5699    -5.8555  C.ar    1  <O>11      -0.0269
  23 H1        2.9041   -10.6687    -2.7201  H       1  <O>11       0.2954
  24 H2       -1.8211   -11.1952    -7.5329  H       1  <O>11       0.1464
  25 H3        0.8760   -12.4704    -7.6901  H       1  <O>11       0.0512
  26 H4        0.4537   -11.2628    -8.9277  H       1  <O>11       0.0512
  27 H5        0.5844   -12.8472   -11.8648  H       1  <O>11       0.2921
  28 H6        0.9443    -9.7723    -2.5929  H       1  <O>11       0.0626
  29 H7       -1.3953   -10.3778    -2.8679  H       1  <O>11       0.0618
  30 H8       -2.2197   -11.1068    -5.0362  H       1  <O>11       0.0636
  31 H9       -0.8539   -14.4426   -12.0421  H       1  <O>11       0.0654
  32 H10      -2.5901   -15.7334   -10.9475  H       1  <O>11       0.0625
  33 H11      -3.9301   -16.2423    -8.9435  H       1  <O>11       0.0624
  34 H12      -4.4512   -15.8345    -6.6126  H       1  <O>11       0.0618
  35 H13      -3.2348   -14.1421    -5.3735  H       1  <O>11       0.0618
  36 H14      -1.4946   -12.8566    -6.4643  H       1  <O>11       0.0624
  37 H15       1.6389   -10.6156    -6.6617  H       1  <O>11       0.0644
@<TRIPOS>BOND
     1     1     2    2
     2     2     3    1
     3     2     4    1
     4     4     5   ar
     5     5     6   ar
     6     6     7   ar
     7     7     8   ar
     8     8     9    1
     9     9    10    1
    10    10    11    1
    11    11    12   ar
    12    12    13    1
    13    12    14   ar
    14    14    15   ar
    15    15    16   ar
    16    16    17   ar
    17    17    18   ar
    18    18    19   ar
    19    19    20   ar
    20    20    21   ar
    21    11    21   ar
    22    16    21   ar
    23     8    22   ar
    24     4    22   ar
    25     3    23    1
    26     9    24    1
    27    10    25    1
    28    10    26    1
    29    13    27    1
    30     5    28    1
    31     6    29    1
    32     7    30    1
    33    14    31    1
    34    15    32    1
    35    17    33    1
    36    18    34    1
    37    19    35    1
    38    20    36    1
    39    22    37    1
@<TRIPOS>MOLECULE
mol48_1_22
 37 39 0 0 0
SMALL
USER_CHARGES
****
VDW energy = 94.77
@<TRIPOS>ATOM
   1 O1        3.4420    -9.1855    -5.2979  O.2     1  <O>11      -0.2451
   2 C1        2.8552    -9.8129    -4.4288  C.2     1  <O>11       0.3369
   3 O2        3.5096   -10.1823    -3.3012  O.3     1  <O>11      -0.4771
   4 C2        1.4620   -10.1610    -4.6040  C.ar    1  <O>11       0.0606
   5 C3        0.8969   -10.1023    -5.8794  C.ar    1  <O>11      -0.0477
   6 C4       -0.4534   -10.4260    -6.0535  C.ar    1  <O>11      -0.0592
   7 C5       -1.2322   -10.8094    -4.9587  C.ar    1  <O>11      -0.0408
   8 C6       -0.6498   -10.8690    -3.6871  C.ar    1  <O>11       0.0282
   9 N1       -1.4573   -11.2662    -2.5620  N.pl3   1  <O>11      -0.3396
  10 C7       -1.1316   -10.7820    -1.2231  C.3     1  <O>11       0.0384
  11 C8       -2.3864   -10.5629    -0.4577  C.ar    1  <O>11       0.0186
  12 C9       -2.4272   -10.8397     0.9251  C.ar    1  <O>11       0.1221
  13 O3       -1.3773   -11.3053     1.5183  O.3     1  <O>11      -0.5064
  14 C10      -3.5935   -10.6115     1.6502  C.ar    1  <O>11      -0.0193
  15 C11      -4.7376   -10.1327     1.0011  C.ar    1  <O>11      -0.0506
  16 C12      -4.7281    -9.8678    -0.3771  C.ar    1  <O>11      -0.0173
  17 C13      -5.8692    -9.3912    -1.0421  C.ar    1  <O>11      -0.0540
  18 C14      -5.8371    -9.1253    -2.4128  C.ar    1  <O>11      -0.0612
  19 C15      -4.6643    -9.3307    -3.1348  C.ar    1  <O>11      -0.0612
  20 C16      -3.5211    -9.8029    -2.4879  C.ar    1  <O>11      -0.0536
  21 C17      -3.5402   -10.0802    -1.1117  C.ar    1  <O>11      -0.0097
  22 C18       0.6957   -10.5507    -3.5034  C.ar    1  <O>11      -0.0269
  23 H1        2.9041   -10.6687    -2.7201  H       1  <O>11       0.2954
  24 H2       -2.2566   -11.8847    -2.6995  H       1  <O>11       0.1464
  25 H3       -0.5841    -9.8425    -1.3006  H       1  <O>11       0.0512
  26 H4       -0.5155   -11.5200    -0.7095  H       1  <O>11       0.0512
  27 H5       -1.5685   -11.4400     2.4590  H       1  <O>11       0.2921
  28 H6        1.4718    -9.8219    -6.6893  H       1  <O>11       0.0626
  29 H7       -0.8756   -10.3812    -6.9940  H       1  <O>11       0.0618
  30 H8       -2.2284   -11.0467    -5.0864  H       1  <O>11       0.0636
  31 H9       -3.6147   -10.7953     2.6655  H       1  <O>11       0.0654
  32 H10      -5.6005    -9.9720     1.5439  H       1  <O>11       0.0625
  33 H11      -6.7410    -9.2357    -0.5122  H       1  <O>11       0.0624
  34 H12      -6.6827    -8.7766    -2.8905  H       1  <O>11       0.0618
  35 H13      -4.6403    -9.1339    -4.1476  H       1  <O>11       0.0618
  36 H14      -2.6532    -9.9496    -3.0265  H       1  <O>11       0.0624
  37 H15       1.1204   -10.6025    -2.5643  H       1  <O>11       0.0644
@<TRIPOS>BOND
     1     1     2    2
     2     2     3    1
     3     2     4    1
     4     4     5   ar
     5     5     6   ar
     6     6     7   ar
     7     7     8   ar
     8     8     9    1
     9     9    10    1
    10    10    11    1
    11    11    12   ar
    12    12    13    1
    13    12    14   ar
    14    14    15   ar
    15    15    16   ar
    16    16    17   ar
    17    17    18   ar
    18    18    19   ar
    19    19    20   ar
    20    20    21   ar
    21    11    21   ar
    22    16    21   ar
    23     8    22   ar
    24     4    22   ar
    25     3    23    1
    26     9    24    1
    27    10    25    1
    28    10    26    1
    29    13    27    1
    30     5    28    1
    31     6    29    1
    32     7    30    1
    33    14    31    1
    34    15    32    1
    35    17    33    1
    36    18    34    1
    37    19    35    1
    38    20    36    1
    39    22    37    1
@<TRIPOS>MOLECULE
mol48_1_23
 37 39 0 0 0
SMALL
USER_CHARGES
****
VDW energy = 96.66
@<TRIPOS>ATOM
   1 O1        3.4420    -9.1855    -5.2979  O.2     1  <O>11      -0.2451
   2 C1        2.8552    -9.8129    -4.4288  C.2     1  <O>11       0.3369
   3 O2        3.5096   -10.1823    -3.3012  O.3     1  <O>11      -0.4771
   4 C2        1.4620   -10.1610    -4.6040  C.ar    1  <O>11       0.0606
   5 C3        1.1306   -11.3698    -5.2192  C.ar    1  <O>11      -0.0477
   6 C4       -0.2153   -11.7066    -5.4026  C.ar    1  <O>11      -0.0592
   7 C5       -1.2229   -10.8409    -4.9699  C.ar    1  <O>11      -0.0408
   8 C6       -0.8747    -9.6351    -4.3496  C.ar    1  <O>11       0.0282
   9 N1       -1.9179    -8.7469    -3.9043  N.pl3   1  <O>11      -0.3396
  10 C7       -2.8131    -9.1559    -2.8251  C.3     1  <O>11       0.0384
  11 C8       -3.1655    -7.9717    -1.9994  C.ar    1  <O>11       0.0186
  12 C9       -4.4593    -7.8547    -1.4491  C.ar    1  <O>11       0.1221
  13 O3       -5.3425    -8.7688    -1.6842  O.3     1  <O>11      -0.5064
  14 C10      -4.7851    -6.7592    -0.6541  C.ar    1  <O>11      -0.0193
  15 C11      -3.8358    -5.7568    -0.4225  C.ar    1  <O>11      -0.0506
  16 C12      -2.5481    -5.8406    -0.9745  C.ar    1  <O>11      -0.0173
  17 C13      -1.5873    -4.8407    -0.7541  C.ar    1  <O>11      -0.0540
  18 C14      -0.3083    -4.9467    -1.3050  C.ar    1  <O>11      -0.0612
  19 C15       0.0263    -6.0535    -2.0809  C.ar    1  <O>11      -0.0612
  20 C16      -0.9174    -7.0565    -2.3081  C.ar    1  <O>11      -0.0536
  21 C17      -2.2088    -6.9606    -1.7657  C.ar    1  <O>11      -0.0097
  22 C18       0.4636    -9.2913    -4.1600  C.ar    1  <O>11      -0.0269
  23 H1        2.9041   -10.6687    -2.7201  H       1  <O>11       0.2954
  24 H2       -2.0317    -7.8322    -4.3414  H       1  <O>11       0.1464
  25 H3       -2.3140    -9.8982    -2.2019  H       1  <O>11       0.0512
  26 H4       -3.7197    -9.5877    -3.2488  H       1  <O>11       0.0512
  27 H5       -6.1721    -8.5417    -1.2373  H       1  <O>11       0.2921
  28 H6        1.8739   -12.0113    -5.5368  H       1  <O>11       0.0626
  29 H7       -0.4644   -12.5978    -5.8593  H       1  <O>11       0.0618
  30 H8       -2.2155   -11.0882    -5.1063  H       1  <O>11       0.0636
  31 H9       -5.7257    -6.6862    -0.2358  H       1  <O>11       0.0654
  32 H10      -4.0865    -4.9444     0.1625  H       1  <O>11       0.0625
  33 H11      -1.8289    -4.0187    -0.1788  H       1  <O>11       0.0624
  34 H12       0.3888    -4.2046    -1.1369  H       1  <O>11       0.0618
  35 H13       0.9715    -6.1321    -2.4877  H       1  <O>11       0.0618
  36 H14      -0.6633    -7.8767    -2.8804  H       1  <O>11       0.0624
  37 H15       0.7134    -8.4037    -3.6966  H       1  <O>11       0.0644
@<TRIPOS>BOND
     1     1     2    2
     2     2     3    1
     3     2     4    1
     4     4     5   ar
     5     5     6   ar
     6     6     7   ar
     7     7     8   ar
     8     8     9    1
     9     9    10    1
    10    10    11    1
    11    11    12   ar
    12    12    13    1
    13    12    14   ar
    14    14    15   ar
    15    15    16   ar
    16    16    17   ar
    17    17    18   ar
    18    18    19   ar
    19    19    20   ar
    20    20    21   ar
    21    11    21   ar
    22    16    21   ar
    23     8    22   ar
    24     4    22   ar
    25     3    23    1
    26     9    24    1
    27    10    25    1
    28    10    26    1
    29    13    27    1
    30     5    28    1
    31     6    29    1
    32     7    30    1
    33    14    31    1
    34    15    32    1
    35    17    33    1
    36    18    34    1
    37    19    35    1
    38    20    36    1
    39    22    37    1
@<TRIPOS>MOLECULE
mol48_1_24
 37 39 0 0 0
SMALL
USER_CHARGES
****
VDW energy = 96.88
@<TRIPOS>ATOM
   1 O1        3.4420    -9.1855    -5.2979  O.2     1  <O>11      -0.2451
   2 C1        2.8552    -9.8129    -4.4288  C.2     1  <O>11       0.3369
   3 O2        3.5096   -10.1823    -3.3012  O.3     1  <O>11      -0.4771
   4 C2        1.4620   -10.1610    -4.6040  C.ar    1  <O>11       0.0606
   5 C3        0.4750    -9.2817    -4.1546  C.ar    1  <O>11      -0.0477
   6 C4       -0.8745    -9.6183    -4.3101  C.ar    1  <O>11      -0.0592
   7 C5       -1.2337   -10.8255    -4.9148  C.ar    1  <O>11      -0.0408
   8 C6       -0.2326   -11.6941    -5.3653  C.ar    1  <O>11       0.0282
   9 N1       -0.6088   -12.9371    -5.9892  N.pl3   1  <O>11      -0.3396
  10 C7       -1.3119   -12.9274    -7.2693  C.3     1  <O>11       0.0384
  11 C8       -0.8717   -14.0896    -8.0840  C.ar    1  <O>11       0.0186
  12 C9       -1.7952   -14.7606    -8.9131  C.ar    1  <O>11       0.1221
  13 O3       -3.0287   -14.3753    -8.9442  O.3     1  <O>11      -0.5064
  14 C10      -1.3805   -15.8339    -9.6969  C.ar    1  <O>11      -0.0193
  15 C11      -0.0505   -16.2668    -9.6419  C.ar    1  <O>11      -0.0506
  16 C12       0.8828   -15.6281    -8.8106  C.ar    1  <O>11      -0.0173
  17 C13       2.2189   -16.0541    -8.7422  C.ar    1  <O>11      -0.0540
  18 C14       3.1347   -15.3997    -7.9153  C.ar    1  <O>11      -0.0612
  19 C15       2.7269   -14.3112    -7.1486  C.ar    1  <O>11      -0.0612
  20 C16       1.4023   -13.8750    -7.2067  C.ar    1  <O>11      -0.0536
  21 C17       0.4692   -14.5266    -8.0287  C.ar    1  <O>11      -0.0097
  22 C18       1.1151   -11.3668    -5.2172  C.ar    1  <O>11      -0.0269
  23 H1        2.9041   -10.6687    -2.7201  H       1  <O>11       0.2954
  24 H2       -0.3841   -13.8240    -5.5382  H       1  <O>11       0.1464
  25 H3       -1.0839   -12.0034    -7.8011  H       1  <O>11       0.0512
  26 H4       -2.3859   -12.9904    -7.0947  H       1  <O>11       0.0512
  27 H5       -3.5284   -14.9346    -9.5583  H       1  <O>11       0.2921
  28 H6        0.7391    -8.3884    -3.7103  H       1  <O>11       0.0626
  29 H7       -1.6070    -8.9723    -3.9769  H       1  <O>11       0.0618
  30 H8       -2.2287   -11.0748    -5.0282  H       1  <O>11       0.0636
  31 H9       -2.0532   -16.3100   -10.3181  H       1  <O>11       0.0654
  32 H10       0.2482   -17.0672   -10.2209  H       1  <O>11       0.0625
  33 H11       2.5276   -16.8593    -9.3090  H       1  <O>11       0.0624
  34 H12       4.1138   -15.7230    -7.8726  H       1  <O>11       0.0618
  35 H13       3.4035   -13.8273    -6.5378  H       1  <O>11       0.0618
  36 H14       1.1058   -13.0653    -6.6397  H       1  <O>11       0.0624
  37 H15       1.8481   -12.0089    -5.5570  H       1  <O>11       0.0644
@<TRIPOS>BOND
     1     1     2    2
     2     2     3    1
     3     2     4    1
     4     4     5   ar
     5     5     6   ar
     6     6     7   ar
     7     7     8   ar
     8     8     9    1
     9     9    10    1
    10    10    11    1
    11    11    12   ar
    12    12    13    1
    13    12    14   ar
    14    14    15   ar
    15    15    16   ar
    16    16    17   ar
    17    17    18   ar
    18    18    19   ar
    19    19    20   ar
    20    20    21   ar
    21    11    21   ar
    22    16    21   ar
    23     8    22   ar
    24     4    22   ar
    25     3    23    1
    26     9    24    1
    27    10    25    1
    28    10    26    1
    29    13    27    1
    30     5    28    1
    31     6    29    1
    32     7    30    1
    33    14    31    1
    34    15    32    1
    35    17    33    1
    36    18    34    1
    37    19    35    1
    38    20    36    1
    39    22    37    1
@<TRIPOS>MOLECULE
mol48_1_25
 37 39 0 0 0
SMALL
USER_CHARGES
****
VDW energy = 100.35
@<TRIPOS>ATOM
   1 O1        3.4420    -9.1855    -5.2979  O.2     1  <O>11      -0.2451
   2 C1        2.8552    -9.8129    -4.4288  C.2     1  <O>11       0.3369
   3 O2        3.5096   -10.1823    -3.3012  O.3     1  <O>11      -0.4771
   4 C2        1.4620   -10.1610    -4.6040  C.ar    1  <O>11       0.0606
   5 C3        1.0134   -11.4175    -4.1926  C.ar    1  <O>11      -0.0477
   6 C4       -0.3305   -11.7649    -4.3706  C.ar    1  <O>11      -0.0592
   7 C5       -1.2205   -10.8590    -4.9532  C.ar    1  <O>11      -0.0408
   8 C6       -0.7568    -9.6008    -5.3553  C.ar    1  <O>11       0.0282
   9 N1       -1.6793    -8.6703    -5.9544  N.pl3   1  <O>11      -0.3396
  10 C7       -1.1946    -7.6710    -6.9030  C.3     1  <O>11       0.0384
  11 C8       -0.2969    -6.7172    -6.2010  C.ar    1  <O>11       0.0186
  12 C9        0.8300    -6.1892    -6.8655  C.ar    1  <O>11       0.1221
  13 O3        1.0910    -6.5549    -8.0775  O.3     1  <O>11      -0.5064
  14 C10       1.6589    -5.2760    -6.2195  C.ar    1  <O>11      -0.0193
  15 C11       1.3901    -4.9014    -4.8978  C.ar    1  <O>11      -0.0506
  16 C12       0.2862    -5.4273    -4.2088  C.ar    1  <O>11      -0.0173
  17 C13       0.0068    -5.0639    -2.8816  C.ar    1  <O>11      -0.0540
  18 C14      -1.1017    -5.5916    -2.2158  C.ar    1  <O>11      -0.0612
  19 C15      -1.9450    -6.4870    -2.8686  C.ar    1  <O>11      -0.0612
  20 C16      -1.6814    -6.8571    -4.1884  C.ar    1  <O>11      -0.0536
  21 C17      -0.5675    -6.3394    -4.8683  C.ar    1  <O>11      -0.0097
  22 C18       0.5801    -9.2441    -5.1802  C.ar    1  <O>11      -0.0269
  23 H1        2.9041   -10.6687    -2.7201  H       1  <O>11       0.2954
  24 H2       -2.6706    -8.7089    -5.7174  H       1  <O>11       0.1464
  25 H3       -2.0422    -7.1299    -7.3241  H       1  <O>11       0.0512
  26 H4       -0.6457    -8.1661    -7.7039  H       1  <O>11       0.0512
  27 H5        1.8914    -6.1046    -8.3876  H       1  <O>11       0.2921
  28 H6        1.6693   -12.0865    -3.7596  H       1  <O>11       0.0626
  29 H7       -0.6655   -12.6936    -4.0704  H       1  <O>11       0.0618
  30 H8       -2.2113   -11.1153    -5.0861  H       1  <O>11       0.0636
  31 H9        2.4710    -4.8755    -6.7147  H       1  <O>11       0.0654
  32 H10       2.0126    -4.2289    -4.4232  H       1  <O>11       0.0625
  33 H11       0.6273    -4.3997    -2.3929  H       1  <O>11       0.0624
  34 H12      -1.2959    -5.3178    -1.2400  H       1  <O>11       0.0618
  35 H13      -2.7644    -6.8767    -2.3770  H       1  <O>11       0.0618
  36 H14      -2.3115    -7.5179    -4.6692  H       1  <O>11       0.0624
  37 H15       0.9141    -8.3127    -5.4733  H       1  <O>11       0.0644
@<TRIPOS>BOND
     1     1     2    2
     2     2     3    1
     3     2     4    1
     4     4     5   ar
     5     5     6   ar
     6     6     7   ar
     7     7     8   ar
     8     8     9    1
     9     9    10    1
    10    10    11    1
    11    11    12   ar
    12    12    13    1
    13    12    14   ar
    14    14    15   ar
    15    15    16   ar
    16    16    17   ar
    17    17    18   ar
    18    18    19   ar
    19    19    20   ar
    20    20    21   ar
    21    11    21   ar
    22    16    21   ar
    23     8    22   ar
    24     4    22   ar
    25     3    23    1
    26     9    24    1
    27    10    25    1
    28    10    26    1
    29    13    27    1
    30     5    28    1
    31     6    29    1
    32     7    30    1
    33    14    31    1
    34    15    32    1
    35    17    33    1
    36    18    34    1
    37    19    35    1
    38    20    36    1
    39    22    37    1
@<TRIPOS>MOLECULE
mol48_1_26
 37 39 0 0 0
SMALL
USER_CHARGES
****
VDW energy = 102.42
@<TRIPOS>ATOM
   1 O1        3.4420    -9.1855    -5.2979  O.2     1  <O>11      -0.2451
   2 C1        2.8552    -9.8129    -4.4288  C.2     1  <O>11       0.3369
   3 O2        3.5096   -10.1823    -3.3012  O.3     1  <O>11      -0.4771
   4 C2        1.4620   -10.1610    -4.6040  C.ar    1  <O>11       0.0606
   5 C3        0.8969   -10.1023    -5.8794  C.ar    1  <O>11      -0.0477
   6 C4       -0.4534   -10.4260    -6.0535  C.ar    1  <O>11      -0.0592
   7 C5       -1.2322   -10.8094    -4.9587  C.ar    1  <O>11      -0.0408
   8 C6       -0.6498   -10.8690    -3.6871  C.ar    1  <O>11       0.0282
   9 N1       -1.4573   -11.2662    -2.5620  N.pl3   1  <O>11      -0.3396
  10 C7       -1.1316   -10.7820    -1.2231  C.3     1  <O>11       0.0384
  11 C8        0.1791   -11.3405    -0.8005  C.ar    1  <O>11       0.0186
  12 C9        1.0618   -10.5598    -0.0247  C.ar    1  <O>11       0.1221
  13 O3        0.7364    -9.3510     0.2975  O.3     1  <O>11      -0.5064
  14 C10       2.2796   -11.0888     0.3943  C.ar    1  <O>11      -0.0193
  15 C11       2.6421   -12.3886     0.0220  C.ar    1  <O>11      -0.0506
  16 C12       1.7898   -13.1782    -0.7653  C.ar    1  <O>11      -0.0173
  17 C13       2.1422   -14.4819    -1.1497  C.ar    1  <O>11      -0.0540
  18 C14       1.2764   -15.2552    -1.9262  C.ar    1  <O>11      -0.0612
  19 C15       0.0478   -14.7359    -2.3263  C.ar    1  <O>11      -0.0612
  20 C16      -0.3174   -13.4420    -1.9511  C.ar    1  <O>11      -0.0536
  21 C17       0.5451   -12.6509    -1.1758  C.ar    1  <O>11      -0.0097
  22 C18       0.6957   -10.5507    -3.5034  C.ar    1  <O>11      -0.0269
  23 H1        2.9041   -10.6687    -2.7201  H       1  <O>11       0.2954
  24 H2       -2.2566   -11.8847    -2.6995  H       1  <O>11       0.1464
  25 H3       -1.9051   -11.1010    -0.5242  H       1  <O>11       0.0512
  26 H4       -1.0778    -9.6935    -1.2332  H       1  <O>11       0.0512
  27 H5        1.4446    -8.9541     0.8272  H       1  <O>11       0.2921
  28 H6        1.4718    -9.8219    -6.6893  H       1  <O>11       0.0626
  29 H7       -0.8756   -10.3812    -6.9940  H       1  <O>11       0.0618
  30 H8       -2.2284   -11.0467    -5.0864  H       1  <O>11       0.0636
  31 H9        2.9145   -10.5230     0.9789  H       1  <O>11       0.0654
  32 H10       3.5492   -12.7717     0.3309  H       1  <O>11       0.0625
  33 H11       3.0507   -14.8729    -0.8553  H       1  <O>11       0.0624
  34 H12       1.5472   -16.2116    -2.2036  H       1  <O>11       0.0618
  35 H13      -0.5923   -15.3073    -2.8997  H       1  <O>11       0.0618
  36 H14      -1.2307   -13.0631    -2.2466  H       1  <O>11       0.0624
  37 H15       1.1204   -10.6025    -2.5643  H       1  <O>11       0.0644
@<TRIPOS>BOND
     1     1     2    2
     2     2     3    1
     3     2     4    1
     4     4     5   ar
     5     5     6   ar
     6     6     7   ar
     7     7     8   ar
     8     8     9    1
     9     9    10    1
    10    10    11    1
    11    11    12   ar
    12    12    13    1
    13    12    14   ar
    14    14    15   ar
    15    15    16   ar
    16    16    17   ar
    17    17    18   ar
    18    18    19   ar
    19    19    20   ar
    20    20    21   ar
    21    11    21   ar
    22    16    21   ar
    23     8    22   ar
    24     4    22   ar
    25     3    23    1
    26     9    24    1
    27    10    25    1
    28    10    26    1
    29    13    27    1
    30     5    28    1
    31     6    29    1
    32     7    30    1
    33    14    31    1
    34    15    32    1
    35    17    33    1
    36    18    34    1
    37    19    35    1
    38    20    36    1
    39    22    37    1
@<TRIPOS>MOLECULE
mol48_1_27
 37 39 0 0 0
SMALL
USER_CHARGES
****
VDW energy = 103.82
@<TRIPOS>ATOM
   1 O1        3.4420    -9.1855    -5.2979  O.2     1  <O>11      -0.2451
   2 C1        2.8552    -9.8129    -4.4288  C.2     1  <O>11       0.3369
   3 O2        3.5096   -10.1823    -3.3012  O.3     1  <O>11      -0.4771
   4 C2        1.4620   -10.1610    -4.6040  C.ar    1  <O>11       0.0606
   5 C3        0.8011    -9.7734    -5.7712  C.ar    1  <O>11      -0.0477
   6 C4       -0.5499   -10.0964    -5.9412  C.ar    1  <O>11      -0.0592
   7 C5       -1.2340   -10.8060    -4.9510  C.ar    1  <O>11      -0.0408
   8 C6       -0.5561   -11.1926    -3.7888  C.ar    1  <O>11       0.0282
   9 N1       -1.2663   -11.9251    -2.7716  N.pl3   1  <O>11      -0.3396
  10 C7       -1.7562   -13.2725    -3.0506  C.3     1  <O>11       0.0384
  11 C8       -1.6570   -14.0994    -1.8198  C.ar    1  <O>11       0.0186
  12 C9       -2.6474   -15.0630    -1.5353  C.ar    1  <O>11       0.1221
  13 O3       -3.6516   -15.2080    -2.3362  O.3     1  <O>11      -0.5064
  14 C10      -2.5443   -15.8570    -0.3963  C.ar    1  <O>11      -0.0193
  15 C11      -1.4704   -15.6803     0.4840  C.ar    1  <O>11      -0.0506
  16 C12      -0.4826   -14.7153     0.2330  C.ar    1  <O>11      -0.0173
  17 C13       0.5978   -14.5243     1.1092  C.ar    1  <O>11      -0.0540
  18 C14       1.5755   -13.5647     0.8374  C.ar    1  <O>11      -0.0612
  19 C15       1.4863   -12.7860    -0.3136  C.ar    1  <O>11      -0.0612
  20 C16       0.4189   -12.9650    -1.1951  C.ar    1  <O>11      -0.0536
  21 C17      -0.5744   -13.9215    -0.9319  C.ar    1  <O>11      -0.0097
  22 C18       0.7909   -10.8776    -3.6108  C.ar    1  <O>11      -0.0269
  23 H1        2.9041   -10.6687    -2.7201  H       1  <O>11       0.2954
  24 H2       -1.4267   -11.5041    -1.8564  H       1  <O>11       0.1464
  25 H3       -1.1528   -13.7214    -3.8398  H       1  <O>11       0.0512
  26 H4       -2.7961   -13.2217    -3.3728  H       1  <O>11       0.0512
  27 H5       -4.2363   -15.9049    -2.0015  H       1  <O>11       0.2921
  28 H6        1.3061    -9.2516    -6.5046  H       1  <O>11       0.0626
  29 H7       -1.0427    -9.8094    -6.8013  H       1  <O>11       0.0618
  30 H8       -2.2307   -11.0431    -5.0753  H       1  <O>11       0.0636
  31 H9       -3.2592   -16.5753    -0.2011  H       1  <O>11       0.0654
  32 H10      -1.4040   -16.2681     1.3296  H       1  <O>11       0.0625
  33 H11       0.6703   -15.0991     1.9632  H       1  <O>11       0.0624
  34 H12       2.3642   -13.4327     1.4897  H       1  <O>11       0.0618
  35 H13       2.2088   -12.0772    -0.5148  H       1  <O>11       0.0618
  36 H14       0.3593   -12.3883    -2.0488  H       1  <O>11       0.0624
  37 H15       1.2863   -11.1709    -2.7543  H       1  <O>11       0.0644
@<TRIPOS>BOND
     1     1     2    2
     2     2     3    1
     3     2     4    1
     4     4     5   ar
     5     5     6   ar
     6     6     7   ar
     7     7     8   ar
     8     8     9    1
     9     9    10    1
    10    10    11    1
    11    11    12   ar
    12    12    13    1
    13    12    14   ar
    14    14    15   ar
    15    15    16   ar
    16    16    17   ar
    17    17    18   ar
    18    18    19   ar
    19    19    20   ar
    20    20    21   ar
    21    11    21   ar
    22    16    21   ar
    23     8    22   ar
    24     4    22   ar
    25     3    23    1
    26     9    24    1
    27    10    25    1
    28    10    26    1
    29    13    27    1
    30     5    28    1
    31     6    29    1
    32     7    30    1
    33    14    31    1
    34    15    32    1
    35    17    33    1
    36    18    34    1
    37    19    35    1
    38    20    36    1
    39    22    37    1
@<TRIPOS>MOLECULE
mol48_1_28
 37 39 0 0 0
SMALL
USER_CHARGES
****
VDW energy = 104.32
@<TRIPOS>ATOM
   1 O1        3.4420    -9.1855    -5.2979  O.2     1  <O>11      -0.2451
   2 C1        2.8552    -9.8129    -4.4288  C.2     1  <O>11       0.3369
   3 O2        3.5096   -10.1823    -3.3012  O.3     1  <O>11      -0.4771
   4 C2        1.4620   -10.1610    -4.6040  C.ar    1  <O>11       0.0606
   5 C3        0.4750    -9.2817    -4.1546  C.ar    1  <O>11      -0.0477
   6 C4       -0.8745    -9.6183    -4.3101  C.ar    1  <O>11      -0.0592
   7 C5       -1.2337   -10.8255    -4.9148  C.ar    1  <O>11      -0.0408
   8 C6       -0.2326   -11.6941    -5.3653  C.ar    1  <O>11       0.0282
   9 N1       -0.6088   -12.9371    -5.9892  N.pl3   1  <O>11      -0.3396
  10 C7       -1.3119   -12.9274    -7.2693  C.3     1  <O>11       0.0384
  11 C8       -2.6561   -12.3196    -7.0907  C.ar    1  <O>11       0.0186
  12 C9       -3.2100   -11.5188    -8.1116  C.ar    1  <O>11       0.1221
  13 O3       -2.5354   -11.2975    -9.1918  O.3     1  <O>11      -0.5064
  14 C10      -4.4797   -10.9687    -7.9581  C.ar    1  <O>11      -0.0193
  15 C11      -5.1979   -11.1872    -6.7766  C.ar    1  <O>11      -0.0506
  16 C12      -4.6607   -11.9642    -5.7385  C.ar    1  <O>11      -0.0173
  17 C13      -5.3679   -12.1883    -4.5464  C.ar    1  <O>11      -0.0540
  18 C14      -4.8198   -12.9718    -3.5284  C.ar    1  <O>11      -0.0612
  19 C15      -3.5597   -13.5421    -3.6902  C.ar    1  <O>11      -0.0612
  20 C16      -2.8449   -13.3297    -4.8701  C.ar    1  <O>11      -0.0536
  21 C17      -3.3805   -12.5395    -5.8995  C.ar    1  <O>11      -0.0097
  22 C18       1.1151   -11.3668    -5.2172  C.ar    1  <O>11      -0.0269
  23 H1        2.9041   -10.6687    -2.7201  H       1  <O>11       0.2954
  24 H2       -0.3841   -13.8240    -5.5382  H       1  <O>11       0.1464
  25 H3       -1.4203   -13.9500    -7.6311  H       1  <O>11       0.0512
  26 H4       -0.7417   -12.3448    -7.9928  H       1  <O>11       0.0512
  27 H5       -3.0521   -10.7344    -9.7880  H       1  <O>11       0.2921
  28 H6        0.7391    -8.3884    -3.7103  H       1  <O>11       0.0626
  29 H7       -1.6070    -8.9723    -3.9769  H       1  <O>11       0.0618
  30 H8       -2.2287   -11.0748    -5.0282  H       1  <O>11       0.0636
  31 H9       -4.8912   -10.4003    -8.7148  H       1  <O>11       0.0654
  32 H10      -6.1358   -10.7709    -6.6672  H       1  <O>11       0.0625
  33 H11      -6.3027   -11.7695    -4.4210  H       1  <O>11       0.0624
  34 H12      -5.3487   -13.1282    -2.6562  H       1  <O>11       0.0618
  35 H13      -3.1548   -14.1215    -2.9383  H       1  <O>11       0.0618
  36 H14      -1.9132   -13.7578    -4.9869  H       1  <O>11       0.0624
  37 H15       1.8481   -12.0089    -5.5570  H       1  <O>11       0.0644
@<TRIPOS>BOND
     1     1     2    2
     2     2     3    1
     3     2     4    1
     4     4     5   ar
     5     5     6   ar
     6     6     7   ar
     7     7     8   ar
     8     8     9    1
     9     9    10    1
    10    10    11    1
    11    11    12   ar
    12    12    13    1
    13    12    14   ar
    14    14    15   ar
    15    15    16   ar
    16    16    17   ar
    17    17    18   ar
    18    18    19   ar
    19    19    20   ar
    20    20    21   ar
    21    11    21   ar
    22    16    21   ar
    23     8    22   ar
    24     4    22   ar
    25     3    23    1
    26     9    24    1
    27    10    25    1
    28    10    26    1
    29    13    27    1
    30     5    28    1
    31     6    29    1
    32     7    30    1
    33    14    31    1
    34    15    32    1
    35    17    33    1
    36    18    34    1
    37    19    35    1
    38    20    36    1
    39    22    37    1
@<TRIPOS>MOLECULE
mol48_1_29
 37 39 0 0 0
SMALL
USER_CHARGES
****
VDW energy = 105.18
@<TRIPOS>ATOM
   1 O1        3.4420    -9.1855    -5.2979  O.2     1  <O>11      -0.2451
   2 C1        2.8552    -9.8129    -4.4288  C.2     1  <O>11       0.3369
   3 O2        3.5096   -10.1823    -3.3012  O.3     1  <O>11      -0.4771
   4 C2        1.4620   -10.1610    -4.6040  C.ar    1  <O>11       0.0606
   5 C3        0.8969   -10.1023    -5.8794  C.ar    1  <O>11      -0.0477
   6 C4       -0.4534   -10.4260    -6.0535  C.ar    1  <O>11      -0.0592
   7 C5       -1.2322   -10.8094    -4.9587  C.ar    1  <O>11      -0.0408
   8 C6       -0.6498   -10.8690    -3.6871  C.ar    1  <O>11       0.0282
   9 N1       -1.4573   -11.2662    -2.5620  N.pl3   1  <O>11      -0.3396
  10 C7       -2.1810   -10.2585    -1.7914  C.3     1  <O>11       0.0384
  11 C8       -1.2089    -9.3712    -1.1014  C.ar    1  <O>11       0.0186
  12 C9       -1.4906    -7.9969    -0.9517  C.ar    1  <O>11       0.1221
  13 O3       -2.5852    -7.5090    -1.4361  O.3     1  <O>11      -0.5064
  14 C10      -0.5938    -7.1677    -0.2836  C.ar    1  <O>11      -0.0193
  15 C11       0.6035    -7.6924     0.2169  C.ar    1  <O>11      -0.0506
  16 C12       0.9155    -9.0522     0.0639  C.ar    1  <O>11      -0.0173
  17 C13       2.1145    -9.5914     0.5571  C.ar    1  <O>11      -0.0540
  18 C14       2.4028   -10.9491     0.4025  C.ar    1  <O>11      -0.0612
  19 C15       1.4960   -11.7845    -0.2449  C.ar    1  <O>11      -0.0612
  20 C16       0.2991   -11.2637    -0.7395  C.ar    1  <O>11      -0.0536
  21 C17      -0.0015    -9.8998    -0.5968  C.ar    1  <O>11      -0.0097
  22 C18       0.6957   -10.5507    -3.5034  C.ar    1  <O>11      -0.0269
  23 H1        2.9041   -10.6687    -2.7201  H       1  <O>11       0.2954
  24 H2       -1.5246   -12.2506    -2.3033  H       1  <O>11       0.1464
  25 H3       -2.8118   -10.7518    -1.0516  H       1  <O>11       0.0512
  26 H4       -2.8033    -9.6658    -2.4619  H       1  <O>11       0.0512
  27 H5       -2.6278    -6.5587    -1.2498  H       1  <O>11       0.2921
  28 H6        1.4718    -9.8219    -6.6893  H       1  <O>11       0.0626
  29 H7       -0.8756   -10.3812    -6.9940  H       1  <O>11       0.0618
  30 H8       -2.2284   -11.0467    -5.0864  H       1  <O>11       0.0636
  31 H9       -0.8116    -6.1668    -0.1573  H       1  <O>11       0.0654
  32 H10       1.2664    -7.0704     0.7054  H       1  <O>11       0.0625
  33 H11       2.7899    -8.9778     1.0389  H       1  <O>11       0.0624
  34 H12       3.2880   -11.3335     0.7681  H       1  <O>11       0.0618
  35 H13       1.7087   -12.7878    -0.3588  H       1  <O>11       0.0618
  36 H14      -0.3715   -11.8875    -1.2149  H       1  <O>11       0.0624
  37 H15       1.1204   -10.6025    -2.5643  H       1  <O>11       0.0644
@<TRIPOS>BOND
     1     1     2    2
     2     2     3    1
     3     2     4    1
     4     4     5   ar
     5     5     6   ar
     6     6     7   ar
     7     7     8   ar
     8     8     9    1
     9     9    10    1
    10    10    11    1
    11    11    12   ar
    12    12    13    1
    13    12    14   ar
    14    14    15   ar
    15    15    16   ar
    16    16    17   ar
    17    17    18   ar
    18    18    19   ar
    19    19    20   ar
    20    20    21   ar
    21    11    21   ar
    22    16    21   ar
    23     8    22   ar
    24     4    22   ar
    25     3    23    1
    26     9    24    1
    27    10    25    1
    28    10    26    1
    29    13    27    1
    30     5    28    1
    31     6    29    1
    32     7    30    1
    33    14    31    1
    34    15    32    1
    35    17    33    1
    36    18    34    1
    37    19    35    1
    38    20    36    1
    39    22    37    1
@<TRIPOS>MOLECULE
mol48_1_30
 37 39 0 0 0
SMALL
USER_CHARGES
****
VDW energy = 105.77
@<TRIPOS>ATOM
   1 O1        3.4420    -9.1855    -5.2979  O.2     1  <O>11      -0.2451
   2 C1        2.8552    -9.8129    -4.4288  C.2     1  <O>11       0.3369
   3 O2        3.5096   -10.1823    -3.3012  O.3     1  <O>11      -0.4771
   4 C2        1.4620   -10.1610    -4.6040  C.ar    1  <O>11       0.0606
   5 C3        0.8969   -10.1023    -5.8794  C.ar    1  <O>11      -0.0477
   6 C4       -0.4534   -10.4260    -6.0535  C.ar    1  <O>11      -0.0592
   7 C5       -1.2322   -10.8094    -4.9587  C.ar    1  <O>11      -0.0408
   8 C6       -0.6498   -10.8690    -3.6871  C.ar    1  <O>11       0.0282
   9 N1       -1.4573   -11.2662    -2.5620  N.pl3   1  <O>11      -0.3396
  10 C7       -2.1810   -10.2585    -1.7914  C.3     1  <O>11       0.0384
  11 C8       -3.4765   -10.8234    -1.3320  C.ar    1  <O>11       0.0186
  12 C9       -3.9919   -10.4697    -0.0673  C.ar    1  <O>11       0.1221
  13 O3       -3.3233    -9.6714     0.6985  O.3     1  <O>11      -0.5064
  14 C10      -5.2174   -10.9772     0.3557  C.ar    1  <O>11      -0.0193
  15 C11      -5.9275   -11.8627    -0.4636  C.ar    1  <O>11      -0.0506
  16 C12      -5.4267   -12.2449    -1.7178  C.ar    1  <O>11      -0.0173
  17 C13      -6.1260   -13.1353    -2.5483  C.ar    1  <O>11      -0.0540
  18 C14      -5.6152   -13.4968    -3.7969  C.ar    1  <O>11      -0.0612
  19 C15      -4.4009   -12.9715    -4.2312  C.ar    1  <O>11      -0.0612
  20 C16      -3.6945   -12.0841    -3.4177  C.ar    1  <O>11      -0.0536
  21 C17      -4.1927   -11.7164    -2.1577  C.ar    1  <O>11      -0.0097
  22 C18       0.6957   -10.5507    -3.5034  C.ar    1  <O>11      -0.0269
  23 H1        2.9041   -10.6687    -2.7201  H       1  <O>11       0.2954
  24 H2       -1.5246   -12.2506    -2.3033  H       1  <O>11       0.1464
  25 H3       -2.3667    -9.3866    -2.4190  H       1  <O>11       0.0512
  26 H4       -1.5850    -9.9640    -0.9277  H       1  <O>11       0.0512
  27 H5       -3.8104    -9.5295     1.5245  H       1  <O>11       0.2921
  28 H6        1.4718    -9.8219    -6.6893  H       1  <O>11       0.0626
  29 H7       -0.8756   -10.3812    -6.9940  H       1  <O>11       0.0618
  30 H8       -2.2284   -11.0467    -5.0864  H       1  <O>11       0.0636
  31 H9       -5.6021   -10.7008     1.2725  H       1  <O>11       0.0654
  32 H10      -6.8321   -12.2399    -0.1407  H       1  <O>11       0.0625
  33 H11      -7.0271   -13.5269    -2.2326  H       1  <O>11       0.0624
  34 H12      -6.1378   -14.1532    -4.3977  H       1  <O>11       0.0618
  35 H13      -4.0235   -13.2381    -5.1540  H       1  <O>11       0.0618
  36 H14      -2.7970   -11.6944    -3.7457  H       1  <O>11       0.0624
  37 H15       1.1204   -10.6025    -2.5643  H       1  <O>11       0.0644
@<TRIPOS>BOND
     1     1     2    2
     2     2     3    1
     3     2     4    1
     4     4     5   ar
     5     5     6   ar
     6     6     7   ar
     7     7     8   ar
     8     8     9    1
     9     9    10    1
    10    10    11    1
    11    11    12   ar
    12    12    13    1
    13    12    14   ar
    14    14    15   ar
    15    15    16   ar
    16    16    17   ar
    17    17    18   ar
    18    18    19   ar
    19    19    20   ar
    20    20    21   ar
    21    11    21   ar
    22    16    21   ar
    23     8    22   ar
    24     4    22   ar
    25     3    23    1
    26     9    24    1
    27    10    25    1
    28    10    26    1
    29    13    27    1
    30     5    28    1
    31     6    29    1
    32     7    30    1
    33    14    31    1
    34    15    32    1
    35    17    33    1
    36    18    34    1
    37    19    35    1
    38    20    36    1
    39    22    37    1
@<TRIPOS>MOLECULE
mol48_2_1
 37 39 0 0 0
SMALL
USER_CHARGES
****
VDW energy = 58.80
@<TRIPOS>ATOM
   1 O1        3.4420    -9.1855    -5.2979  O.2     1  <O>11      -0.2451
   2 C1        2.8552    -9.8129    -4.4288  C.2     1  <O>11       0.3369
   3 O2        3.5096   -10.1823    -3.3012  O.3     1  <O>11      -0.4771
   4 C2        1.4620   -10.1610    -4.6040  C.ar    1  <O>11       0.0606
   5 C3        0.4750    -9.2817    -4.1546  C.ar    1  <O>11      -0.0477
   6 C4       -0.8745    -9.6183    -4.3101  C.ar    1  <O>11      -0.0592
   7 C5       -1.2337   -10.8255    -4.9148  C.ar    1  <O>11      -0.0408
   8 C6       -0.2326   -11.6941    -5.3653  C.ar    1  <O>11       0.0282
   9 N1       -0.6088   -12.9371    -5.9892  N.pl3   1  <O>11      -0.3396
  10 C7       -0.8128   -12.9974    -7.4342  C.3     1  <O>11       0.0384
  11 C8        0.4781   -12.7515    -8.1268  C.ar    1  <O>11       0.0186
  12 C9        0.8551   -11.4387    -8.4726  C.ar    1  <O>11       0.1221
  13 O3        0.0634   -10.4518    -8.2014  O.3     1  <O>11      -0.5064
  14 C10       2.0770   -11.2011    -9.0985  C.ar    1  <O>11      -0.0193
  15 C11       2.9196   -12.2729    -9.4115  C.ar    1  <O>11      -0.0506
  16 C12       2.5576   -13.5926    -9.0965  C.ar    1  <O>11      -0.0173
  17 C13       3.3924   -14.6784    -9.4113  C.ar    1  <O>11      -0.0540
  18 C14       3.0172   -15.9816    -9.0824  C.ar    1  <O>11      -0.0612
  19 C15       1.8087   -16.2183    -8.4330  C.ar    1  <O>11      -0.0612
  20 C16       0.9702   -15.1499    -8.1164  C.ar    1  <O>11      -0.0536
  21 C17       1.3301   -13.8319    -8.4447  C.ar    1  <O>11      -0.0097
  22 C18       1.1151   -11.3668    -5.2172  C.ar    1  <O>11      -0.0269
  23 H1        2.9041   -10.6687    -2.7201  H       1  <O>11       0.2954
  24 H2       -0.7339   -13.7761    -5.4205  H       1  <O>11       0.1464
  25 H3       -1.5346   -12.2373    -7.7313  H       1  <O>11       0.0512
  26 H4       -1.1907   -13.9836    -7.7058  H       1  <O>11       0.0512
  27 H5        0.4679    -9.6219    -8.5001  H       1  <O>11       0.2921
  28 H6        0.7391    -8.3884    -3.7103  H       1  <O>11       0.0626
  29 H7       -1.6070    -8.9723    -3.9769  H       1  <O>11       0.0618
  30 H8       -2.2287   -11.0748    -5.0282  H       1  <O>11       0.0636
  31 H9        2.3599   -10.2362    -9.3308  H       1  <O>11       0.0654
  32 H10       3.8205   -12.0912    -9.8809  H       1  <O>11       0.0625
  33 H11       4.2911   -14.5104    -9.8900  H       1  <O>11       0.0624
  34 H12       3.6369   -16.7716    -9.3211  H       1  <O>11       0.0618
  35 H13       1.5341   -17.1821    -8.1865  H       1  <O>11       0.0618
  36 H14       0.0750   -15.3294    -7.6353  H       1  <O>11       0.0624
  37 H15       1.8481   -12.0089    -5.5570  H       1  <O>11       0.0644
@<TRIPOS>BOND
     1     1     2    2
     2     2     3    1
     3     2     4    1
     4     4     5   ar
     5     5     6   ar
     6     6     7   ar
     7     7     8   ar
     8     8     9    1
     9     9    10    1
    10    10    11    1
    11    11    12   ar
    12    12    13    1
    13    12    14   ar
    14    14    15   ar
    15    15    16   ar
    16    16    17   ar
    17    17    18   ar
    18    18    19   ar
    19    19    20   ar
    20    20    21   ar
    21    11    21   ar
    22    16    21   ar
    23     8    22   ar
    24     4    22   ar
    25     3    23    1
    26     9    24    1
    27    10    25    1
    28    10    26    1
    29    13    27    1
    30     5    28    1
    31     6    29    1
    32     7    30    1
    33    14    31    1
    34    15    32    1
    35    17    33    1
    36    18    34    1
    37    19    35    1
    38    20    36    1
    39    22    37    1
@<TRIPOS>MOLECULE
mol48_2_2
 37 39 0 0 0
SMALL
USER_CHARGES
****
VDW energy = 59.45
@<TRIPOS>ATOM
   1 O1        3.4420    -9.1855    -5.2979  O.2     1  <O>11      -0.2451
   2 C1        2.8552    -9.8129    -4.4288  C.2     1  <O>11       0.3369
   3 O2        3.5096   -10.1823    -3.3012  O.3     1  <O>11      -0.4771
   4 C2        1.4620   -10.1610    -4.6040  C.ar    1  <O>11       0.0606
   5 C3        0.4750    -9.2817    -4.1546  C.ar    1  <O>11      -0.0477
   6 C4       -0.8745    -9.6183    -4.3101  C.ar    1  <O>11      -0.0592
   7 C5       -1.2337   -10.8255    -4.9148  C.ar    1  <O>11      -0.0408
   8 C6       -0.2326   -11.6941    -5.3653  C.ar    1  <O>11       0.0282
   9 N1       -0.6088   -12.9371    -5.9892  N.pl3   1  <O>11      -0.3396
  10 C7       -0.7867   -14.1381    -5.1772  C.3     1  <O>11       0.0384
  11 C8       -0.3593   -15.3290    -5.9553  C.ar    1  <O>11       0.0186
  12 C9        0.9771   -15.7710    -5.8930  C.ar    1  <O>11       0.1221
  13 O3        1.8335   -15.1235    -5.1706  O.3     1  <O>11      -0.5064
  14 C10       1.3758   -16.9032    -6.6005  C.ar    1  <O>11      -0.0193
  15 C11       0.4529   -17.5865    -7.3991  C.ar    1  <O>11      -0.0506
  16 C12      -0.8796   -17.1542    -7.4948  C.ar    1  <O>11      -0.0173
  17 C13      -1.8148   -17.8284    -8.2985  C.ar    1  <O>11      -0.0540
  18 C14      -3.1364   -17.3867    -8.3736  C.ar    1  <O>11      -0.0612
  19 C15      -3.5429   -16.2713    -7.6464  C.ar    1  <O>11      -0.0612
  20 C16      -2.6246   -15.5921    -6.8462  C.ar    1  <O>11      -0.0536
  21 C17      -1.2889   -16.0202    -6.7630  C.ar    1  <O>11      -0.0097
  22 C18       1.1151   -11.3668    -5.2172  C.ar    1  <O>11      -0.0269
  23 H1        2.9041   -10.6687    -2.7201  H       1  <O>11       0.2954
  24 H2       -0.7503   -12.9785    -6.9997  H       1  <O>11       0.1464
  25 H3       -1.8367   -14.2403    -4.9049  H       1  <O>11       0.0512
  26 H4       -0.1828   -14.0568    -4.2730  H       1  <O>11       0.0512
  27 H5        2.7005   -15.5545    -5.2338  H       1  <O>11       0.2921
  28 H6        0.7391    -8.3884    -3.7103  H       1  <O>11       0.0626
  29 H7       -1.6070    -8.9723    -3.9769  H       1  <O>11       0.0618
  30 H8       -2.2287   -11.0748    -5.0282  H       1  <O>11       0.0636
  31 H9        2.3502   -17.2369    -6.5355  H       1  <O>11       0.0654
  32 H10       0.7558   -18.4208    -7.9258  H       1  <O>11       0.0625
  33 H11      -1.5215   -18.6577    -8.8381  H       1  <O>11       0.0624
  34 H12      -3.8138   -17.8879    -8.9693  H       1  <O>11       0.0618
  35 H13      -4.5216   -15.9479    -7.6993  H       1  <O>11       0.0618
  36 H14      -2.9297   -14.7655    -6.3089  H       1  <O>11       0.0624
  37 H15       1.8481   -12.0089    -5.5570  H       1  <O>11       0.0644
@<TRIPOS>BOND
     1     1     2    2
     2     2     3    1
     3     2     4    1
     4     4     5   ar
     5     5     6   ar
     6     6     7   ar
     7     7     8   ar
     8     8     9    1
     9     9    10    1
    10    10    11    1
    11    11    12   ar
    12    12    13    1
    13    12    14   ar
    14    14    15   ar
    15    15    16   ar
    16    16    17   ar
    17    17    18   ar
    18    18    19   ar
    19    19    20   ar
    20    20    21   ar
    21    11    21   ar
    22    16    21   ar
    23     8    22   ar
    24     4    22   ar
    25     3    23    1
    26     9    24    1
    27    10    25    1
    28    10    26    1
    29    13    27    1
    30     5    28    1
    31     6    29    1
    32     7    30    1
    33    14    31    1
    34    15    32    1
    35    17    33    1
    36    18    34    1
    37    19    35    1
    38    20    36    1
    39    22    37    1
@<TRIPOS>MOLECULE
mol48_2_3
 37 39 0 0 0
SMALL
USER_CHARGES
****
VDW energy = 59.73
@<TRIPOS>ATOM
   1 O1        3.4420    -9.1855    -5.2979  O.2     1  <O>11      -0.2451
   2 C1        2.8552    -9.8129    -4.4288  C.2     1  <O>11       0.3369
   3 O2        3.5096   -10.1823    -3.3012  O.3     1  <O>11      -0.4771
   4 C2        1.4620   -10.1610    -4.6040  C.ar    1  <O>11       0.0606
   5 C3        0.4750    -9.2817    -4.1546  C.ar    1  <O>11      -0.0477
   6 C4       -0.8745    -9.6183    -4.3101  C.ar    1  <O>11      -0.0592
   7 C5       -1.2337   -10.8255    -4.9148  C.ar    1  <O>11      -0.0408
   8 C6       -0.2326   -11.6941    -5.3653  C.ar    1  <O>11       0.0282
   9 N1       -0.6088   -12.9371    -5.9892  N.pl3   1  <O>11      -0.3396
  10 C7       -0.8128   -12.9974    -7.4342  C.3     1  <O>11       0.0384
  11 C8       -1.8945   -13.9680    -7.7411  C.ar    1  <O>11       0.0186
  12 C9       -1.5839   -15.3238    -7.9661  C.ar    1  <O>11       0.1221
  13 O3       -0.3512   -15.7149    -7.9230  O.3     1  <O>11      -0.5064
  14 C10      -2.5985   -16.2422    -8.2281  C.ar    1  <O>11      -0.0193
  15 C11      -3.9274   -15.8114    -8.2974  C.ar    1  <O>11      -0.0506
  16 C12      -4.2610   -14.4621    -8.0979  C.ar    1  <O>11      -0.0173
  17 C13      -5.5916   -14.0158    -8.1711  C.ar    1  <O>11      -0.0540
  18 C14      -5.9026   -12.6715    -7.9619  C.ar    1  <O>11      -0.0612
  19 C15      -4.8930   -11.7573    -7.6736  C.ar    1  <O>11      -0.0612
  20 C16      -3.5682   -12.1866    -7.5997  C.ar    1  <O>11      -0.0536
  21 C17      -3.2369   -13.5355    -7.8125  C.ar    1  <O>11      -0.0097
  22 C18       1.1151   -11.3668    -5.2172  C.ar    1  <O>11      -0.0269
  23 H1        2.9041   -10.6687    -2.7201  H       1  <O>11       0.2954
  24 H2       -0.7339   -13.7761    -5.4205  H       1  <O>11       0.1464
  25 H3        0.1096   -13.3170    -7.9182  H       1  <O>11       0.0512
  26 H4       -1.0931   -12.0099    -7.8020  H       1  <O>11       0.0512
  27 H5       -0.3089   -16.6687    -8.0961  H       1  <O>11       0.2921
  28 H6        0.7391    -8.3884    -3.7103  H       1  <O>11       0.0626
  29 H7       -1.6070    -8.9723    -3.9769  H       1  <O>11       0.0618
  30 H8       -2.2287   -11.0748    -5.0282  H       1  <O>11       0.0636
  31 H9       -2.3698   -17.2384    -8.3708  H       1  <O>11       0.0654
  32 H10      -4.6738   -16.4953    -8.4981  H       1  <O>11       0.0625
  33 H11      -6.3456   -14.6882    -8.3814  H       1  <O>11       0.0624
  34 H12      -6.8829   -12.3546    -8.0210  H       1  <O>11       0.0618
  35 H13      -5.1245   -10.7641    -7.5149  H       1  <O>11       0.0618
  36 H14      -2.8226   -11.5059    -7.3861  H       1  <O>11       0.0624
  37 H15       1.8481   -12.0089    -5.5570  H       1  <O>11       0.0644
@<TRIPOS>BOND
     1     1     2    2
     2     2     3    1
     3     2     4    1
     4     4     5   ar
     5     5     6   ar
     6     6     7   ar
     7     7     8   ar
     8     8     9    1
     9     9    10    1
    10    10    11    1
    11    11    12   ar
    12    12    13    1
    13    12    14   ar
    14    14    15   ar
    15    15    16   ar
    16    16    17   ar
    17    17    18   ar
    18    18    19   ar
    19    19    20   ar
    20    20    21   ar
    21    11    21   ar
    22    16    21   ar
    23     8    22   ar
    24     4    22   ar
    25     3    23    1
    26     9    24    1
    27    10    25    1
    28    10    26    1
    29    13    27    1
    30     5    28    1
    31     6    29    1
    32     7    30    1
    33    14    31    1
    34    15    32    1
    35    17    33    1
    36    18    34    1
    37    19    35    1
    38    20    36    1
    39    22    37    1
@<TRIPOS>MOLECULE
mol48_2_4
 37 39 0 0 0
SMALL
USER_CHARGES
****
VDW energy = 59.95
@<TRIPOS>ATOM
   1 O1        3.4420    -9.1855    -5.2979  O.2     1  <O>11      -0.2451
   2 C1        2.8552    -9.8129    -4.4288  C.2     1  <O>11       0.3369
   3 O2        3.5096   -10.1823    -3.3012  O.3     1  <O>11      -0.4771
   4 C2        1.4620   -10.1610    -4.6040  C.ar    1  <O>11       0.0606
   5 C3        0.4750    -9.2817    -4.1546  C.ar    1  <O>11      -0.0477
   6 C4       -0.8745    -9.6183    -4.3101  C.ar    1  <O>11      -0.0592
   7 C5       -1.2337   -10.8255    -4.9148  C.ar    1  <O>11      -0.0408
   8 C6       -0.2326   -11.6941    -5.3653  C.ar    1  <O>11       0.0282
   9 N1       -0.6088   -12.9371    -5.9892  N.pl3   1  <O>11      -0.3396
  10 C7       -0.8128   -12.9974    -7.4342  C.3     1  <O>11       0.0384
  11 C8       -1.8945   -13.9680    -7.7411  C.ar    1  <O>11       0.0186
  12 C9       -3.2337   -13.5352    -7.8080  C.ar    1  <O>11       0.1221
  13 O3       -3.5181   -12.2933    -7.5820  O.3     1  <O>11      -0.5064
  14 C10      -4.2481   -14.4374    -8.1215  C.ar    1  <O>11      -0.0193
  15 C11      -3.9397   -15.7838    -8.3417  C.ar    1  <O>11      -0.0506
  16 C12      -2.6157   -16.2445    -8.2602  C.ar    1  <O>11      -0.0173
  17 C13      -2.2937   -17.5958    -8.4732  C.ar    1  <O>11      -0.0540
  18 C14      -0.9703   -18.0316    -8.3952  C.ar    1  <O>11      -0.0612
  19 C15       0.0479   -17.1264    -8.1082  C.ar    1  <O>11      -0.0612
  20 C16      -0.2581   -15.7830    -7.8932  C.ar    1  <O>11      -0.0536
  21 C17      -1.5858   -15.3281    -7.9629  C.ar    1  <O>11      -0.0097
  22 C18       1.1151   -11.3668    -5.2172  C.ar    1  <O>11      -0.0269
  23 H1        2.9041   -10.6687    -2.7201  H       1  <O>11       0.2954
  24 H2       -0.7339   -13.7761    -5.4205  H       1  <O>11       0.1464
  25 H3        0.1096   -13.3170    -7.9182  H       1  <O>11       0.0512
  26 H4       -1.0931   -12.0099    -7.8020  H       1  <O>11       0.0512
  27 H5       -4.4753   -12.1604    -7.6684  H       1  <O>11       0.2921
  28 H6        0.7391    -8.3884    -3.7103  H       1  <O>11       0.0626
  29 H7       -1.6070    -8.9723    -3.9769  H       1  <O>11       0.0618
  30 H8       -2.2287   -11.0748    -5.0282  H       1  <O>11       0.0636
  31 H9       -5.2253   -14.1128    -8.1911  H       1  <O>11       0.0654
  32 H10      -4.6962   -16.4484    -8.5674  H       1  <O>11       0.0625
  33 H11      -3.0427   -18.2720    -8.6892  H       1  <O>11       0.0624
  34 H12      -0.7459   -19.0268    -8.5505  H       1  <O>11       0.0618
  35 H13       1.0268   -17.4489    -8.0549  H       1  <O>11       0.0618
  36 H14       0.4993   -15.1151    -7.6803  H       1  <O>11       0.0624
  37 H15       1.8481   -12.0089    -5.5570  H       1  <O>11       0.0644
@<TRIPOS>BOND
     1     1     2    2
     2     2     3    1
     3     2     4    1
     4     4     5   ar
     5     5     6   ar
     6     6     7   ar
     7     7     8   ar
     8     8     9    1
     9     9    10    1
    10    10    11    1
    11    11    12   ar
    12    12    13    1
    13    12    14   ar
    14    14    15   ar
    15    15    16   ar
    16    16    17   ar
    17    17    18   ar
    18    18    19   ar
    19    19    20   ar
    20    20    21   ar
    21    11    21   ar
    22    16    21   ar
    23     8    22   ar
    24     4    22   ar
    25     3    23    1
    26     9    24    1
    27    10    25    1
    28    10    26    1
    29    13    27    1
    30     5    28    1
    31     6    29    1
    32     7    30    1
    33    14    31    1
    34    15    32    1
    35    17    33    1
    36    18    34    1
    37    19    35    1
    38    20    36    1
    39    22    37    1
@<TRIPOS>MOLECULE
mol48_2_5
 37 39 0 0 0
SMALL
USER_CHARGES
****
VDW energy = 60.89
@<TRIPOS>ATOM
   1 O1        3.4420    -9.1855    -5.2979  O.2     1  <O>11      -0.2451
   2 C1        2.8552    -9.8129    -4.4288  C.2     1  <O>11       0.3369
   3 O2        3.5096   -10.1823    -3.3012  O.3     1  <O>11      -0.4771
   4 C2        1.4620   -10.1610    -4.6040  C.ar    1  <O>11       0.0606
   5 C3        0.4750    -9.2817    -4.1546  C.ar    1  <O>11      -0.0477
   6 C4       -0.8745    -9.6183    -4.3101  C.ar    1  <O>11      -0.0592
   7 C5       -1.2337   -10.8255    -4.9148  C.ar    1  <O>11      -0.0408
   8 C6       -0.2326   -11.6941    -5.3653  C.ar    1  <O>11       0.0282
   9 N1       -0.6088   -12.9371    -5.9892  N.pl3   1  <O>11      -0.3396
  10 C7       -1.3119   -12.9291    -7.2694  C.3     1  <O>11       0.0384
  11 C8       -2.2636   -14.0685    -7.3183  C.ar    1  <O>11       0.0186
  12 C9       -3.5857   -13.9047    -6.8596  C.ar    1  <O>11       0.1221
  13 O3       -3.9605   -12.7635    -6.3783  O.3     1  <O>11      -0.5064
  14 C10      -4.4888   -14.9634    -6.9282  C.ar    1  <O>11      -0.0193
  15 C11      -4.0733   -16.2024    -7.4271  C.ar    1  <O>11      -0.0506
  16 C12      -2.7555   -16.3976    -7.8709  C.ar    1  <O>11      -0.0173
  17 C13      -2.3242   -17.6392    -8.3684  C.ar    1  <O>11      -0.0540
  18 C14      -1.0120   -17.8098    -8.8118  C.ar    1  <O>11      -0.0612
  19 C15      -0.1157   -16.7455    -8.7687  C.ar    1  <O>11      -0.0612
  20 C16      -0.5303   -15.5085    -8.2758  C.ar    1  <O>11      -0.0536
  21 C17      -1.8463   -15.3206    -7.8206  C.ar    1  <O>11      -0.0097
  22 C18       1.1151   -11.3668    -5.2172  C.ar    1  <O>11      -0.0269
  23 H1        2.9041   -10.6687    -2.7201  H       1  <O>11       0.2954
  24 H2       -0.3845   -13.8241    -5.5355  H       1  <O>11       0.1464
  25 H3       -0.5907   -13.0235    -8.0806  H       1  <O>11       0.0512
  26 H4       -1.8588   -11.9918    -7.3764  H       1  <O>11       0.0512
  27 H5       -4.8918   -12.8161    -6.1109  H       1  <O>11       0.2921
  28 H6        0.7391    -8.3884    -3.7103  H       1  <O>11       0.0626
  29 H7       -1.6070    -8.9723    -3.9769  H       1  <O>11       0.0618
  30 H8       -2.2287   -11.0748    -5.0282  H       1  <O>11       0.0636
  31 H9       -5.4624   -14.8338    -6.6116  H       1  <O>11       0.0654
  32 H10      -4.7452   -16.9846    -7.4696  H       1  <O>11       0.0625
  33 H11      -2.9838   -18.4319    -8.4061  H       1  <O>11       0.0624
  34 H12      -0.7055   -18.7269    -9.1723  H       1  <O>11       0.0618
  35 H13       0.8534   -16.8715    -9.1007  H       1  <O>11       0.0618
  36 H14       0.1372   -14.7220    -8.2451  H       1  <O>11       0.0624
  37 H15       1.8481   -12.0089    -5.5570  H       1  <O>11       0.0644
@<TRIPOS>BOND
     1     1     2    2
     2     2     3    1
     3     2     4    1
     4     4     5   ar
     5     5     6   ar
     6     6     7   ar
     7     7     8   ar
     8     8     9    1
     9     9    10    1
    10    10    11    1
    11    11    12   ar
    12    12    13    1
    13    12    14   ar
    14    14    15   ar
    15    15    16   ar
    16    16    17   ar
    17    17    18   ar
    18    18    19   ar
    19    19    20   ar
    20    20    21   ar
    21    11    21   ar
    22    16    21   ar
    23     8    22   ar
    24     4    22   ar
    25     3    23    1
    26     9    24    1
    27    10    25    1
    28    10    26    1
    29    13    27    1
    30     5    28    1
    31     6    29    1
    32     7    30    1
    33    14    31    1
    34    15    32    1
    35    17    33    1
    36    18    34    1
    37    19    35    1
    38    20    36    1
    39    22    37    1
@<TRIPOS>MOLECULE
mol48_2_6
 37 39 0 0 0
SMALL
USER_CHARGES
****
VDW energy = 65.27
@<TRIPOS>ATOM
   1 O1        3.4420    -9.1855    -5.2979  O.2     1  <O>11      -0.2451
   2 C1        2.8552    -9.8129    -4.4288  C.2     1  <O>11       0.3369
   3 O2        3.5096   -10.1823    -3.3012  O.3     1  <O>11      -0.4771
   4 C2        1.4620   -10.1610    -4.6040  C.ar    1  <O>11       0.0606
   5 C3        0.4750    -9.2817    -4.1546  C.ar    1  <O>11      -0.0477
   6 C4       -0.8745    -9.6183    -4.3101  C.ar    1  <O>11      -0.0592
   7 C5       -1.2337   -10.8255    -4.9148  C.ar    1  <O>11      -0.0408
   8 C6       -0.2326   -11.6941    -5.3653  C.ar    1  <O>11       0.0282
   9 N1       -0.6088   -12.9371    -5.9892  N.pl3   1  <O>11      -0.3396
  10 C7       -0.8128   -12.9974    -7.4342  C.3     1  <O>11       0.0384
  11 C8       -1.8945   -13.9680    -7.7411  C.ar    1  <O>11       0.0186
  12 C9       -1.7610   -15.3180    -7.3603  C.ar    1  <O>11       0.1221
  13 O3       -0.6844   -15.7113    -6.7598  O.3     1  <O>11      -0.5064
  14 C10      -2.7848   -16.2259    -7.6229  C.ar    1  <O>11      -0.0193
  15 C11      -3.9369   -15.8021    -8.2933  C.ar    1  <O>11      -0.0506
  16 C12      -4.0853   -14.4670    -8.7021  C.ar    1  <O>11      -0.0173
  17 C13      -5.2351   -14.0303    -9.3818  C.ar    1  <O>11      -0.0540
  18 C14      -5.3661   -12.6970    -9.7725  C.ar    1  <O>11      -0.0612
  19 C15      -4.3557   -11.7826    -9.4874  C.ar    1  <O>11      -0.0612
  20 C16      -3.2087   -12.2032    -8.8148  C.ar    1  <O>11      -0.0536
  21 C17      -3.0583   -13.5429    -8.4187  C.ar    1  <O>11      -0.0097
  22 C18       1.1151   -11.3668    -5.2172  C.ar    1  <O>11      -0.0269
  23 H1        2.9041   -10.6687    -2.7201  H       1  <O>11       0.2954
  24 H2       -0.7339   -13.7761    -5.4205  H       1  <O>11       0.1464
  25 H3        0.1096   -13.3170    -7.9182  H       1  <O>11       0.0512
  26 H4       -1.0931   -12.0099    -7.8020  H       1  <O>11       0.0512
  27 H5       -0.7510   -16.6597    -6.5661  H       1  <O>11       0.2921
  28 H6        0.7391    -8.3884    -3.7103  H       1  <O>11       0.0626
  29 H7       -1.6070    -8.9723    -3.9769  H       1  <O>11       0.0618
  30 H8       -2.2287   -11.0748    -5.0282  H       1  <O>11       0.0636
  31 H9       -2.6931   -17.2092    -7.3232  H       1  <O>11       0.0654
  32 H10      -4.6890   -16.4807    -8.4905  H       1  <O>11       0.0625
  33 H11      -5.9896   -14.7017    -9.5941  H       1  <O>11       0.0624
  34 H12      -6.2137   -12.3881   -10.2738  H       1  <O>11       0.0618
  35 H13      -4.4554   -10.7959    -9.7730  H       1  <O>11       0.0618
  36 H14      -2.4618   -11.5225    -8.6056  H       1  <O>11       0.0624
  37 H15       1.8481   -12.0089    -5.5570  H       1  <O>11       0.0644
@<TRIPOS>BOND
     1     1     2    2
     2     2     3    1
     3     2     4    1
     4     4     5   ar
     5     5     6   ar
     6     6     7   ar
     7     7     8   ar
     8     8     9    1
     9     9    10    1
    10    10    11    1
    11    11    12   ar
    12    12    13    1
    13    12    14   ar
    14    14    15   ar
    15    15    16   ar
    16    16    17   ar
    17    17    18   ar
    18    18    19   ar
    19    19    20   ar
    20    20    21   ar
    21    11    21   ar
    22    16    21   ar
    23     8    22   ar
    24     4    22   ar
    25     3    23    1
    26     9    24    1
    27    10    25    1
    28    10    26    1
    29    13    27    1
    30     5    28    1
    31     6    29    1
    32     7    30    1
    33    14    31    1
    34    15    32    1
    35    17    33    1
    36    18    34    1
    37    19    35    1
    38    20    36    1
    39    22    37    1
@<TRIPOS>MOLECULE
mol48_2_7
 37 39 0 0 0
SMALL
USER_CHARGES
****
VDW energy = 65.27
@<TRIPOS>ATOM
   1 O1        3.4420    -9.1855    -5.2979  O.2     1  <O>11      -0.2451
   2 C1        2.8552    -9.8129    -4.4288  C.2     1  <O>11       0.3369
   3 O2        3.5096   -10.1823    -3.3012  O.3     1  <O>11      -0.4771
   4 C2        1.4620   -10.1610    -4.6040  C.ar    1  <O>11       0.0606
   5 C3        0.4750    -9.2817    -4.1546  C.ar    1  <O>11      -0.0477
   6 C4       -0.8745    -9.6183    -4.3101  C.ar    1  <O>11      -0.0592
   7 C5       -1.2337   -10.8255    -4.9148  C.ar    1  <O>11      -0.0408
   8 C6       -0.2326   -11.6941    -5.3653  C.ar    1  <O>11       0.0282
   9 N1       -0.6088   -12.9371    -5.9892  N.pl3   1  <O>11      -0.3396
  10 C7       -1.3119   -12.9291    -7.2694  C.3     1  <O>11       0.0384
  11 C8       -0.4174   -12.3826    -8.3218  C.ar    1  <O>11       0.0186
  12 C9        0.8056   -13.0200    -8.6100  C.ar    1  <O>11       0.1221
  13 O3        1.1539   -14.0715    -7.9410  O.3     1  <O>11      -0.5064
  14 C10       1.6352   -12.5258    -9.6145  C.ar    1  <O>11      -0.0193
  15 C11       1.2665   -11.3752   -10.3194  C.ar    1  <O>11      -0.0506
  16 C12       0.0630   -10.7093   -10.0368  C.ar    1  <O>11      -0.0173
  17 C13      -0.3157    -9.5490   -10.7335  C.ar    1  <O>11      -0.0540
  18 C14      -1.5199    -8.9068   -10.4425  C.ar    1  <O>11      -0.0612
  19 C15      -2.3626    -9.4145    -9.4575  C.ar    1  <O>11      -0.0612
  20 C16      -1.9981   -10.5642    -8.7574  C.ar    1  <O>11      -0.0536
  21 C17      -0.7869   -11.2206    -9.0342  C.ar    1  <O>11      -0.0097
  22 C18       1.1151   -11.3668    -5.2172  C.ar    1  <O>11      -0.0269
  23 H1        2.9041   -10.6687    -2.7201  H       1  <O>11       0.2954
  24 H2       -0.3845   -13.8241    -5.5355  H       1  <O>11       0.1464
  25 H3       -2.2025   -12.3064    -7.1908  H       1  <O>11       0.0512
  26 H4       -1.6021   -13.9474    -7.5296  H       1  <O>11       0.0512
  27 H5        2.0139   -14.3873    -8.2606  H       1  <O>11       0.2921
  28 H6        0.7391    -8.3884    -3.7103  H       1  <O>11       0.0626
  29 H7       -1.6070    -8.9723    -3.9769  H       1  <O>11       0.0618
  30 H8       -2.2287   -11.0748    -5.0282  H       1  <O>11       0.0636
  31 H9        2.5199   -13.0077    -9.8380  H       1  <O>11       0.0654
  32 H10       1.8881   -11.0104   -11.0579  H       1  <O>11       0.0625
  33 H11       0.3025    -9.1685   -11.4671  H       1  <O>11       0.0624
  34 H12      -1.7864    -8.0537   -10.9586  H       1  <O>11       0.0618
  35 H13      -3.2550    -8.9411    -9.2459  H       1  <O>11       0.0618
  36 H14      -2.6252   -10.9373    -8.0277  H       1  <O>11       0.0624
  37 H15       1.8481   -12.0089    -5.5570  H       1  <O>11       0.0644
@<TRIPOS>BOND
     1     1     2    2
     2     2     3    1
     3     2     4    1
     4     4     5   ar
     5     5     6   ar
     6     6     7   ar
     7     7     8   ar
     8     8     9    1
     9     9    10    1
    10    10    11    1
    11    11    12   ar
    12    12    13    1
    13    12    14   ar
    14    14    15   ar
    15    15    16   ar
    16    16    17   ar
    17    17    18   ar
    18    18    19   ar
    19    19    20   ar
    20    20    21   ar
    21    11    21   ar
    22    16    21   ar
    23     8    22   ar
    24     4    22   ar
    25     3    23    1
    26     9    24    1
    27    10    25    1
    28    10    26    1
    29    13    27    1
    30     5    28    1
    31     6    29    1
    32     7    30    1
    33    14    31    1
    34    15    32    1
    35    17    33    1
    36    18    34    1
    37    19    35    1
    38    20    36    1
    39    22    37    1
@<TRIPOS>MOLECULE
mol48_2_8
 37 39 0 0 0
SMALL
USER_CHARGES
****
VDW energy = 65.30
@<TRIPOS>ATOM
   1 O1        3.4420    -9.1855    -5.2979  O.2     1  <O>11      -0.2451
   2 C1        2.8552    -9.8129    -4.4288  C.2     1  <O>11       0.3369
   3 O2        3.5096   -10.1823    -3.3012  O.3     1  <O>11      -0.4771
   4 C2        1.4620   -10.1610    -4.6040  C.ar    1  <O>11       0.0606
   5 C3        0.4750    -9.2817    -4.1546  C.ar    1  <O>11      -0.0477
   6 C4       -0.8745    -9.6183    -4.3101  C.ar    1  <O>11      -0.0592
   7 C5       -1.2337   -10.8255    -4.9148  C.ar    1  <O>11      -0.0408
   8 C6       -0.2326   -11.6941    -5.3653  C.ar    1  <O>11       0.0282
   9 N1       -0.6088   -12.9371    -5.9892  N.pl3   1  <O>11      -0.3396
  10 C7       -1.3119   -12.9291    -7.2694  C.3     1  <O>11       0.0384
  11 C8       -0.4174   -12.3826    -8.3218  C.ar    1  <O>11       0.0186
  12 C9        0.4199   -13.2462    -9.0554  C.ar    1  <O>11       0.1221
  13 O3        0.4196   -14.5137    -8.7949  O.3     1  <O>11      -0.5064
  14 C10       1.2410   -12.7409   -10.0613  C.ar    1  <O>11      -0.0193
  15 C11       1.2562   -11.3672   -10.3239  C.ar    1  <O>11      -0.0506
  16 C12       0.4469   -10.4827    -9.5928  C.ar    1  <O>11      -0.0173
  17 C13       0.4577    -9.0998    -9.8429  C.ar    1  <O>11      -0.0540
  18 C14      -0.3602    -8.2389    -9.1099  C.ar    1  <O>11      -0.0612
  19 C15      -1.2010    -8.7453    -8.1226  C.ar    1  <O>11      -0.0612
  20 C16      -1.2203   -10.1154    -7.8632  C.ar    1  <O>11      -0.0536
  21 C17      -0.3995   -10.9959    -8.5882  C.ar    1  <O>11      -0.0097
  22 C18       1.1151   -11.3668    -5.2172  C.ar    1  <O>11      -0.0269
  23 H1        2.9041   -10.6687    -2.7201  H       1  <O>11       0.2954
  24 H2       -0.3845   -13.8241    -5.5355  H       1  <O>11       0.1464
  25 H3       -2.2025   -12.3064    -7.1908  H       1  <O>11       0.0512
  26 H4       -1.6021   -13.9474    -7.5296  H       1  <O>11       0.0512
  27 H5        1.0444   -14.9646    -9.3846  H       1  <O>11       0.2921
  28 H6        0.7391    -8.3884    -3.7103  H       1  <O>11       0.0626
  29 H7       -1.6070    -8.9723    -3.9769  H       1  <O>11       0.0618
  30 H8       -2.2287   -11.0748    -5.0282  H       1  <O>11       0.0636
  31 H9        1.8369   -13.3791   -10.6115  H       1  <O>11       0.0654
  32 H10       1.8712   -10.9981   -11.0660  H       1  <O>11       0.0625
  33 H11       1.0761    -8.7175   -10.5752  H       1  <O>11       0.0624
  34 H12      -0.3418    -7.2248    -9.3002  H       1  <O>11       0.0618
  35 H13      -1.8086    -8.1083    -7.5839  H       1  <O>11       0.0618
  36 H14      -1.8446   -10.4870    -7.1302  H       1  <O>11       0.0624
  37 H15       1.8481   -12.0089    -5.5570  H       1  <O>11       0.0644
@<TRIPOS>BOND
     1     1     2    2
     2     2     3    1
     3     2     4    1
     4     4     5   ar
     5     5     6   ar
     6     6     7   ar
     7     7     8   ar
     8     8     9    1
     9     9    10    1
    10    10    11    1
    11    11    12   ar
    12    12    13    1
    13    12    14   ar
    14    14    15   ar
    15    15    16   ar
    16    16    17   ar
    17    17    18   ar
    18    18    19   ar
    19    19    20   ar
    20    20    21   ar
    21    11    21   ar
    22    16    21   ar
    23     8    22   ar
    24     4    22   ar
    25     3    23    1
    26     9    24    1
    27    10    25    1
    28    10    26    1
    29    13    27    1
    30     5    28    1
    31     6    29    1
    32     7    30    1
    33    14    31    1
    34    15    32    1
    35    17    33    1
    36    18    34    1
    37    19    35    1
    38    20    36    1
    39    22    37    1
@<TRIPOS>MOLECULE
mol48_2_9
 37 39 0 0 0
SMALL
USER_CHARGES
****
VDW energy = 66.74
@<TRIPOS>ATOM
   1 O1        3.4420    -9.1855    -5.2979  O.2     1  <O>11      -0.2451
   2 C1        2.8552    -9.8129    -4.4288  C.2     1  <O>11       0.3369
   3 O2        3.5096   -10.1823    -3.3012  O.3     1  <O>11      -0.4771
   4 C2        1.4620   -10.1610    -4.6040  C.ar    1  <O>11       0.0606
   5 C3        0.4750    -9.2817    -4.1546  C.ar    1  <O>11      -0.0477
   6 C4       -0.8745    -9.6183    -4.3101  C.ar    1  <O>11      -0.0592
   7 C5       -1.2337   -10.8255    -4.9148  C.ar    1  <O>11      -0.0408
   8 C6       -0.2326   -11.6941    -5.3653  C.ar    1  <O>11       0.0282
   9 N1       -0.6088   -12.9371    -5.9892  N.pl3   1  <O>11      -0.3396
  10 C7       -0.7867   -14.1381    -5.1772  C.3     1  <O>11       0.0384
  11 C8       -0.3593   -15.3290    -5.9553  C.ar    1  <O>11       0.0186
  12 C9        0.9660   -15.4287    -6.4231  C.ar    1  <O>11       0.1221
  13 O3        1.8026   -14.4698    -6.1882  O.3     1  <O>11      -0.5064
  14 C10       1.3779   -16.5562    -7.1305  C.ar    1  <O>11      -0.0193
  15 C11       0.4645   -17.5799    -7.4030  C.ar    1  <O>11      -0.0506
  16 C12      -0.8674   -17.4952    -6.9661  C.ar    1  <O>11      -0.0173
  17 C13      -1.7961   -18.5140    -7.2389  C.ar    1  <O>11      -0.0540
  18 C14      -3.1132   -18.4137    -6.7888  C.ar    1  <O>11      -0.0612
  19 C15      -3.5196   -17.3001    -6.0588  C.ar    1  <O>11      -0.0612
  20 C16      -2.6084   -16.2811    -5.7827  C.ar    1  <O>11      -0.0536
  21 C17      -1.2798   -16.3635    -6.2325  C.ar    1  <O>11      -0.0097
  22 C18       1.1151   -11.3668    -5.2172  C.ar    1  <O>11      -0.0269
  23 H1        2.9041   -10.6687    -2.7201  H       1  <O>11       0.2954
  24 H2       -0.7503   -12.9785    -6.9997  H       1  <O>11       0.1464
  25 H3       -1.8367   -14.2403    -4.9049  H       1  <O>11       0.0512
  26 H4       -0.1828   -14.0568    -4.2730  H       1  <O>11       0.0512
  27 H5        2.6652   -14.6926    -6.5726  H       1  <O>11       0.2921
  28 H6        0.7391    -8.3884    -3.7103  H       1  <O>11       0.0626
  29 H7       -1.6070    -8.9723    -3.9769  H       1  <O>11       0.0618
  30 H8       -2.2287   -11.0748    -5.0282  H       1  <O>11       0.0636
  31 H9        2.3550   -16.6358    -7.4528  H       1  <O>11       0.0654
  32 H10       0.7739   -18.4097    -7.9328  H       1  <O>11       0.0625
  33 H11      -1.5014   -19.3439    -7.7768  H       1  <O>11       0.0624
  34 H12      -3.7874   -19.1667    -6.9975  H       1  <O>11       0.0618
  35 H13      -4.4928   -17.2288    -5.7229  H       1  <O>11       0.0618
  36 H14      -2.9135   -15.4570    -5.2416  H       1  <O>11       0.0624
  37 H15       1.8481   -12.0089    -5.5570  H       1  <O>11       0.0644
@<TRIPOS>BOND
     1     1     2    2
     2     2     3    1
     3     2     4    1
     4     4     5   ar
     5     5     6   ar
     6     6     7   ar
     7     7     8   ar
     8     8     9    1
     9     9    10    1
    10    10    11    1
    11    11    12   ar
    12    12    13    1
    13    12    14   ar
    14    14    15   ar
    15    15    16   ar
    16    16    17   ar
    17    17    18   ar
    18    18    19   ar
    19    19    20   ar
    20    20    21   ar
    21    11    21   ar
    22    16    21   ar
    23     8    22   ar
    24     4    22   ar
    25     3    23    1
    26     9    24    1
    27    10    25    1
    28    10    26    1
    29    13    27    1
    30     5    28    1
    31     6    29    1
    32     7    30    1
    33    14    31    1
    34    15    32    1
    35    17    33    1
    36    18    34    1
    37    19    35    1
    38    20    36    1
    39    22    37    1
@<TRIPOS>MOLECULE
mol48_2_10
 37 39 0 0 0
SMALL
USER_CHARGES
****
VDW energy = 66.75
@<TRIPOS>ATOM
   1 O1        3.4420    -9.1855    -5.2979  O.2     1  <O>11      -0.2451
   2 C1        2.8552    -9.8129    -4.4288  C.2     1  <O>11       0.3369
   3 O2        3.5096   -10.1823    -3.3012  O.3     1  <O>11      -0.4771
   4 C2        1.4620   -10.1610    -4.6040  C.ar    1  <O>11       0.0606
   5 C3        0.4750    -9.2817    -4.1546  C.ar    1  <O>11      -0.0477
   6 C4       -0.8745    -9.6183    -4.3101  C.ar    1  <O>11      -0.0592
   7 C5       -1.2337   -10.8255    -4.9148  C.ar    1  <O>11      -0.0408
   8 C6       -0.2326   -11.6941    -5.3653  C.ar    1  <O>11       0.0282
   9 N1       -0.6088   -12.9371    -5.9892  N.pl3   1  <O>11      -0.3396
  10 C7        0.4208   -13.8568    -6.4659  C.3     1  <O>11       0.0384
  11 C8       -0.0619   -14.5493    -7.6881  C.ar    1  <O>11       0.0186
  12 C9       -0.7646   -15.7657    -7.5797  C.ar    1  <O>11       0.1221
  13 O3       -0.9703   -16.2855    -6.4127  O.3     1  <O>11      -0.5064
  14 C10      -1.2419   -16.4049    -8.7221  C.ar    1  <O>11      -0.0193
  15 C11      -0.9971   -15.8522    -9.9835  C.ar    1  <O>11      -0.0506
  16 C12      -0.2810   -14.6520   -10.1199  C.ar    1  <O>11      -0.0173
  17 C13      -0.0231   -14.0898   -11.3818  C.ar    1  <O>11      -0.0540
  18 C14       0.6838   -12.8920   -11.4949  C.ar    1  <O>11      -0.0612
  19 C15       1.1384   -12.2382   -10.3529  C.ar    1  <O>11      -0.0612
  20 C16       0.8907   -12.7860    -9.0946  C.ar    1  <O>11      -0.0536
  21 C17       0.1849   -13.9939    -8.9628  C.ar    1  <O>11      -0.0097
  22 C18       1.1151   -11.3668    -5.2172  C.ar    1  <O>11      -0.0269
  23 H1        2.9041   -10.6687    -2.7201  H       1  <O>11       0.2954
  24 H2       -1.5960   -13.1746    -6.0989  H       1  <O>11       0.1464
  25 H3        0.6362   -14.5935    -5.6926  H       1  <O>11       0.0512
  26 H4        1.3275   -13.2970    -6.6975  H       1  <O>11       0.0512
  27 H5       -1.4655   -17.1141    -6.5111  H       1  <O>11       0.2921
  28 H6        0.7391    -8.3884    -3.7103  H       1  <O>11       0.0626
  29 H7       -1.6070    -8.9723    -3.9769  H       1  <O>11       0.0618
  30 H8       -2.2287   -11.0748    -5.0282  H       1  <O>11       0.0636
  31 H9       -1.7752   -17.2844    -8.6377  H       1  <O>11       0.0654
  32 H10      -1.3477   -16.3336   -10.8263  H       1  <O>11       0.0625
  33 H11      -0.3596   -14.5672   -12.2326  H       1  <O>11       0.0624
  34 H12       0.8699   -12.4899   -12.4269  H       1  <O>11       0.0618
  35 H13       1.6575   -11.3502   -10.4374  H       1  <O>11       0.0618
  36 H14       1.2296   -12.2986    -8.2505  H       1  <O>11       0.0624
  37 H15       1.8481   -12.0089    -5.5570  H       1  <O>11       0.0644
@<TRIPOS>BOND
     1     1     2    2
     2     2     3    1
     3     2     4    1
     4     4     5   ar
     5     5     6   ar
     6     6     7   ar
     7     7     8   ar
     8     8     9    1
     9     9    10    1
    10    10    11    1
    11    11    12   ar
    12    12    13    1
    13    12    14   ar
    14    14    15   ar
    15    15    16   ar
    16    16    17   ar
    17    17    18   ar
    18    18    19   ar
    19    19    20   ar
    20    20    21   ar
    21    11    21   ar
    22    16    21   ar
    23     8    22   ar
    24     4    22   ar
    25     3    23    1
    26     9    24    1
    27    10    25    1
    28    10    26    1
    29    13    27    1
    30     5    28    1
    31     6    29    1
    32     7    30    1
    33    14    31    1
    34    15    32    1
    35    17    33    1
    36    18    34    1
    37    19    35    1
    38    20    36    1
    39    22    37    1
@<TRIPOS>MOLECULE
mol48_2_11
 37 39 0 0 0
SMALL
USER_CHARGES
****
VDW energy = 66.76
@<TRIPOS>ATOM
   1 O1        3.4420    -9.1855    -5.2979  O.2     1  <O>11      -0.2451
   2 C1        2.8552    -9.8129    -4.4288  C.2     1  <O>11       0.3369
   3 O2        3.5096   -10.1823    -3.3012  O.3     1  <O>11      -0.4771
   4 C2        1.4620   -10.1610    -4.6040  C.ar    1  <O>11       0.0606
   5 C3        1.1306   -11.3698    -5.2192  C.ar    1  <O>11      -0.0477
   6 C4       -0.2153   -11.7066    -5.4026  C.ar    1  <O>11      -0.0592
   7 C5       -1.2229   -10.8409    -4.9699  C.ar    1  <O>11      -0.0408
   8 C6       -0.8747    -9.6351    -4.3496  C.ar    1  <O>11       0.0282
   9 N1       -1.9179    -8.7469    -3.9043  N.pl3   1  <O>11      -0.3396
  10 C7       -2.7956    -8.1034    -4.8785  C.3     1  <O>11       0.0384
  11 C8       -3.1653    -6.7492    -4.3929  C.ar    1  <O>11       0.0186
  12 C9       -2.1640    -5.7880    -4.1511  C.ar    1  <O>11       0.1221
  13 O3       -0.9210    -6.0966    -4.3356  O.3     1  <O>11      -0.5064
  14 C10      -2.5086    -4.5083    -3.7208  C.ar    1  <O>11      -0.0193
  15 C11      -3.8515    -4.1857    -3.4996  C.ar    1  <O>11      -0.0506
  16 C12      -4.8667    -5.1322    -3.7129  C.ar    1  <O>11      -0.0173
  17 C13      -6.2189    -4.8223    -3.4883  C.ar    1  <O>11      -0.0540
  18 C14      -7.2131    -5.7752    -3.7140  C.ar    1  <O>11      -0.0612
  19 C15      -6.8728    -7.0460    -4.1695  C.ar    1  <O>11      -0.0612
  20 C16      -5.5345    -7.3671    -4.3948  C.ar    1  <O>11      -0.0536
  21 C17      -4.5203    -6.4213    -4.1679  C.ar    1  <O>11      -0.0097
  22 C18       0.4636    -9.2913    -4.1600  C.ar    1  <O>11      -0.0269
  23 H1        2.9041   -10.6687    -2.7201  H       1  <O>11       0.2954
  24 H2       -2.0431    -8.5663    -2.9069  H       1  <O>11       0.1464
  25 H3       -3.6972    -8.7018    -5.0061  H       1  <O>11       0.0512
  26 H4       -2.2766    -8.0196    -5.8338  H       1  <O>11       0.0512
  27 H5       -0.3637    -5.3299    -4.1280  H       1  <O>11       0.2921
  28 H6        1.8739   -12.0113    -5.5368  H       1  <O>11       0.0626
  29 H7       -0.4644   -12.5978    -5.8593  H       1  <O>11       0.0618
  30 H8       -2.2155   -11.0882    -5.1063  H       1  <O>11       0.0636
  31 H9       -1.7744    -3.7999    -3.5656  H       1  <O>11       0.0654
  32 H10      -4.1000    -3.2382    -3.1748  H       1  <O>11       0.0625
  33 H11      -6.4791    -3.8814    -3.1536  H       1  <O>11       0.0624
  34 H12      -8.2026    -5.5374    -3.5429  H       1  <O>11       0.0618
  35 H13      -7.6091    -7.7487    -4.3400  H       1  <O>11       0.0618
  36 H14      -5.2861    -8.3103    -4.7320  H       1  <O>11       0.0624
  37 H15       0.7134    -8.4037    -3.6966  H       1  <O>11       0.0644
@<TRIPOS>BOND
     1     1     2    2
     2     2     3    1
     3     2     4    1
     4     4     5   ar
     5     5     6   ar
     6     6     7   ar
     7     7     8   ar
     8     8     9    1
     9     9    10    1
    10    10    11    1
    11    11    12   ar
    12    12    13    1
    13    12    14   ar
    14    14    15   ar
    15    15    16   ar
    16    16    17   ar
    17    17    18   ar
    18    18    19   ar
    19    19    20   ar
    20    20    21   ar
    21    11    21   ar
    22    16    21   ar
    23     8    22   ar
    24     4    22   ar
    25     3    23    1
    26     9    24    1
    27    10    25    1
    28    10    26    1
    29    13    27    1
    30     5    28    1
    31     6    29    1
    32     7    30    1
    33    14    31    1
    34    15    32    1
    35    17    33    1
    36    18    34    1
    37    19    35    1
    38    20    36    1
    39    22    37    1
@<TRIPOS>MOLECULE
mol48_2_12
 37 39 0 0 0
SMALL
USER_CHARGES
****
VDW energy = 67.75
@<TRIPOS>ATOM
   1 O1        3.4420    -9.1855    -5.2979  O.2     1  <O>11      -0.2451
   2 C1        2.8552    -9.8129    -4.4288  C.2     1  <O>11       0.3369
   3 O2        3.5096   -10.1823    -3.3012  O.3     1  <O>11      -0.4771
   4 C2        1.4620   -10.1610    -4.6040  C.ar    1  <O>11       0.0606
   5 C3        0.4750    -9.2817    -4.1546  C.ar    1  <O>11      -0.0477
   6 C4       -0.8745    -9.6183    -4.3101  C.ar    1  <O>11      -0.0592
   7 C5       -1.2337   -10.8255    -4.9148  C.ar    1  <O>11      -0.0408
   8 C6       -0.2326   -11.6941    -5.3653  C.ar    1  <O>11       0.0282
   9 N1       -0.6088   -12.9371    -5.9892  N.pl3   1  <O>11      -0.3396
  10 C7        0.2501   -13.5323    -7.0097  C.3     1  <O>11       0.0384
  11 C8       -0.5896   -14.2218    -8.0224  C.ar    1  <O>11       0.0186
  12 C9       -1.4388   -15.2774    -7.6354  C.ar    1  <O>11       0.1221
  13 O3       -1.4690   -15.6553    -6.3982  O.3     1  <O>11      -0.5064
  14 C10      -2.2476   -15.9092    -8.5778  C.ar    1  <O>11      -0.0193
  15 C11      -2.1947   -15.5138    -9.9185  C.ar    1  <O>11      -0.0506
  16 C12      -1.3414   -14.4787   -10.3335  C.ar    1  <O>11      -0.0173
  17 C13      -1.2746   -14.0765   -11.6783  C.ar    1  <O>11      -0.0540
  18 C14      -0.4254   -13.0401   -12.0685  C.ar    1  <O>11      -0.0612
  19 C15       0.3638   -12.3899   -11.1238  C.ar    1  <O>11      -0.0612
  20 C16       0.3083   -12.7802    -9.7861  C.ar    1  <O>11      -0.0536
  21 C17      -0.5374   -13.8251    -9.3768  C.ar    1  <O>11      -0.0097
  22 C18       1.1151   -11.3668    -5.2172  C.ar    1  <O>11      -0.0269
  23 H1        2.9041   -10.6687    -2.7201  H       1  <O>11       0.2954
  24 H2       -1.4770   -13.4016    -5.7183  H       1  <O>11       0.1464
  25 H3        0.9219   -14.2526    -6.5440  H       1  <O>11       0.0512
  26 H4        0.8351   -12.7489    -7.4926  H       1  <O>11       0.0512
  27 H5       -2.1004   -16.3853    -6.2990  H       1  <O>11       0.2921
  28 H6        0.7391    -8.3884    -3.7103  H       1  <O>11       0.0626
  29 H7       -1.6070    -8.9723    -3.9769  H       1  <O>11       0.0618
  30 H8       -2.2287   -11.0748    -5.0282  H       1  <O>11       0.0636
  31 H9       -2.8845   -16.6675    -8.2871  H       1  <O>11       0.0654
  32 H10      -2.7916   -15.9898   -10.6129  H       1  <O>11       0.0625
  33 H11      -1.8588   -14.5518   -12.3838  H       1  <O>11       0.0624
  34 H12      -0.3824   -12.7551   -13.0595  H       1  <O>11       0.0618
  35 H13       0.9884   -11.6207   -11.4127  H       1  <O>11       0.0618
  36 H14       0.8951   -12.2961    -9.0888  H       1  <O>11       0.0624
  37 H15       1.8481   -12.0089    -5.5570  H       1  <O>11       0.0644
@<TRIPOS>BOND
     1     1     2    2
     2     2     3    1
     3     2     4    1
     4     4     5   ar
     5     5     6   ar
     6     6     7   ar
     7     7     8   ar
     8     8     9    1
     9     9    10    1
    10    10    11    1
    11    11    12   ar
    12    12    13    1
    13    12    14   ar
    14    14    15   ar
    15    15    16   ar
    16    16    17   ar
    17    17    18   ar
    18    18    19   ar
    19    19    20   ar
    20    20    21   ar
    21    11    21   ar
    22    16    21   ar
    23     8    22   ar
    24     4    22   ar
    25     3    23    1
    26     9    24    1
    27    10    25    1
    28    10    26    1
    29    13    27    1
    30     5    28    1
    31     6    29    1
    32     7    30    1
    33    14    31    1
    34    15    32    1
    35    17    33    1
    36    18    34    1
    37    19    35    1
    38    20    36    1
    39    22    37    1
@<TRIPOS>MOLECULE
mol48_2_13
 37 39 0 0 0
SMALL
USER_CHARGES
****
VDW energy = 67.98
@<TRIPOS>ATOM
   1 O1        3.4420    -9.1855    -5.2979  O.2     1  <O>11      -0.2451
   2 C1        2.8552    -9.8129    -4.4288  C.2     1  <O>11       0.3369
   3 O2        3.5096   -10.1823    -3.3012  O.3     1  <O>11      -0.4771
   4 C2        1.4620   -10.1610    -4.6040  C.ar    1  <O>11       0.0606
   5 C3        0.4750    -9.2817    -4.1546  C.ar    1  <O>11      -0.0477
   6 C4       -0.8745    -9.6183    -4.3101  C.ar    1  <O>11      -0.0592
   7 C5       -1.2337   -10.8255    -4.9148  C.ar    1  <O>11      -0.0408
   8 C6       -0.2326   -11.6941    -5.3653  C.ar    1  <O>11       0.0282
   9 N1       -0.6088   -12.9371    -5.9892  N.pl3   1  <O>11      -0.3396
  10 C7       -1.3119   -12.9291    -7.2694  C.3     1  <O>11       0.0384
  11 C8       -2.2636   -14.0685    -7.3183  C.ar    1  <O>11       0.0186
  12 C9       -3.2959   -14.1679    -6.3646  C.ar    1  <O>11       0.1221
  13 O3       -3.3989   -13.2731    -5.4356  O.3     1  <O>11      -0.5064
  14 C10      -4.2065   -15.2209    -6.4230  C.ar    1  <O>11      -0.0193
  15 C11      -4.0778   -16.1992    -7.4143  C.ar    1  <O>11      -0.0506
  16 C12      -3.0452   -16.1345    -8.3637  C.ar    1  <O>11      -0.0173
  17 C13      -2.9014   -17.1145    -9.3607  C.ar    1  <O>11      -0.0540
  18 C14      -1.8727   -17.0272   -10.2996  C.ar    1  <O>11      -0.0612
  19 C15      -0.9779   -15.9614   -10.2589  C.ar    1  <O>11      -0.0612
  20 C16      -1.1083   -14.9830    -9.2738  C.ar    1  <O>11      -0.0536
  21 C17      -2.1352   -15.0580    -8.3176  C.ar    1  <O>11      -0.0097
  22 C18       1.1151   -11.3668    -5.2172  C.ar    1  <O>11      -0.0269
  23 H1        2.9041   -10.6687    -2.7201  H       1  <O>11       0.2954
  24 H2       -0.3845   -13.8241    -5.5355  H       1  <O>11       0.1464
  25 H3       -0.5907   -13.0235    -8.0806  H       1  <O>11       0.0512
  26 H4       -1.8588   -11.9918    -7.3764  H       1  <O>11       0.0512
  27 H5       -4.1558   -13.4842    -4.8665  H       1  <O>11       0.2921
  28 H6        0.7391    -8.3884    -3.7103  H       1  <O>11       0.0626
  29 H7       -1.6070    -8.9723    -3.9769  H       1  <O>11       0.0618
  30 H8       -2.2287   -11.0748    -5.0282  H       1  <O>11       0.0636
  31 H9       -4.9745   -15.2788    -5.7361  H       1  <O>11       0.0654
  32 H10      -4.7516   -16.9802    -7.4486  H       1  <O>11       0.0625
  33 H11      -3.5627   -17.9058    -9.3989  H       1  <O>11       0.0624
  34 H12      -1.7750   -17.7542   -11.0255  H       1  <O>11       0.0618
  35 H13      -0.2199   -15.8955   -10.9563  H       1  <O>11       0.0618
  36 H14      -0.4428   -14.1946    -9.2467  H       1  <O>11       0.0624
  37 H15       1.8481   -12.0089    -5.5570  H       1  <O>11       0.0644
@<TRIPOS>BOND
     1     1     2    2
     2     2     3    1
     3     2     4    1
     4     4     5   ar
     5     5     6   ar
     6     6     7   ar
     7     7     8   ar
     8     8     9    1
     9     9    10    1
    10    10    11    1
    11    11    12   ar
    12    12    13    1
    13    12    14   ar
    14    14    15   ar
    15    15    16   ar
    16    16    17   ar
    17    17    18   ar
    18    18    19   ar
    19    19    20   ar
    20    20    21   ar
    21    11    21   ar
    22    16    21   ar
    23     8    22   ar
    24     4    22   ar
    25     3    23    1
    26     9    24    1
    27    10    25    1
    28    10    26    1
    29    13    27    1
    30     5    28    1
    31     6    29    1
    32     7    30    1
    33    14    31    1
    34    15    32    1
    35    17    33    1
    36    18    34    1
    37    19    35    1
    38    20    36    1
    39    22    37    1
@<TRIPOS>MOLECULE
mol48_2_14
 37 39 0 0 0
SMALL
USER_CHARGES
****
VDW energy = 68.84
@<TRIPOS>ATOM
   1 O1        3.4420    -9.1855    -5.2979  O.2     1  <O>11      -0.2451
   2 C1        2.8552    -9.8129    -4.4288  C.2     1  <O>11       0.3369
   3 O2        3.5096   -10.1823    -3.3012  O.3     1  <O>11      -0.4771
   4 C2        1.4620   -10.1610    -4.6040  C.ar    1  <O>11       0.0606
   5 C3        0.4750    -9.2817    -4.1546  C.ar    1  <O>11      -0.0477
   6 C4       -0.8745    -9.6183    -4.3101  C.ar    1  <O>11      -0.0592
   7 C5       -1.2337   -10.8255    -4.9148  C.ar    1  <O>11      -0.0408
   8 C6       -0.2326   -11.6941    -5.3653  C.ar    1  <O>11       0.0282
   9 N1       -0.6088   -12.9371    -5.9892  N.pl3   1  <O>11      -0.3396
  10 C7        0.2501   -13.5323    -7.0097  C.3     1  <O>11       0.0384
  11 C8       -0.5896   -14.2218    -8.0224  C.ar    1  <O>11       0.0186
  12 C9       -1.5429   -13.4949    -8.7628  C.ar    1  <O>11       0.1221
  13 O3       -1.6962   -12.2290    -8.5426  O.3     1  <O>11      -0.5064
  14 C10      -2.3141   -14.1328    -9.7321  C.ar    1  <O>11      -0.0193
  15 C11      -2.1622   -15.5060    -9.9507  C.ar    1  <O>11      -0.0506
  16 C12      -1.2342   -16.2571    -9.2116  C.ar    1  <O>11      -0.0173
  17 C13      -1.0766   -17.6383    -9.4174  C.ar    1  <O>11      -0.0540
  18 C14      -0.1429   -18.3650    -8.6774  C.ar    1  <O>11      -0.0612
  19 C15       0.6472   -17.7241    -7.7270  C.ar    1  <O>11      -0.0612
  20 C16       0.4999   -16.3541    -7.5117  C.ar    1  <O>11      -0.0536
  21 C17      -0.4389   -15.6083    -8.2443  C.ar    1  <O>11      -0.0097
  22 C18       1.1151   -11.3668    -5.2172  C.ar    1  <O>11      -0.0269
  23 H1        2.9041   -10.6687    -2.7201  H       1  <O>11       0.2954
  24 H2       -1.4770   -13.4016    -5.7183  H       1  <O>11       0.1464
  25 H3        0.9219   -14.2526    -6.5440  H       1  <O>11       0.0512
  26 H4        0.8351   -12.7489    -7.4926  H       1  <O>11       0.0512
  27 H5       -2.3841   -11.8800    -9.1311  H       1  <O>11       0.2921
  28 H6        0.7391    -8.3884    -3.7103  H       1  <O>11       0.0626
  29 H7       -1.6070    -8.9723    -3.9769  H       1  <O>11       0.0618
  30 H8       -2.2287   -11.0748    -5.0282  H       1  <O>11       0.0636
  31 H9       -2.9960   -13.5931   -10.2878  H       1  <O>11       0.0654
  32 H10      -2.7408   -15.9741   -10.6658  H       1  <O>11       0.0625
  33 H11      -1.6567   -18.1197   -10.1222  H       1  <O>11       0.0624
  34 H12      -0.0379   -19.3794    -8.8350  H       1  <O>11       0.0618
  35 H13       1.3404   -18.2616    -7.1832  H       1  <O>11       0.0618
  36 H14       1.0871   -15.8827    -6.8061  H       1  <O>11       0.0624
  37 H15       1.8481   -12.0089    -5.5570  H       1  <O>11       0.0644
@<TRIPOS>BOND
     1     1     2    2
     2     2     3    1
     3     2     4    1
     4     4     5   ar
     5     5     6   ar
     6     6     7   ar
     7     7     8   ar
     8     8     9    1
     9     9    10    1
    10    10    11    1
    11    11    12   ar
    12    12    13    1
    13    12    14   ar
    14    14    15   ar
    15    15    16   ar
    16    16    17   ar
    17    17    18   ar
    18    18    19   ar
    19    19    20   ar
    20    20    21   ar
    21    11    21   ar
    22    16    21   ar
    23     8    22   ar
    24     4    22   ar
    25     3    23    1
    26     9    24    1
    27    10    25    1
    28    10    26    1
    29    13    27    1
    30     5    28    1
    31     6    29    1
    32     7    30    1
    33    14    31    1
    34    15    32    1
    35    17    33    1
    36    18    34    1
    37    19    35    1
    38    20    36    1
    39    22    37    1
@<TRIPOS>MOLECULE
mol48_2_15
 37 39 0 0 0
SMALL
USER_CHARGES
****
VDW energy = 69.96
@<TRIPOS>ATOM
   1 O1        3.4420    -9.1855    -5.2979  O.2     1  <O>11      -0.2451
   2 C1        2.8552    -9.8129    -4.4288  C.2     1  <O>11       0.3369
   3 O2        3.5096   -10.1823    -3.3012  O.3     1  <O>11      -0.4771
   4 C2        1.4620   -10.1610    -4.6040  C.ar    1  <O>11       0.0606
   5 C3        1.0134   -11.4175    -4.1926  C.ar    1  <O>11      -0.0477
   6 C4       -0.3305   -11.7649    -4.3706  C.ar    1  <O>11      -0.0592
   7 C5       -1.2205   -10.8590    -4.9532  C.ar    1  <O>11      -0.0408
   8 C6       -0.7568    -9.6008    -5.3553  C.ar    1  <O>11       0.0282
   9 N1       -1.6793    -8.6703    -5.9544  N.pl3   1  <O>11      -0.3396
  10 C7       -1.2150    -7.3526    -6.3806  C.3     1  <O>11       0.0384
  11 C8       -2.2986    -6.3570    -6.1784  C.ar    1  <O>11       0.0186
  12 C9       -3.2256    -6.1029    -7.2086  C.ar    1  <O>11       0.1221
  13 O3       -3.1167    -6.7264    -8.3372  O.3     1  <O>11      -0.5064
  14 C10      -4.2592    -5.1891    -7.0133  C.ar    1  <O>11      -0.0193
  15 C11      -4.3596    -4.4995    -5.8005  C.ar    1  <O>11      -0.0506
  16 C12      -3.4361    -4.7191    -4.7657  C.ar    1  <O>11      -0.0173
  17 C13      -3.5226    -4.0281    -3.5451  C.ar    1  <O>11      -0.0540
  18 C14      -2.5990    -4.2669    -2.5265  C.ar    1  <O>11      -0.0612
  19 C15      -1.5815    -5.1991    -2.7102  C.ar    1  <O>11      -0.0612
  20 C16      -1.4833    -5.8906    -3.9173  C.ar    1  <O>11      -0.0536
  21 C17      -2.4017    -5.6588    -4.9552  C.ar    1  <O>11      -0.0097
  22 C18       0.5801    -9.2441    -5.1802  C.ar    1  <O>11      -0.0269
  23 H1        2.9041   -10.6687    -2.7201  H       1  <O>11       0.2954
  24 H2       -2.6584    -8.9319    -6.0802  H       1  <O>11       0.1464
  25 H3       -0.9454    -7.3862    -7.4357  H       1  <O>11       0.0512
  26 H4       -0.3429    -7.0678    -5.7913  H       1  <O>11       0.0512
  27 H5       -3.8275    -6.4418    -8.9332  H       1  <O>11       0.2921
  28 H6        1.6693   -12.0865    -3.7596  H       1  <O>11       0.0626
  29 H7       -0.6655   -12.6936    -4.0704  H       1  <O>11       0.0618
  30 H8       -2.2113   -11.1153    -5.0861  H       1  <O>11       0.0636
  31 H9       -4.9493    -5.0214    -7.7621  H       1  <O>11       0.0654
  32 H10      -5.1237    -3.8193    -5.6642  H       1  <O>11       0.0625
  33 H11      -4.2760    -3.3378    -3.4006  H       1  <O>11       0.0624
  34 H12      -2.6705    -3.7515    -1.6354  H       1  <O>11       0.0618
  35 H13      -0.9014    -5.3781    -1.9548  H       1  <O>11       0.0618
  36 H14      -0.7274    -6.5805    -4.0498  H       1  <O>11       0.0624
  37 H15       0.9141    -8.3127    -5.4733  H       1  <O>11       0.0644
@<TRIPOS>BOND
     1     1     2    2
     2     2     3    1
     3     2     4    1
     4     4     5   ar
     5     5     6   ar
     6     6     7   ar
     7     7     8   ar
     8     8     9    1
     9     9    10    1
    10    10    11    1
    11    11    12   ar
    12    12    13    1
    13    12    14   ar
    14    14    15   ar
    15    15    16   ar
    16    16    17   ar
    17    17    18   ar
    18    18    19   ar
    19    19    20   ar
    20    20    21   ar
    21    11    21   ar
    22    16    21   ar
    23     8    22   ar
    24     4    22   ar
    25     3    23    1
    26     9    24    1
    27    10    25    1
    28    10    26    1
    29    13    27    1
    30     5    28    1
    31     6    29    1
    32     7    30    1
    33    14    31    1
    34    15    32    1
    35    17    33    1
    36    18    34    1
    37    19    35    1
    38    20    36    1
    39    22    37    1
@<TRIPOS>MOLECULE
mol48_2_16
 37 39 0 0 0
SMALL
USER_CHARGES
****
VDW energy = 70.33
@<TRIPOS>ATOM
   1 O1        3.4420    -9.1855    -5.2979  O.2     1  <O>11      -0.2451
   2 C1        2.8552    -9.8129    -4.4288  C.2     1  <O>11       0.3369
   3 O2        3.5096   -10.1823    -3.3012  O.3     1  <O>11      -0.4771
   4 C2        1.4620   -10.1610    -4.6040  C.ar    1  <O>11       0.0606
   5 C3        0.4750    -9.2817    -4.1546  C.ar    1  <O>11      -0.0477
   6 C4       -0.8745    -9.6183    -4.3101  C.ar    1  <O>11      -0.0592
   7 C5       -1.2337   -10.8255    -4.9148  C.ar    1  <O>11      -0.0408
   8 C6       -0.2326   -11.6941    -5.3653  C.ar    1  <O>11       0.0282
   9 N1       -0.6088   -12.9371    -5.9892  N.pl3   1  <O>11      -0.3396
  10 C7       -1.2882   -13.9695    -5.2108  C.3     1  <O>11       0.0384
  11 C8       -2.6296   -13.4792    -4.8028  C.ar    1  <O>11       0.0186
  12 C9       -2.7889   -12.7889    -3.5848  C.ar    1  <O>11       0.1221
  13 O3       -1.7655   -12.6014    -2.8156  O.3     1  <O>11      -0.5064
  14 C10      -4.0407   -12.3043    -3.2111  C.ar    1  <O>11      -0.0193
  15 C11      -5.1491   -12.5296    -4.0340  C.ar    1  <O>11      -0.0506
  16 C12      -5.0209   -13.2330    -5.2425  C.ar    1  <O>11      -0.0173
  17 C13      -6.1279   -13.4712    -6.0748  C.ar    1  <O>11      -0.0540
  18 C14      -5.9773   -14.1658    -7.2758  C.ar    1  <O>11      -0.0612
  19 C15      -4.7225   -14.6275    -7.6636  C.ar    1  <O>11      -0.0612
  20 C16      -3.6159   -14.3993    -6.8462  C.ar    1  <O>11      -0.0536
  21 C17      -3.7505   -13.7061    -5.6313  C.ar    1  <O>11      -0.0097
  22 C18       1.1151   -11.3668    -5.2172  C.ar    1  <O>11      -0.0269
  23 H1        2.9041   -10.6687    -2.7201  H       1  <O>11       0.2954
  24 H2       -0.3995   -13.0966    -6.9759  H       1  <O>11       0.1464
  25 H3       -0.7007   -14.2005    -4.3228  H       1  <O>11       0.0512
  26 H4       -1.3973   -14.8683    -5.8185  H       1  <O>11       0.0512
  27 H5       -2.0417   -12.1127    -2.0242  H       1  <O>11       0.2921
  28 H6        0.7391    -8.3884    -3.7103  H       1  <O>11       0.0626
  29 H7       -1.6070    -8.9723    -3.9769  H       1  <O>11       0.0618
  30 H8       -2.2287   -11.0748    -5.0282  H       1  <O>11       0.0636
  31 H9       -4.1497   -11.7801    -2.3289  H       1  <O>11       0.0654
  32 H10      -6.0748   -12.1737    -3.7487  H       1  <O>11       0.0625
  33 H11      -7.0606   -13.1294    -5.7954  H       1  <O>11       0.0624
  34 H12      -6.7978   -14.3375    -7.8777  H       1  <O>11       0.0618
  35 H13      -4.6114   -15.1374    -8.5540  H       1  <O>11       0.0618
  36 H14      -2.6874   -14.7434    -7.1369  H       1  <O>11       0.0624
  37 H15       1.8481   -12.0089    -5.5570  H       1  <O>11       0.0644
@<TRIPOS>BOND
     1     1     2    2
     2     2     3    1
     3     2     4    1
     4     4     5   ar
     5     5     6   ar
     6     6     7   ar
     7     7     8   ar
     8     8     9    1
     9     9    10    1
    10    10    11    1
    11    11    12   ar
    12    12    13    1
    13    12    14   ar
    14    14    15   ar
    15    15    16   ar
    16    16    17   ar
    17    17    18   ar
    18    18    19   ar
    19    19    20   ar
    20    20    21   ar
    21    11    21   ar
    22    16    21   ar
    23     8    22   ar
    24     4    22   ar
    25     3    23    1
    26     9    24    1
    27    10    25    1
    28    10    26    1
    29    13    27    1
    30     5    28    1
    31     6    29    1
    32     7    30    1
    33    14    31    1
    34    15    32    1
    35    17    33    1
    36    18    34    1
    37    19    35    1
    38    20    36    1
    39    22    37    1
@<TRIPOS>MOLECULE
mol48_2_17
 37 39 0 0 0
SMALL
USER_CHARGES
****
VDW energy = 70.98
@<TRIPOS>ATOM
   1 O1        3.4420    -9.1855    -5.2979  O.2     1  <O>11      -0.2451
   2 C1        2.8552    -9.8129    -4.4288  C.2     1  <O>11       0.3369
   3 O2        3.5096   -10.1823    -3.3012  O.3     1  <O>11      -0.4771
   4 C2        1.4620   -10.1610    -4.6040  C.ar    1  <O>11       0.0606
   5 C3        0.5946   -10.0837    -3.5126  C.ar    1  <O>11      -0.0477
   6 C4       -0.7516   -10.4309    -3.6727  C.ar    1  <O>11      -0.0592
   7 C5       -1.2274   -10.8492    -4.9180  C.ar    1  <O>11      -0.0408
   8 C6       -0.3466   -10.9160    -6.0041  C.ar    1  <O>11       0.0282
   9 N1       -0.8430   -11.3468    -7.2862  N.pl3   1  <O>11      -0.3396
  10 C7       -0.2329   -10.8421    -8.5136  C.3     1  <O>11       0.0384
  11 C8       -1.2743   -10.7058    -9.5639  C.ar    1  <O>11       0.0186
  12 C9       -2.0032   -11.8351    -9.9866  C.ar    1  <O>11       0.1221
  13 O3       -1.7479   -12.9934    -9.4694  O.3     1  <O>11      -0.5064
  14 C10      -2.9990   -11.7066   -10.9526  C.ar    1  <O>11      -0.0193
  15 C11      -3.2560   -10.4571   -11.5265  C.ar    1  <O>11      -0.0506
  16 C12      -2.5292    -9.3202   -11.1379  C.ar    1  <O>11      -0.0173
  17 C13      -2.7735    -8.0607   -11.7114  C.ar    1  <O>11      -0.0540
  18 C14      -2.0451    -6.9418   -11.3053  C.ar    1  <O>11      -0.0612
  19 C15      -1.0680    -7.0634   -10.3211  C.ar    1  <O>11      -0.0612
  20 C16      -0.8144    -8.3078    -9.7450  C.ar    1  <O>11      -0.0536
  21 C17      -1.5350    -9.4456   -10.1456  C.ar    1  <O>11      -0.0097
  22 C18       0.9963   -10.5699    -5.8555  C.ar    1  <O>11      -0.0269
  23 H1        2.9041   -10.6687    -2.7201  H       1  <O>11       0.2954
  24 H2       -1.6225   -12.0047    -7.3367  H       1  <O>11       0.1464
  25 H3        0.5340   -11.5386    -8.8510  H       1  <O>11       0.0512
  26 H4        0.2196    -9.8692    -8.3196  H       1  <O>11       0.0512
  27 H5       -2.3333   -13.6591    -9.8637  H       1  <O>11       0.2921
  28 H6        0.9443    -9.7723    -2.5929  H       1  <O>11       0.0626
  29 H7       -1.3953   -10.3778    -2.8679  H       1  <O>11       0.0618
  30 H8       -2.2197   -11.1068    -5.0362  H       1  <O>11       0.0636
  31 H9       -3.5460   -12.5317   -11.2441  H       1  <O>11       0.0654
  32 H10      -3.9905   -10.3695   -12.2461  H       1  <O>11       0.0625
  33 H11      -3.4983    -7.9623   -12.4394  H       1  <O>11       0.0624
  34 H12      -2.2311    -6.0224   -11.7355  H       1  <O>11       0.0618
  35 H13      -0.5328    -6.2345   -10.0185  H       1  <O>11       0.0618
  36 H14      -0.0891    -8.3939    -9.0159  H       1  <O>11       0.0624
  37 H15       1.6389   -10.6156    -6.6617  H       1  <O>11       0.0644
@<TRIPOS>BOND
     1     1     2    2
     2     2     3    1
     3     2     4    1
     4     4     5   ar
     5     5     6   ar
     6     6     7   ar
     7     7     8   ar
     8     8     9    1
     9     9    10    1
    10    10    11    1
    11    11    12   ar
    12    12    13    1
    13    12    14   ar
    14    14    15   ar
    15    15    16   ar
    16    16    17   ar
    17    17    18   ar
    18    18    19   ar
    19    19    20   ar
    20    20    21   ar
    21    11    21   ar
    22    16    21   ar
    23     8    22   ar
    24     4    22   ar
    25     3    23    1
    26     9    24    1
    27    10    25    1
    28    10    26    1
    29    13    27    1
    30     5    28    1
    31     6    29    1
    32     7    30    1
    33    14    31    1
    34    15    32    1
    35    17    33    1
    36    18    34    1
    37    19    35    1
    38    20    36    1
    39    22    37    1
@<TRIPOS>MOLECULE
mol48_2_18
 37 39 0 0 0
SMALL
USER_CHARGES
****
VDW energy = 71.19
@<TRIPOS>ATOM
   1 O1        3.4420    -9.1855    -5.2979  O.2     1  <O>11      -0.2451
   2 C1        2.8552    -9.8129    -4.4288  C.2     1  <O>11       0.3369
   3 O2        3.5096   -10.1823    -3.3012  O.3     1  <O>11      -0.4771
   4 C2        1.4620   -10.1610    -4.6040  C.ar    1  <O>11       0.0606
   5 C3        1.0134   -11.4175    -4.1926  C.ar    1  <O>11      -0.0477
   6 C4       -0.3305   -11.7649    -4.3706  C.ar    1  <O>11      -0.0592
   7 C5       -1.2205   -10.8590    -4.9532  C.ar    1  <O>11      -0.0408
   8 C6       -0.7568    -9.6008    -5.3553  C.ar    1  <O>11       0.0282
   9 N1       -1.6793    -8.6703    -5.9544  N.pl3   1  <O>11      -0.3396
  10 C7       -1.4770    -7.2329    -5.7914  C.3     1  <O>11       0.0384
  11 C8       -2.7956    -6.5530    -5.7177  C.ar    1  <O>11       0.0186
  12 C9       -3.7006    -6.6487    -6.7933  C.ar    1  <O>11       0.1221
  13 O3       -3.3700    -7.3150    -7.8520  O.3     1  <O>11      -0.5064
  14 C10      -4.9489    -6.0343    -6.7171  C.ar    1  <O>11      -0.0193
  15 C11      -5.2934    -5.2950    -5.5808  C.ar    1  <O>11      -0.0506
  16 C12      -4.4011    -5.1668    -4.5041  C.ar    1  <O>11      -0.0173
  17 C13      -4.7330    -4.4217    -3.3597  C.ar    1  <O>11      -0.0540
  18 C14      -3.8347    -4.3133    -2.2974  C.ar    1  <O>11      -0.0612
  19 C15      -2.5975    -4.9486    -2.3606  C.ar    1  <O>11      -0.0612
  20 C16      -2.2550    -5.6898    -3.4911  C.ar    1  <O>11      -0.0536
  21 C17      -3.1454    -5.8052    -4.5719  C.ar    1  <O>11      -0.0097
  22 C18       0.5801    -9.2441    -5.1802  C.ar    1  <O>11      -0.0269
  23 H1        2.9041   -10.6687    -2.7201  H       1  <O>11       0.2954
  24 H2       -2.4754    -9.0159    -6.4925  H       1  <O>11       0.1464
  25 H3       -0.9163    -6.8462    -6.6417  H       1  <O>11       0.0512
  26 H4       -0.9188    -7.0476    -4.8732  H       1  <O>11       0.0512
  27 H5       -4.0982    -7.2855    -8.4926  H       1  <O>11       0.2921
  28 H6        1.6693   -12.0865    -3.7596  H       1  <O>11       0.0626
  29 H7       -0.6655   -12.6936    -4.0704  H       1  <O>11       0.0618
  30 H8       -2.2113   -11.1153    -5.0861  H       1  <O>11       0.0636
  31 H9       -5.6180    -6.1246    -7.4976  H       1  <O>11       0.0654
  32 H10      -6.2170    -4.8370    -5.5329  H       1  <O>11       0.0625
  33 H11      -5.6494    -3.9504    -3.3045  H       1  <O>11       0.0624
  34 H12      -4.0879    -3.7610    -1.4632  H       1  <O>11       0.0618
  35 H13      -1.9355    -4.8713    -1.5726  H       1  <O>11       0.0618
  36 H14      -1.3368    -6.1590    -3.5344  H       1  <O>11       0.0624
  37 H15       0.9141    -8.3127    -5.4733  H       1  <O>11       0.0644
@<TRIPOS>BOND
     1     1     2    2
     2     2     3    1
     3     2     4    1
     4     4     5   ar
     5     5     6   ar
     6     6     7   ar
     7     7     8   ar
     8     8     9    1
     9     9    10    1
    10    10    11    1
    11    11    12   ar
    12    12    13    1
    13    12    14   ar
    14    14    15   ar
    15    15    16   ar
    16    16    17   ar
    17    17    18   ar
    18    18    19   ar
    19    19    20   ar
    20    20    21   ar
    21    11    21   ar
    22    16    21   ar
    23     8    22   ar
    24     4    22   ar
    25     3    23    1
    26     9    24    1
    27    10    25    1
    28    10    26    1
    29    13    27    1
    30     5    28    1
    31     6    29    1
    32     7    30    1
    33    14    31    1
    34    15    32    1
    35    17    33    1
    36    18    34    1
    37    19    35    1
    38    20    36    1
    39    22    37    1
@<TRIPOS>MOLECULE
mol48_2_19
 37 39 0 0 0
SMALL
USER_CHARGES
****
VDW energy = 72.27
@<TRIPOS>ATOM
   1 O1        3.4420    -9.1855    -5.2979  O.2     1  <O>11      -0.2451
   2 C1        2.8552    -9.8129    -4.4288  C.2     1  <O>11       0.3369
   3 O2        3.5096   -10.1823    -3.3012  O.3     1  <O>11      -0.4771
   4 C2        1.4620   -10.1610    -4.6040  C.ar    1  <O>11       0.0606
   5 C3        0.9397   -10.2659    -5.8946  C.ar    1  <O>11      -0.0477
   6 C4       -0.4102   -10.5902    -6.0704  C.ar    1  <O>11      -0.0592
   7 C5       -1.2312   -10.8118    -4.9618  C.ar    1  <O>11      -0.0408
   8 C6       -0.6915   -10.7085    -3.6743  C.ar    1  <O>11       0.0282
   9 N1       -1.5424   -10.9392    -2.5348  N.pl3   1  <O>11      -0.3396
  10 C7       -0.9803   -11.4813    -1.3005  C.3     1  <O>11       0.0384
  11 C8       -1.9834   -12.3576    -0.6430  C.ar    1  <O>11       0.0186
  12 C9       -3.2289   -11.8315    -0.2466  C.ar    1  <O>11       0.1221
  13 O3       -3.4867   -10.5784    -0.4406  O.3     1  <O>11      -0.5064
  14 C10      -4.1826   -12.6562     0.3464  C.ar    1  <O>11      -0.0193
  15 C11      -3.8915   -14.0049     0.5760  C.ar    1  <O>11      -0.0506
  16 C12      -2.6498   -14.5487     0.2095  C.ar    1  <O>11      -0.0173
  17 C13      -2.3428   -15.9005     0.4405  C.ar    1  <O>11      -0.0540
  18 C14      -1.1056   -16.4230     0.0614  C.ar    1  <O>11      -0.0612
  19 C15      -0.1615   -15.6066    -0.5554  C.ar    1  <O>11      -0.0612
  20 C16      -0.4527   -14.2629    -0.7890  C.ar    1  <O>11      -0.0536
  21 C17      -1.6915   -13.7193    -0.4092  C.ar    1  <O>11      -0.0097
  22 C18       0.6532   -10.3881    -3.4884  C.ar    1  <O>11      -0.0269
  23 H1        2.9041   -10.6687    -2.7201  H       1  <O>11       0.2954
  24 H2       -2.5393   -10.7244    -2.5906  H       1  <O>11       0.1464
  25 H3       -0.7186   -10.6630    -0.6304  H       1  <O>11       0.0512
  26 H4       -0.0863   -12.0605    -1.5334  H       1  <O>11       0.0512
  27 H5       -4.3788   -10.3783    -0.1159  H       1  <O>11       0.2921
  28 H6        1.5458   -10.1052    -6.7143  H       1  <O>11       0.0626
  29 H7       -0.8008   -10.6661    -7.0226  H       1  <O>11       0.0618
  30 H8       -2.2271   -11.0495    -5.0911  H       1  <O>11       0.0636
  31 H9       -5.1021   -12.2727     0.6157  H       1  <O>11       0.0654
  32 H10      -4.5996   -14.6093     1.0214  H       1  <O>11       0.0625
  33 H11      -3.0388   -16.5125     0.8946  H       1  <O>11       0.0624
  34 H12      -0.8900   -17.4165     0.2387  H       1  <O>11       0.0618
  35 H13       0.7516   -15.9949    -0.8392  H       1  <O>11       0.0618
  36 H14       0.2498   -13.6609    -1.2462  H       1  <O>11       0.0624
  37 H15       1.0462   -10.3195    -2.5366  H       1  <O>11       0.0644
@<TRIPOS>BOND
     1     1     2    2
     2     2     3    1
     3     2     4    1
     4     4     5   ar
     5     5     6   ar
     6     6     7   ar
     7     7     8   ar
     8     8     9    1
     9     9    10    1
    10    10    11    1
    11    11    12   ar
    12    12    13    1
    13    12    14   ar
    14    14    15   ar
    15    15    16   ar
    16    16    17   ar
    17    17    18   ar
    18    18    19   ar
    19    19    20   ar
    20    20    21   ar
    21    11    21   ar
    22    16    21   ar
    23     8    22   ar
    24     4    22   ar
    25     3    23    1
    26     9    24    1
    27    10    25    1
    28    10    26    1
    29    13    27    1
    30     5    28    1
    31     6    29    1
    32     7    30    1
    33    14    31    1
    34    15    32    1
    35    17    33    1
    36    18    34    1
    37    19    35    1
    38    20    36    1
    39    22    37    1
@<TRIPOS>MOLECULE
mol48_2_20
 37 39 0 0 0
SMALL
USER_CHARGES
****
VDW energy = 74.41
@<TRIPOS>ATOM
   1 O1        3.4420    -9.1855    -5.2979  O.2     1  <O>11      -0.2451
   2 C1        2.8552    -9.8129    -4.4288  C.2     1  <O>11       0.3369
   3 O2        3.5096   -10.1823    -3.3012  O.3     1  <O>11      -0.4771
   4 C2        1.4620   -10.1610    -4.6040  C.ar    1  <O>11       0.0606
   5 C3        0.8011    -9.7734    -5.7712  C.ar    1  <O>11      -0.0477
   6 C4       -0.5499   -10.0964    -5.9412  C.ar    1  <O>11      -0.0592
   7 C5       -1.2340   -10.8060    -4.9510  C.ar    1  <O>11      -0.0408
   8 C6       -0.5561   -11.1926    -3.7888  C.ar    1  <O>11       0.0282
   9 N1       -1.2663   -11.9251    -2.7716  N.pl3   1  <O>11      -0.3396
  10 C7       -0.5768   -12.3375    -1.5517  C.3     1  <O>11       0.0384
  11 C8       -1.1172   -13.6436    -1.0954  C.ar    1  <O>11       0.0186
  12 C9       -2.2116   -13.6843    -0.2089  C.ar    1  <O>11       0.1221
  13 O3       -2.7305   -12.5792     0.2202  O.3     1  <O>11      -0.5064
  14 C10      -2.7381   -14.9075     0.2007  C.ar    1  <O>11      -0.0193
  15 C11      -2.1596   -16.0999    -0.2464  C.ar    1  <O>11      -0.0506
  16 C12      -1.0552   -16.0866    -1.1135  C.ar    1  <O>11      -0.0173
  17 C13      -0.4612   -17.2775    -1.5648  C.ar    1  <O>11      -0.0540
  18 C14       0.6311   -17.2422    -2.4327  C.ar    1  <O>11      -0.0612
  19 C15       1.1418   -16.0210    -2.8641  C.ar    1  <O>11      -0.0612
  20 C16       0.5627   -14.8317    -2.4225  C.ar    1  <O>11      -0.0536
  21 C17      -0.5343   -14.8489    -1.5447  C.ar    1  <O>11      -0.0097
  22 C18       0.7909   -10.8776    -3.6108  C.ar    1  <O>11      -0.0269
  23 H1        2.9041   -10.6687    -2.7201  H       1  <O>11       0.2954
  24 H2       -2.2520   -12.1570    -2.9040  H       1  <O>11       0.1464
  25 H3       -0.7328   -11.5890    -0.7755  H       1  <O>11       0.0512
  26 H4        0.4903   -12.4345    -1.7540  H       1  <O>11       0.0512
  27 H5       -3.4699   -12.7796     0.8157  H       1  <O>11       0.2921
  28 H6        1.3061    -9.2516    -6.5046  H       1  <O>11       0.0626
  29 H7       -1.0427    -9.8094    -6.8013  H       1  <O>11       0.0618
  30 H8       -2.2307   -11.0431    -5.0753  H       1  <O>11       0.0636
  31 H9       -3.5535   -14.9337     0.8329  H       1  <O>11       0.0654
  32 H10      -2.5502   -17.0028     0.0655  H       1  <O>11       0.0625
  33 H11      -0.8361   -18.1866    -1.2517  H       1  <O>11       0.0624
  34 H12       1.0612   -18.1231    -2.7553  H       1  <O>11       0.0618
  35 H13       1.9470   -15.9960    -3.5092  H       1  <O>11       0.0618
  36 H14       0.9444   -13.9284    -2.7442  H       1  <O>11       0.0624
  37 H15       1.2863   -11.1709    -2.7543  H       1  <O>11       0.0644
@<TRIPOS>BOND
     1     1     2    2
     2     2     3    1
     3     2     4    1
     4     4     5   ar
     5     5     6   ar
     6     6     7   ar
     7     7     8   ar
     8     8     9    1
     9     9    10    1
    10    10    11    1
    11    11    12   ar
    12    12    13    1
    13    12    14   ar
    14    14    15   ar
    15    15    16   ar
    16    16    17   ar
    17    17    18   ar
    18    18    19   ar
    19    19    20   ar
    20    20    21   ar
    21    11    21   ar
    22    16    21   ar
    23     8    22   ar
    24     4    22   ar
    25     3    23    1
    26     9    24    1
    27    10    25    1
    28    10    26    1
    29    13    27    1
    30     5    28    1
    31     6    29    1
    32     7    30    1
    33    14    31    1
    34    15    32    1
    35    17    33    1
    36    18    34    1
    37    19    35    1
    38    20    36    1
    39    22    37    1
@<TRIPOS>MOLECULE
mol48_2_21
 37 39 0 0 0
SMALL
USER_CHARGES
****
VDW energy = 94.37
@<TRIPOS>ATOM
   1 O1        3.4420    -9.1855    -5.2979  O.2     1  <O>11      -0.2451
   2 C1        2.8552    -9.8129    -4.4288  C.2     1  <O>11       0.3369
   3 O2        3.5096   -10.1823    -3.3012  O.3     1  <O>11      -0.4771
   4 C2        1.4620   -10.1610    -4.6040  C.ar    1  <O>11       0.0606
   5 C3        0.4750    -9.2817    -4.1546  C.ar    1  <O>11      -0.0477
   6 C4       -0.8745    -9.6183    -4.3101  C.ar    1  <O>11      -0.0592
   7 C5       -1.2337   -10.8255    -4.9148  C.ar    1  <O>11      -0.0408
   8 C6       -0.2326   -11.6941    -5.3653  C.ar    1  <O>11       0.0282
   9 N1       -0.6088   -12.9371    -5.9892  N.pl3   1  <O>11      -0.3396
  10 C7        0.2501   -13.5323    -7.0097  C.3     1  <O>11       0.0384
  11 C8       -0.5896   -14.2218    -8.0224  C.ar    1  <O>11       0.0186
  12 C9       -0.1132   -15.3829    -8.6628  C.ar    1  <O>11       0.1221
  13 O3        1.0659   -15.8338    -8.3785  O.3     1  <O>11      -0.5064
  14 C10      -0.9085   -16.0475    -9.5940  C.ar    1  <O>11      -0.0193
  15 C11      -2.1729   -15.5436    -9.9162  C.ar    1  <O>11      -0.0506
  16 C12      -2.6623   -14.3765    -9.3078  C.ar    1  <O>11      -0.0173
  17 C13      -3.9283   -13.8568    -9.6275  C.ar    1  <O>11      -0.0540
  18 C14      -4.3991   -12.6998    -9.0054  C.ar    1  <O>11      -0.0612
  19 C15      -3.6166   -12.0493    -8.0552  C.ar    1  <O>11      -0.0612
  20 C16      -2.3578   -12.5536    -7.7298  C.ar    1  <O>11      -0.0536
  21 C17      -1.8662   -13.7146    -8.3502  C.ar    1  <O>11      -0.0097
  22 C18       1.1151   -11.3668    -5.2172  C.ar    1  <O>11      -0.0269
  23 H1        2.9041   -10.6687    -2.7201  H       1  <O>11       0.2954
  24 H2       -1.4770   -13.4016    -5.7183  H       1  <O>11       0.1464
  25 H3        0.9219   -14.2526    -6.5440  H       1  <O>11       0.0512
  26 H4        0.8351   -12.7489    -7.4926  H       1  <O>11       0.0512
  27 H5        1.2400   -16.6335    -8.8998  H       1  <O>11       0.2921
  28 H6        0.7391    -8.3884    -3.7103  H       1  <O>11       0.0626
  29 H7       -1.6070    -8.9723    -3.9769  H       1  <O>11       0.0618
  30 H8       -2.2287   -11.0748    -5.0282  H       1  <O>11       0.0636
  31 H9       -0.5653   -16.9099   -10.0451  H       1  <O>11       0.0654
  32 H10      -2.7548   -16.0368   -10.6114  H       1  <O>11       0.0625
  33 H11      -4.5151   -14.3352   -10.3288  H       1  <O>11       0.0624
  34 H12      -5.3291   -12.3255    -9.2502  H       1  <O>11       0.0618
  35 H13      -3.9674   -11.1961    -7.5926  H       1  <O>11       0.0618
  36 H14      -1.7806   -12.0684    -7.0252  H       1  <O>11       0.0624
  37 H15       1.8481   -12.0089    -5.5570  H       1  <O>11       0.0644
@<TRIPOS>BOND
     1     1     2    2
     2     2     3    1
     3     2     4    1
     4     4     5   ar
     5     5     6   ar
     6     6     7   ar
     7     7     8   ar
     8     8     9    1
     9     9    10    1
    10    10    11    1
    11    11    12   ar
    12    12    13    1
    13    12    14   ar
    14    14    15   ar
    15    15    16   ar
    16    16    17   ar
    17    17    18   ar
    18    18    19   ar
    19    19    20   ar
    20    20    21   ar
    21    11    21   ar
    22    16    21   ar
    23     8    22   ar
    24     4    22   ar
    25     3    23    1
    26     9    24    1
    27    10    25    1
    28    10    26    1
    29    13    27    1
    30     5    28    1
    31     6    29    1
    32     7    30    1
    33    14    31    1
    34    15    32    1
    35    17    33    1
    36    18    34    1
    37    19    35    1
    38    20    36    1
    39    22    37    1
@<TRIPOS>MOLECULE
mol48_2_22
 37 39 0 0 0
SMALL
USER_CHARGES
****
VDW energy = 94.65
@<TRIPOS>ATOM
   1 O1        3.4420    -9.1855    -5.2979  O.2     1  <O>11      -0.2451
   2 C1        2.8552    -9.8129    -4.4288  C.2     1  <O>11       0.3369
   3 O2        3.5096   -10.1823    -3.3012  O.3     1  <O>11      -0.4771
   4 C2        1.4620   -10.1610    -4.6040  C.ar    1  <O>11       0.0606
   5 C3        0.4750    -9.2817    -4.1546  C.ar    1  <O>11      -0.0477
   6 C4       -0.8745    -9.6183    -4.3101  C.ar    1  <O>11      -0.0592
   7 C5       -1.2337   -10.8255    -4.9148  C.ar    1  <O>11      -0.0408
   8 C6       -0.2326   -11.6941    -5.3653  C.ar    1  <O>11       0.0282
   9 N1       -0.6088   -12.9371    -5.9892  N.pl3   1  <O>11      -0.3396
  10 C7       -1.3119   -12.9291    -7.2694  C.3     1  <O>11       0.0384
  11 C8       -2.2636   -14.0685    -7.3183  C.ar    1  <O>11       0.0186
  12 C9       -2.5351   -14.7098    -8.5431  C.ar    1  <O>11       0.1221
  13 O3       -1.9666   -14.2894    -9.6268  O.3     1  <O>11      -0.5064
  14 C10      -3.4069   -15.7958    -8.5888  C.ar    1  <O>11      -0.0193
  15 C11      -4.0378   -16.2324    -7.4193  C.ar    1  <O>11      -0.0506
  16 C12      -3.8004   -15.5970    -6.1897  C.ar    1  <O>11      -0.0173
  17 C13      -4.4329   -16.0222    -5.0090  C.ar    1  <O>11      -0.0540
  18 C14      -4.1770   -15.3818    -3.7958  C.ar    1  <O>11      -0.0612
  19 C15      -3.2858   -14.3135    -3.7437  C.ar    1  <O>11      -0.0612
  20 C16      -2.6527   -13.8805    -4.9083  C.ar    1  <O>11      -0.0536
  21 C17      -2.9026   -14.5106    -6.1391  C.ar    1  <O>11      -0.0097
  22 C18       1.1151   -11.3668    -5.2172  C.ar    1  <O>11      -0.0269
  23 H1        2.9041   -10.6687    -2.7201  H       1  <O>11       0.2954
  24 H2       -0.3845   -13.8241    -5.5355  H       1  <O>11       0.1464
  25 H3       -0.5907   -13.0235    -8.0806  H       1  <O>11       0.0512
  26 H4       -1.8588   -11.9918    -7.3764  H       1  <O>11       0.0512
  27 H5       -2.2558   -14.8346   -10.3755  H       1  <O>11       0.2921
  28 H6        0.7391    -8.3884    -3.7103  H       1  <O>11       0.0626
  29 H7       -1.6070    -8.9723    -3.9769  H       1  <O>11       0.0618
  30 H8       -2.2287   -11.0748    -5.0282  H       1  <O>11       0.0636
  31 H9       -3.5867   -16.2770    -9.4838  H       1  <O>11       0.0654
  32 H10      -4.6874   -17.0333    -7.4606  H       1  <O>11       0.0625
  33 H11      -5.0925   -16.8153    -5.0393  H       1  <O>11       0.0624
  34 H12      -4.6494   -15.7007    -2.9355  H       1  <O>11       0.0618
  35 H13      -3.0941   -13.8432    -2.8452  H       1  <O>11       0.0618
  36 H14      -1.9930   -13.0880    -4.8657  H       1  <O>11       0.0624
  37 H15       1.8481   -12.0089    -5.5570  H       1  <O>11       0.0644
@<TRIPOS>BOND
     1     1     2    2
     2     2     3    1
     3     2     4    1
     4     4     5   ar
     5     5     6   ar
     6     6     7   ar
     7     7     8   ar
     8     8     9    1
     9     9    10    1
    10    10    11    1
    11    11    12   ar
    12    12    13    1
    13    12    14   ar
    14    14    15   ar
    15    15    16   ar
    16    16    17   ar
    17    17    18   ar
    18    18    19   ar
    19    19    20   ar
    20    20    21   ar
    21    11    21   ar
    22    16    21   ar
    23     8    22   ar
    24     4    22   ar
    25     3    23    1
    26     9    24    1
    27    10    25    1
    28    10    26    1
    29    13    27    1
    30     5    28    1
    31     6    29    1
    32     7    30    1
    33    14    31    1
    34    15    32    1
    35    17    33    1
    36    18    34    1
    37    19    35    1
    38    20    36    1
    39    22    37    1
@<TRIPOS>MOLECULE
mol48_2_23
 37 39 0 0 0
SMALL
USER_CHARGES
****
VDW energy = 97.78
@<TRIPOS>ATOM
   1 O1        3.4420    -9.1855    -5.2979  O.2     1  <O>11      -0.2451
   2 C1        2.8552    -9.8129    -4.4288  C.2     1  <O>11       0.3369
   3 O2        3.5096   -10.1823    -3.3012  O.3     1  <O>11      -0.4771
   4 C2        1.4620   -10.1610    -4.6040  C.ar    1  <O>11       0.0606
   5 C3        1.0134   -11.4175    -4.1926  C.ar    1  <O>11      -0.0477
   6 C4       -0.3305   -11.7649    -4.3706  C.ar    1  <O>11      -0.0592
   7 C5       -1.2205   -10.8590    -4.9532  C.ar    1  <O>11      -0.0408
   8 C6       -0.7568    -9.6008    -5.3553  C.ar    1  <O>11       0.0282
   9 N1       -1.6793    -8.6703    -5.9544  N.pl3   1  <O>11      -0.3396
  10 C7       -1.4770    -7.2329    -5.7914  C.3     1  <O>11       0.0384
  11 C8       -2.7956    -6.5530    -5.7177  C.ar    1  <O>11       0.0186
  12 C9       -2.9495    -5.2523    -6.2369  C.ar    1  <O>11       0.1221
  13 O3       -1.9329    -4.6464    -6.7603  O.3     1  <O>11      -0.5064
  14 C10      -4.1910    -4.6214    -6.1934  C.ar    1  <O>11      -0.0193
  15 C11      -5.2819    -5.2701    -5.6055  C.ar    1  <O>11      -0.0506
  16 C12      -5.1497    -6.5580    -5.0620  C.ar    1  <O>11      -0.0173
  17 C13      -6.2365    -7.2178    -4.4631  C.ar    1  <O>11      -0.0540
  18 C14      -6.0857    -8.5010    -3.9358  C.ar    1  <O>11      -0.0612
  19 C15      -4.8524    -9.1434    -4.0023  C.ar    1  <O>11      -0.0612
  20 C16      -3.7653    -8.4993    -4.5924  C.ar    1  <O>11      -0.0536
  21 C17      -3.8983    -7.2054    -5.1238  C.ar    1  <O>11      -0.0097
  22 C18       0.5801    -9.2441    -5.1802  C.ar    1  <O>11      -0.0269
  23 H1        2.9041   -10.6687    -2.7201  H       1  <O>11       0.2954
  24 H2       -2.4754    -9.0159    -6.4925  H       1  <O>11       0.1464
  25 H3       -0.9163    -6.8462    -6.6417  H       1  <O>11       0.0512
  26 H4       -0.9188    -7.0476    -4.8732  H       1  <O>11       0.0512
  27 H5       -2.2047    -3.7678    -7.0695  H       1  <O>11       0.2921
  28 H6        1.6693   -12.0865    -3.7596  H       1  <O>11       0.0626
  29 H7       -0.6655   -12.6936    -4.0704  H       1  <O>11       0.0618
  30 H8       -2.2113   -11.1153    -5.0861  H       1  <O>11       0.0636
  31 H9       -4.3055    -3.6773    -6.5942  H       1  <O>11       0.0654
  32 H10      -6.1975    -4.7951    -5.5707  H       1  <O>11       0.0625
  33 H11      -7.1545    -6.7490    -4.4129  H       1  <O>11       0.0624
  34 H12      -6.8900    -8.9746    -3.4957  H       1  <O>11       0.0618
  35 H13      -4.7429   -10.0940    -3.6157  H       1  <O>11       0.0618
  36 H14      -2.8526    -8.9787    -4.6395  H       1  <O>11       0.0624
  37 H15       0.9141    -8.3127    -5.4733  H       1  <O>11       0.0644
@<TRIPOS>BOND
     1     1     2    2
     2     2     3    1
     3     2     4    1
     4     4     5   ar
     5     5     6   ar
     6     6     7   ar
     7     7     8   ar
     8     8     9    1
     9     9    10    1
    10    10    11    1
    11    11    12   ar
    12    12    13    1
    13    12    14   ar
    14    14    15   ar
    15    15    16   ar
    16    16    17   ar
    17    17    18   ar
    18    18    19   ar
    19    19    20   ar
    20    20    21   ar
    21    11    21   ar
    22    16    21   ar
    23     8    22   ar
    24     4    22   ar
    25     3    23    1
    26     9    24    1
    27    10    25    1
    28    10    26    1
    29    13    27    1
    30     5    28    1
    31     6    29    1
    32     7    30    1
    33    14    31    1
    34    15    32    1
    35    17    33    1
    36    18    34    1
    37    19    35    1
    38    20    36    1
    39    22    37    1
@<TRIPOS>MOLECULE
mol48_2_24
 37 39 0 0 0
SMALL
USER_CHARGES
****
VDW energy = 98.68
@<TRIPOS>ATOM
   1 O1        3.4420    -9.1855    -5.2979  O.2     1  <O>11      -0.2451
   2 C1        2.8552    -9.8129    -4.4288  C.2     1  <O>11       0.3369
   3 O2        3.5096   -10.1823    -3.3012  O.3     1  <O>11      -0.4771
   4 C2        1.4620   -10.1610    -4.6040  C.ar    1  <O>11       0.0606
   5 C3        0.9397   -10.2659    -5.8946  C.ar    1  <O>11      -0.0477
   6 C4       -0.4102   -10.5902    -6.0704  C.ar    1  <O>11      -0.0592
   7 C5       -1.2312   -10.8118    -4.9618  C.ar    1  <O>11      -0.0408
   8 C6       -0.6915   -10.7085    -3.6743  C.ar    1  <O>11       0.0282
   9 N1       -1.5424   -10.9392    -2.5348  N.pl3   1  <O>11      -0.3396
  10 C7       -0.9803   -11.4813    -1.3005  C.3     1  <O>11       0.0384
  11 C8       -1.9834   -12.3576    -0.6430  C.ar    1  <O>11       0.0186
  12 C9       -2.0328   -12.4438     0.7624  C.ar    1  <O>11       0.1221
  13 O3       -1.1884   -11.7714     1.4761  O.3     1  <O>11      -0.5064
  14 C10      -2.9894   -13.2442     1.3834  C.ar    1  <O>11      -0.0193
  15 C11      -3.8851   -13.9880     0.6083  C.ar    1  <O>11      -0.0506
  16 C12      -3.8430   -13.9359    -0.7943  C.ar    1  <O>11      -0.0173
  17 C13      -4.7333   -14.6831    -1.5843  C.ar    1  <O>11      -0.0540
  18 C14      -4.6796   -14.6110    -2.9769  C.ar    1  <O>11      -0.0612
  19 C15      -3.7418   -13.7912    -3.5987  C.ar    1  <O>11      -0.0612
  20 C16      -2.8514   -13.0456    -2.8266  C.ar    1  <O>11      -0.0536
  21 C17      -2.8883   -13.1102    -1.4234  C.ar    1  <O>11      -0.0097
  22 C18       0.6532   -10.3881    -3.4884  C.ar    1  <O>11      -0.0269
  23 H1        2.9041   -10.6687    -2.7201  H       1  <O>11       0.2954
  24 H2       -2.5393   -10.7244    -2.5906  H       1  <O>11       0.1464
  25 H3       -0.7186   -10.6630    -0.6304  H       1  <O>11       0.0512
  26 H4       -0.0863   -12.0605    -1.5334  H       1  <O>11       0.0512
  27 H5       -1.3563   -11.9380     2.4171  H       1  <O>11       0.2921
  28 H6        1.5458   -10.1052    -6.7143  H       1  <O>11       0.0626
  29 H7       -0.8008   -10.6661    -7.0226  H       1  <O>11       0.0618
  30 H8       -2.2271   -11.0495    -5.0911  H       1  <O>11       0.0636
  31 H9       -3.0369   -13.2881     2.4134  H       1  <O>11       0.0654
  32 H10      -4.5873   -14.5839     1.0740  H       1  <O>11       0.0625
  33 H11      -5.4331   -15.2907    -1.1304  H       1  <O>11       0.0624
  34 H12      -5.3365   -15.1665    -3.5469  H       1  <O>11       0.0618
  35 H13      -3.7057   -13.7353    -4.6286  H       1  <O>11       0.0618
  36 H14      -2.1575   -12.4393    -3.2912  H       1  <O>11       0.0624
  37 H15       1.0462   -10.3195    -2.5366  H       1  <O>11       0.0644
@<TRIPOS>BOND
     1     1     2    2
     2     2     3    1
     3     2     4    1
     4     4     5   ar
     5     5     6   ar
     6     6     7   ar
     7     7     8   ar
     8     8     9    1
     9     9    10    1
    10    10    11    1
    11    11    12   ar
    12    12    13    1
    13    12    14   ar
    14    14    15   ar
    15    15    16   ar
    16    16    17   ar
    17    17    18   ar
    18    18    19   ar
    19    19    20   ar
    20    20    21   ar
    21    11    21   ar
    22    16    21   ar
    23     8    22   ar
    24     4    22   ar
    25     3    23    1
    26     9    24    1
    27    10    25    1
    28    10    26    1
    29    13    27    1
    30     5    28    1
    31     6    29    1
    32     7    30    1
    33    14    31    1
    34    15    32    1
    35    17    33    1
    36    18    34    1
    37    19    35    1
    38    20    36    1
    39    22    37    1
@<TRIPOS>MOLECULE
mol48_2_25
 37 39 0 0 0
SMALL
USER_CHARGES
****
VDW energy = 100.09
@<TRIPOS>ATOM
   1 O1        3.4420    -9.1855    -5.2979  O.2     1  <O>11      -0.2451
   2 C1        2.8552    -9.8129    -4.4288  C.2     1  <O>11       0.3369
   3 O2        3.5096   -10.1823    -3.3012  O.3     1  <O>11      -0.4771
   4 C2        1.4620   -10.1610    -4.6040  C.ar    1  <O>11       0.0606
   5 C3        0.4750    -9.2817    -4.1546  C.ar    1  <O>11      -0.0477
   6 C4       -0.8745    -9.6183    -4.3101  C.ar    1  <O>11      -0.0592
   7 C5       -1.2337   -10.8255    -4.9148  C.ar    1  <O>11      -0.0408
   8 C6       -0.2326   -11.6941    -5.3653  C.ar    1  <O>11       0.0282
   9 N1       -0.6088   -12.9371    -5.9892  N.pl3   1  <O>11      -0.3396
  10 C7       -0.7867   -14.1381    -5.1772  C.3     1  <O>11       0.0384
  11 C8       -0.3593   -15.3290    -5.9553  C.ar    1  <O>11       0.0186
  12 C9       -1.0075   -16.5658    -5.7667  C.ar    1  <O>11       0.1221
  13 O3       -1.9630   -16.6632    -4.8995  O.3     1  <O>11      -0.5064
  14 C10      -0.6271   -17.6788    -6.5136  C.ar    1  <O>11      -0.0193
  15 C11       0.4220   -17.5755    -7.4330  C.ar    1  <O>11      -0.0506
  16 C12       1.0981   -16.3597    -7.6244  C.ar    1  <O>11      -0.0173
  17 C13       2.1577   -16.2447    -8.5404  C.ar    1  <O>11      -0.0540
  18 C14       2.8112   -15.0250    -8.7211  C.ar    1  <O>11      -0.0612
  19 C15       2.4149   -13.9053    -7.9950  C.ar    1  <O>11      -0.0612
  20 C16       1.3659   -14.0061    -7.0815  C.ar    1  <O>11      -0.0536
  21 C17       0.7002   -15.2276    -6.8834  C.ar    1  <O>11      -0.0097
  22 C18       1.1151   -11.3668    -5.2172  C.ar    1  <O>11      -0.0269
  23 H1        2.9041   -10.6687    -2.7201  H       1  <O>11       0.2954
  24 H2       -0.7503   -12.9785    -6.9997  H       1  <O>11       0.1464
  25 H3       -1.8367   -14.2403    -4.9049  H       1  <O>11       0.0512
  26 H4       -0.1828   -14.0568    -4.2730  H       1  <O>11       0.0512
  27 H5       -2.3017   -17.5724    -4.8932  H       1  <O>11       0.2921
  28 H6        0.7391    -8.3884    -3.7103  H       1  <O>11       0.0626
  29 H7       -1.6070    -8.9723    -3.9769  H       1  <O>11       0.0618
  30 H8       -2.2287   -11.0748    -5.0282  H       1  <O>11       0.0636
  31 H9       -1.1184   -18.5777    -6.3887  H       1  <O>11       0.0654
  32 H10       0.7034   -18.4050    -7.9787  H       1  <O>11       0.0625
  33 H11       2.4551   -17.0697    -9.0843  H       1  <O>11       0.0624
  34 H12       3.5900   -14.9530    -9.3944  H       1  <O>11       0.0618
  35 H13       2.8961   -13.0027    -8.1324  H       1  <O>11       0.0618
  36 H14       1.0752   -13.1740    -6.5449  H       1  <O>11       0.0624
  37 H15       1.8481   -12.0089    -5.5570  H       1  <O>11       0.0644
@<TRIPOS>BOND
     1     1     2    2
     2     2     3    1
     3     2     4    1
     4     4     5   ar
     5     5     6   ar
     6     6     7   ar
     7     7     8   ar
     8     8     9    1
     9     9    10    1
    10    10    11    1
    11    11    12   ar
    12    12    13    1
    13    12    14   ar
    14    14    15   ar
    15    15    16   ar
    16    16    17   ar
    17    17    18   ar
    18    18    19   ar
    19    19    20   ar
    20    20    21   ar
    21    11    21   ar
    22    16    21   ar
    23     8    22   ar
    24     4    22   ar
    25     3    23    1
    26     9    24    1
    27    10    25    1
    28    10    26    1
    29    13    27    1
    30     5    28    1
    31     6    29    1
    32     7    30    1
    33    14    31    1
    34    15    32    1
    35    17    33    1
    36    18    34    1
    37    19    35    1
    38    20    36    1
    39    22    37    1
@<TRIPOS>MOLECULE
mol48_2_26
 37 39 0 0 0
SMALL
USER_CHARGES
****
VDW energy = 100.30
@<TRIPOS>ATOM
   1 O1        3.4420    -9.1855    -5.2979  O.2     1  <O>11      -0.2451
   2 C1        2.8552    -9.8129    -4.4288  C.2     1  <O>11       0.3369
   3 O2        3.5096   -10.1823    -3.3012  O.3     1  <O>11      -0.4771
   4 C2        1.4620   -10.1610    -4.6040  C.ar    1  <O>11       0.0606
   5 C3        0.4750    -9.2817    -4.1546  C.ar    1  <O>11      -0.0477
   6 C4       -0.8745    -9.6183    -4.3101  C.ar    1  <O>11      -0.0592
   7 C5       -1.2337   -10.8255    -4.9148  C.ar    1  <O>11      -0.0408
   8 C6       -0.2326   -11.6941    -5.3653  C.ar    1  <O>11       0.0282
   9 N1       -0.6088   -12.9371    -5.9892  N.pl3   1  <O>11      -0.3396
  10 C7       -1.2882   -13.9695    -5.2108  C.3     1  <O>11       0.0384
  11 C8       -0.8633   -15.3099    -5.6894  C.ar    1  <O>11       0.0186
  12 C9       -1.7673   -16.3902    -5.6582  C.ar    1  <O>11       0.1221
  13 O3       -2.9618   -16.2135    -5.1931  O.3     1  <O>11      -0.5064
  14 C10      -1.3809   -17.6427    -6.1308  C.ar    1  <O>11      -0.0193
  15 C11      -0.0813   -17.8358    -6.6108  C.ar    1  <O>11      -0.0506
  16 C12       0.8450   -16.7807    -6.6330  C.ar    1  <O>11      -0.0173
  17 C13       2.1554   -16.9635    -7.1068  C.ar    1  <O>11      -0.0540
  18 C14       3.0582   -15.8996    -7.1276  C.ar    1  <O>11      -0.0612
  19 C15       2.6656   -14.6410    -6.6805  C.ar    1  <O>11      -0.0612
  20 C16       1.3687   -14.4463    -6.2062  C.ar    1  <O>11      -0.0536
  21 C17       0.4485   -15.5077    -6.1736  C.ar    1  <O>11      -0.0097
  22 C18       1.1151   -11.3668    -5.2172  C.ar    1  <O>11      -0.0269
  23 H1        2.9041   -10.6687    -2.7201  H       1  <O>11       0.2954
  24 H2       -0.3995   -13.0966    -6.9759  H       1  <O>11       0.1464
  25 H3       -2.3659   -13.8657    -5.3320  H       1  <O>11       0.0512
  26 H4       -1.0285   -13.8587    -4.1575  H       1  <O>11       0.0512
  27 H5       -3.4543   -17.0479    -5.2429  H       1  <O>11       0.2921
  28 H6        0.7391    -8.3884    -3.7103  H       1  <O>11       0.0626
  29 H7       -1.6070    -8.9723    -3.9769  H       1  <O>11       0.0618
  30 H8       -2.2287   -11.0748    -5.0282  H       1  <O>11       0.0636
  31 H9       -2.0523   -18.4264    -6.1268  H       1  <O>11       0.0654
  32 H10       0.2009   -18.7674    -6.9537  H       1  <O>11       0.0625
  33 H11       2.4527   -17.8930    -7.4426  H       1  <O>11       0.0624
  34 H12       4.0188   -16.0462    -7.4750  H       1  <O>11       0.0618
  35 H13       3.3328   -13.8538    -6.7001  H       1  <O>11       0.0618
  36 H14       1.0816   -13.5120    -5.8753  H       1  <O>11       0.0624
  37 H15       1.8481   -12.0089    -5.5570  H       1  <O>11       0.0644
@<TRIPOS>BOND
     1     1     2    2
     2     2     3    1
     3     2     4    1
     4     4     5   ar
     5     5     6   ar
     6     6     7   ar
     7     7     8   ar
     8     8     9    1
     9     9    10    1
    10    10    11    1
    11    11    12   ar
    12    12    13    1
    13    12    14   ar
    14    14    15   ar
    15    15    16   ar
    16    16    17   ar
    17    17    18   ar
    18    18    19   ar
    19    19    20   ar
    20    20    21   ar
    21    11    21   ar
    22    16    21   ar
    23     8    22   ar
    24     4    22   ar
    25     3    23    1
    26     9    24    1
    27    10    25    1
    28    10    26    1
    29    13    27    1
    30     5    28    1
    31     6    29    1
    32     7    30    1
    33    14    31    1
    34    15    32    1
    35    17    33    1
    36    18    34    1
    37    19    35    1
    38    20    36    1
    39    22    37    1
@<TRIPOS>MOLECULE
mol48_2_27
 37 39 0 0 0
SMALL
USER_CHARGES
****
VDW energy = 100.49
@<TRIPOS>ATOM
   1 O1        3.4420    -9.1855    -5.2979  O.2     1  <O>11      -0.2451
   2 C1        2.8552    -9.8129    -4.4288  C.2     1  <O>11       0.3369
   3 O2        3.5096   -10.1823    -3.3012  O.3     1  <O>11      -0.4771
   4 C2        1.4620   -10.1610    -4.6040  C.ar    1  <O>11       0.0606
   5 C3        1.1306   -11.3698    -5.2192  C.ar    1  <O>11      -0.0477
   6 C4       -0.2153   -11.7066    -5.4026  C.ar    1  <O>11      -0.0592
   7 C5       -1.2229   -10.8409    -4.9699  C.ar    1  <O>11      -0.0408
   8 C6       -0.8747    -9.6351    -4.3496  C.ar    1  <O>11       0.0282
   9 N1       -1.9179    -8.7469    -3.9043  N.pl3   1  <O>11      -0.3396
  10 C7       -2.7956    -8.1034    -4.8785  C.3     1  <O>11       0.0384
  11 C8       -3.1653    -6.7492    -4.3929  C.ar    1  <O>11       0.0186
  12 C9       -4.4314    -6.2111    -4.6970  C.ar    1  <O>11       0.1221
  13 O3       -5.2622    -6.8939    -5.4168  O.3     1  <O>11      -0.5064
  14 C10      -4.7918    -4.9522    -4.2211  C.ar    1  <O>11      -0.0193
  15 C11      -3.8824    -4.2071    -3.4634  C.ar    1  <O>11      -0.0506
  16 C12      -2.6066    -4.7120    -3.1643  C.ar    1  <O>11      -0.0173
  17 C13      -1.6817    -3.9707    -2.4093  C.ar    1  <O>11      -0.0540
  18 C14      -0.4217    -4.4942    -2.1166  C.ar    1  <O>11      -0.0612
  19 C15      -0.0696    -5.7630    -2.5687  C.ar    1  <O>11      -0.0612
  20 C16      -0.9775    -6.5085    -3.3203  C.ar    1  <O>11      -0.0536
  21 C17      -2.2485    -5.9946    -3.6285  C.ar    1  <O>11      -0.0097
  22 C18       0.4636    -9.2913    -4.1600  C.ar    1  <O>11      -0.0269
  23 H1        2.9041   -10.6687    -2.7201  H       1  <O>11       0.2954
  24 H2       -2.0431    -8.5663    -2.9069  H       1  <O>11       0.1464
  25 H3       -3.6972    -8.7018    -5.0061  H       1  <O>11       0.0512
  26 H4       -2.2766    -8.0196    -5.8338  H       1  <O>11       0.0512
  27 H5       -6.0816    -6.3873    -5.5320  H       1  <O>11       0.2921
  28 H6        1.8739   -12.0113    -5.5368  H       1  <O>11       0.0626
  29 H7       -0.4644   -12.5978    -5.8593  H       1  <O>11       0.0618
  30 H8       -2.2155   -11.0882    -5.1063  H       1  <O>11       0.0636
  31 H9       -5.7281    -4.5701    -4.4273  H       1  <O>11       0.0654
  32 H10      -4.1528    -3.2726    -3.1190  H       1  <O>11       0.0625
  33 H11      -1.9366    -3.0307    -2.0682  H       1  <O>11       0.0624
  34 H12       0.2506    -3.9397    -1.5638  H       1  <O>11       0.0618
  35 H13       0.8609    -6.1510    -2.3482  H       1  <O>11       0.0618
  36 H14      -0.7128    -7.4485    -3.6540  H       1  <O>11       0.0624
  37 H15       0.7134    -8.4037    -3.6966  H       1  <O>11       0.0644
@<TRIPOS>BOND
     1     1     2    2
     2     2     3    1
     3     2     4    1
     4     4     5   ar
     5     5     6   ar
     6     6     7   ar
     7     7     8   ar
     8     8     9    1
     9     9    10    1
    10    10    11    1
    11    11    12   ar
    12    12    13    1
    13    12    14   ar
    14    14    15   ar
    15    15    16   ar
    16    16    17   ar
    17    17    18   ar
    18    18    19   ar
    19    19    20   ar
    20    20    21   ar
    21    11    21   ar
    22    16    21   ar
    23     8    22   ar
    24     4    22   ar
    25     3    23    1
    26     9    24    1
    27    10    25    1
    28    10    26    1
    29    13    27    1
    30     5    28    1
    31     6    29    1
    32     7    30    1
    33    14    31    1
    34    15    32    1
    35    17    33    1
    36    18    34    1
    37    19    35    1
    38    20    36    1
    39    22    37    1
@<TRIPOS>MOLECULE
mol48_2_28
 37 39 0 0 0
SMALL
USER_CHARGES
****
VDW energy = 101.30
@<TRIPOS>ATOM
   1 O1        3.4420    -9.1855    -5.2979  O.2     1  <O>11      -0.2451
   2 C1        2.8552    -9.8129    -4.4288  C.2     1  <O>11       0.3369
   3 O2        3.5096   -10.1823    -3.3012  O.3     1  <O>11      -0.4771
   4 C2        1.4620   -10.1610    -4.6040  C.ar    1  <O>11       0.0606
   5 C3        0.4750    -9.2817    -4.1546  C.ar    1  <O>11      -0.0477
   6 C4       -0.8745    -9.6183    -4.3101  C.ar    1  <O>11      -0.0592
   7 C5       -1.2337   -10.8255    -4.9148  C.ar    1  <O>11      -0.0408
   8 C6       -0.2326   -11.6941    -5.3653  C.ar    1  <O>11       0.0282
   9 N1       -0.6088   -12.9371    -5.9892  N.pl3   1  <O>11      -0.3396
  10 C7       -0.8128   -12.9974    -7.4342  C.3     1  <O>11       0.0384
  11 C8       -1.8945   -13.9680    -7.7411  C.ar    1  <O>11       0.0186
  12 C9       -1.8493   -14.7234    -8.9296  C.ar    1  <O>11       0.1221
  13 O3       -0.8719   -14.5537    -9.7604  O.3     1  <O>11      -0.5064
  14 C10      -2.8483   -15.6539    -9.2083  C.ar    1  <O>11      -0.0193
  15 C11      -3.9157   -15.8176    -8.3193  C.ar    1  <O>11      -0.0506
  16 C12      -3.9950   -15.0620    -7.1384  C.ar    1  <O>11      -0.0173
  17 C13      -5.0653   -15.2127    -6.2403  C.ar    1  <O>11      -0.0540
  18 C14      -5.1211   -14.4573    -5.0683  C.ar    1  <O>11      -0.0612
  19 C15      -4.1100   -13.5463    -4.7752  C.ar    1  <O>11      -0.0612
  20 C16      -3.0430   -13.3857    -5.6586  C.ar    1  <O>11      -0.0536
  21 C17      -2.9737   -14.1345    -6.8456  C.ar    1  <O>11      -0.0097
  22 C18       1.1151   -11.3668    -5.2172  C.ar    1  <O>11      -0.0269
  23 H1        2.9041   -10.6687    -2.7201  H       1  <O>11       0.2954
  24 H2       -0.7339   -13.7761    -5.4205  H       1  <O>11       0.1464
  25 H3        0.1096   -13.3170    -7.9182  H       1  <O>11       0.0512
  26 H4       -1.0931   -12.0099    -7.8020  H       1  <O>11       0.0512
  27 H5       -0.9876   -15.1458   -10.5203  H       1  <O>11       0.2921
  28 H6        0.7391    -8.3884    -3.7103  H       1  <O>11       0.0626
  29 H7       -1.6070    -8.9723    -3.9769  H       1  <O>11       0.0618
  30 H8       -2.2287   -11.0748    -5.0282  H       1  <O>11       0.0636
  31 H9       -2.8007   -16.2212   -10.0691  H       1  <O>11       0.0654
  32 H10      -4.6558   -16.5039    -8.5344  H       1  <O>11       0.0625
  33 H11      -5.8170   -15.8882    -6.4495  H       1  <O>11       0.0624
  34 H12      -5.9134   -14.5743    -4.4175  H       1  <O>11       0.0618
  35 H13      -4.1500   -12.9911    -3.9061  H       1  <O>11       0.0618
  36 H14      -2.2956   -12.7092    -5.4380  H       1  <O>11       0.0624
  37 H15       1.8481   -12.0089    -5.5570  H       1  <O>11       0.0644
@<TRIPOS>BOND
     1     1     2    2
     2     2     3    1
     3     2     4    1
     4     4     5   ar
     5     5     6   ar
     6     6     7   ar
     7     7     8   ar
     8     8     9    1
     9     9    10    1
    10    10    11    1
    11    11    12   ar
    12    12    13    1
    13    12    14   ar
    14    14    15   ar
    15    15    16   ar
    16    16    17   ar
    17    17    18   ar
    18    18    19   ar
    19    19    20   ar
    20    20    21   ar
    21    11    21   ar
    22    16    21   ar
    23     8    22   ar
    24     4    22   ar
    25     3    23    1
    26     9    24    1
    27    10    25    1
    28    10    26    1
    29    13    27    1
    30     5    28    1
    31     6    29    1
    32     7    30    1
    33    14    31    1
    34    15    32    1
    35    17    33    1
    36    18    34    1
    37    19    35    1
    38    20    36    1
    39    22    37    1
@<TRIPOS>MOLECULE
mol48_2_29
 37 39 0 0 0
SMALL
USER_CHARGES
****
VDW energy = 103.59
@<TRIPOS>ATOM
   1 O1        3.4420    -9.1855    -5.2979  O.2     1  <O>11      -0.2451
   2 C1        2.8552    -9.8129    -4.4288  C.2     1  <O>11       0.3369
   3 O2        3.5096   -10.1823    -3.3012  O.3     1  <O>11      -0.4771
   4 C2        1.4620   -10.1610    -4.6040  C.ar    1  <O>11       0.0606
   5 C3        0.5946   -10.0837    -3.5126  C.ar    1  <O>11      -0.0477
   6 C4       -0.7516   -10.4309    -3.6727  C.ar    1  <O>11      -0.0592
   7 C5       -1.2274   -10.8492    -4.9180  C.ar    1  <O>11      -0.0408
   8 C6       -0.3466   -10.9160    -6.0041  C.ar    1  <O>11       0.0282
   9 N1       -0.8430   -11.3468    -7.2862  N.pl3   1  <O>11      -0.3396
  10 C7       -1.3179   -12.7167    -7.4635  C.3     1  <O>11       0.0384
  11 C8       -1.0003   -13.1761    -8.8399  C.ar    1  <O>11       0.0186
  12 C9       -1.8632   -14.0715    -9.5024  C.ar    1  <O>11       0.1221
  13 O3       -2.9224   -14.5059    -8.8992  O.3     1  <O>11      -0.5064
  14 C10      -1.5825   -14.4842   -10.8032  C.ar    1  <O>11      -0.0193
  15 C11      -0.4243   -14.0311   -11.4433  C.ar    1  <O>11      -0.0506
  16 C12       0.4628   -13.1551   -10.7972  C.ar    1  <O>11      -0.0173
  17 C13       1.6328   -12.6977   -11.4271  C.ar    1  <O>11      -0.0540
  18 C14       2.4972   -11.8210   -10.7701  C.ar    1  <O>11      -0.0612
  19 C15       2.2046   -11.3867    -9.4801  C.ar    1  <O>11      -0.0612
  20 C16       1.0477   -11.8342    -8.8429  C.ar    1  <O>11      -0.0536
  21 C17       0.1690   -12.7209    -9.4879  C.ar    1  <O>11      -0.0097
  22 C18       0.9963   -10.5699    -5.8555  C.ar    1  <O>11      -0.0269
  23 H1        2.9041   -10.6687    -2.7201  H       1  <O>11       0.2954
  24 H2       -0.8620   -10.6943    -8.0715  H       1  <O>11       0.1464
  25 H3       -2.3960   -12.7502    -7.3095  H       1  <O>11       0.0512
  26 H4       -0.8267   -13.3670    -6.7391  H       1  <O>11       0.0512
  27 H5       -3.4054   -15.1072    -9.4879  H       1  <O>11       0.2921
  28 H6        0.9443    -9.7723    -2.5929  H       1  <O>11       0.0626
  29 H7       -1.3953   -10.3778    -2.8679  H       1  <O>11       0.0618
  30 H8       -2.2197   -11.1068    -5.0362  H       1  <O>11       0.0636
  31 H9       -2.2280   -15.1229   -11.2936  H       1  <O>11       0.0654
  32 H10      -0.2185   -14.3453   -12.4046  H       1  <O>11       0.0625
  33 H11       1.8548   -13.0130   -12.3844  H       1  <O>11       0.0624
  34 H12       3.3551   -11.4940   -11.2414  H       1  <O>11       0.0618
  35 H13       2.8424   -10.7351    -8.9966  H       1  <O>11       0.0618
  36 H14       0.8344   -11.5103    -7.8866  H       1  <O>11       0.0624
  37 H15       1.6389   -10.6156    -6.6617  H       1  <O>11       0.0644
@<TRIPOS>BOND
     1     1     2    2
     2     2     3    1
     3     2     4    1
     4     4     5   ar
     5     5     6   ar
     6     6     7   ar
     7     7     8   ar
     8     8     9    1
     9     9    10    1
    10    10    11    1
    11    11    12   ar
    12    12    13    1
    13    12    14   ar
    14    14    15   ar
    15    15    16   ar
    16    16    17   ar
    17    17    18   ar
    18    18    19   ar
    19    19    20   ar
    20    20    21   ar
    21    11    21   ar
    22    16    21   ar
    23     8    22   ar
    24     4    22   ar
    25     3    23    1
    26     9    24    1
    27    10    25    1
    28    10    26    1
    29    13    27    1
    30     5    28    1
    31     6    29    1
    32     7    30    1
    33    14    31    1
    34    15    32    1
    35    17    33    1
    36    18    34    1
    37    19    35    1
    38    20    36    1
    39    22    37    1
@<TRIPOS>MOLECULE
mol48_2_30
 37 39 0 0 0
SMALL
USER_CHARGES
****
VDW energy = 107.46
@<TRIPOS>ATOM
   1 O1        3.4420    -9.1855    -5.2979  O.2     1  <O>11      -0.2451
   2 C1        2.8552    -9.8129    -4.4288  C.2     1  <O>11       0.3369
   3 O2        3.5096   -10.1823    -3.3012  O.3     1  <O>11      -0.4771
   4 C2        1.4620   -10.1610    -4.6040  C.ar    1  <O>11       0.0606
   5 C3        0.8011    -9.7734    -5.7712  C.ar    1  <O>11      -0.0477
   6 C4       -0.5499   -10.0964    -5.9412  C.ar    1  <O>11      -0.0592
   7 C5       -1.2340   -10.8060    -4.9510  C.ar    1  <O>11      -0.0408
   8 C6       -0.5561   -11.1926    -3.7888  C.ar    1  <O>11       0.0282
   9 N1       -1.2663   -11.9251    -2.7716  N.pl3   1  <O>11      -0.3396
  10 C7       -2.3572   -11.2877    -2.0387  C.3     1  <O>11       0.0384
  11 C8       -2.3767   -11.7933    -0.6421  C.ar    1  <O>11       0.0186
  12 C9       -3.6001   -11.9248     0.0443  C.ar    1  <O>11       0.1221
  13 O3       -4.7032   -11.5853    -0.5407  O.3     1  <O>11      -0.5064
  14 C10      -3.6250   -12.4236     1.3451  C.ar    1  <O>11      -0.0193
  15 C11      -2.4284   -12.7672     1.9827  C.ar    1  <O>11      -0.0506
  16 C12      -1.1943   -12.6256     1.3280  C.ar    1  <O>11      -0.0173
  17 C13       0.0153   -12.9614     1.9598  C.ar    1  <O>11      -0.0540
  18 C14       1.2305   -12.8205     1.2885  C.ar    1  <O>11      -0.0612
  19 C15       1.2551   -12.3475    -0.0206  C.ar    1  <O>11      -0.0612
  20 C16       0.0622   -12.0091    -0.6588  C.ar    1  <O>11      -0.0536
  21 C17      -1.1699   -12.1400     0.0041  C.ar    1  <O>11      -0.0097
  22 C18       0.7909   -10.8776    -3.6108  C.ar    1  <O>11      -0.0269
  23 H1        2.9041   -10.6687    -2.7201  H       1  <O>11       0.2954
  24 H2       -1.0061   -12.8903    -2.5623  H       1  <O>11       0.1464
  25 H3       -3.3050   -11.5213    -2.5224  H       1  <O>11       0.0512
  26 H4       -2.2078   -10.2076    -2.0339  H       1  <O>11       0.0512
  27 H5       -5.4483   -11.7375     0.0619  H       1  <O>11       0.2921
  28 H6        1.3061    -9.2516    -6.5046  H       1  <O>11       0.0626
  29 H7       -1.0427    -9.8094    -6.8013  H       1  <O>11       0.0618
  30 H8       -2.2307   -11.0431    -5.0753  H       1  <O>11       0.0636
  31 H9       -4.5248   -12.5392     1.8372  H       1  <O>11       0.0654
  32 H10      -2.4529   -13.1301     2.9485  H       1  <O>11       0.0625
  33 H11       0.0047   -13.3155     2.9291  H       1  <O>11       0.0624
  34 H12       2.1128   -13.0674     1.7635  H       1  <O>11       0.0618
  35 H13       2.1540   -12.2476    -0.5177  H       1  <O>11       0.0618
  36 H14       0.0845   -11.6584    -1.6291  H       1  <O>11       0.0624
  37 H15       1.2863   -11.1709    -2.7543  H       1  <O>11       0.0644
@<TRIPOS>BOND
     1     1     2    2
     2     2     3    1
     3     2     4    1
     4     4     5   ar
     5     5     6   ar
     6     6     7   ar
     7     7     8   ar
     8     8     9    1
     9     9    10    1
    10    10    11    1
    11    11    12   ar
    12    12    13    1
    13    12    14   ar
    14    14    15   ar
    15    15    16   ar
    16    16    17   ar
    17    17    18   ar
    18    18    19   ar
    19    19    20   ar
    20    20    21   ar
    21    11    21   ar
    22    16    21   ar
    23     8    22   ar
    24     4    22   ar
    25     3    23    1
    26     9    24    1
    27    10    25    1
    28    10    26    1
    29    13    27    1
    30     5    28    1
    31     6    29    1
    32     7    30    1
    33    14    31    1
    34    15    32    1
    35    17    33    1
    36    18    34    1
    37    19    35    1
    38    20    36    1
    39    22    37    1
