@<TRIPOS>MOLECULE
mol43_1_1
 37 39 0 0 0
SMALL
USER_CHARGES
****
VDW energy = -51.23
@<TRIPOS>ATOM
   1 O1        8.7381    -1.4068    -2.6744  O.2     1  <O>11      -0.2754
   2 C1        7.6234    -1.0459    -3.0216  C.2     1  <O>11       0.2192
   3 C2        6.7510    -0.2990    -2.0700  C.3     1  <O>11       0.0685
   4 C3        7.4590    -0.1250    -0.7860  C.ar    1  <O>11       0.0780
   5 N1        7.2738    -1.1113     0.1273  N.ar    1  <O>11      -0.1748
   6 N2        7.8032    -0.9746     1.3639  N.ar    1  <O>11      -0.2425
   7 C4        8.5122     0.1405     1.6571  C.ar    1  <O>11       0.2725
   8 O2        8.9520     0.2652     2.9887  O.2     1  <O>11      -0.2658
   9 C5        8.8181     1.1406     0.7225  C.ar    1  <O>11       0.0496
  10 C6        9.6078     2.2762     1.0104  C.ar    1  <O>11      -0.0487
  11 C7        9.8460     3.2515     0.0410  C.ar    1  <O>11      -0.0610
  12 C8        9.2966     3.1146    -1.2286  C.ar    1  <O>11      -0.0611
  13 C9        8.5069     2.0039    -1.5290  C.ar    1  <O>11      -0.0521
  14 C10       8.2616     1.0015    -0.5623  C.ar    1  <O>11       0.0108
  15 N3        7.1750    -1.3270    -4.2840  N.am    1  <O>11      -0.3109
  16 C11       8.0290    -2.0580    -5.2160  C.3     1  <O>11       0.0369
  17 C12       7.3160    -2.2340    -6.5080  C.ar    1  <O>11      -0.0289
  18 C13       6.0954    -2.9294    -6.5553  C.ar    1  <O>11      -0.0570
  19 C14       5.4315    -3.1050    -7.7746  C.ar    1  <O>11      -0.0601
  20 C15       5.9754    -2.5874    -8.9529  C.ar    1  <O>11      -0.0434
  21 C16       7.1876    -1.8906    -8.9047  C.ar    1  <O>11       0.0413
  22 Cl1       7.8680    -1.2427   -10.3903  Cl      1  <O>11      -0.0835
  23 C17       7.8567    -1.7080    -7.6929  C.ar    1  <O>11      -0.0387
  24 H1        6.5110     0.6790    -2.4880  H       1  <O>11       0.0423
  25 H2        5.8310    -0.8590    -1.9040  H       1  <O>11       0.0423
  26 H3        7.6690    -1.6952     2.0590  H       1  <O>11       0.1921
  27 H4        6.2450    -1.0260    -4.5740  H       1  <O>11       0.1490
  28 H5        8.2700    -3.0360    -4.7980  H       1  <O>11       0.0512
  29 H6        8.9490    -1.4980    -5.3820  H       1  <O>11       0.0512
  30 H7       10.0150     2.3861     1.9523  H       1  <O>11       0.0625
  31 H8       10.4288     4.0728     0.2663  H       1  <O>11       0.0618
  32 H9        9.4726     3.8333    -1.9480  H       1  <O>11       0.0618
  33 H10       8.0956     1.9129    -2.4711  H       1  <O>11       0.0624
  34 H11       5.6874    -3.3118    -5.6879  H       1  <O>11       0.0621
  35 H12       4.5369    -3.6186    -7.8036  H       1  <O>11       0.0618
  36 H13       5.4866    -2.7183    -9.8523  H       1  <O>11       0.0632
  37 H14       8.7474    -1.1873    -7.6678  H       1  <O>11       0.0635
@<TRIPOS>BOND
     1     1     2    2
     2     2     3    1
     3     3     4    1
     4     4     5   ar
     5     5     6   ar
     6     6     7   ar
     7     7     8    2
     8     7     9   ar
     9     9    10   ar
    10    10    11   ar
    11    11    12   ar
    12    12    13   ar
    13    13    14   ar
    14     4    14   ar
    15     9    14   ar
    16     2    15   am
    17    15    16    1
    18    16    17    1
    19    17    18   ar
    20    18    19   ar
    21    19    20   ar
    22    20    21   ar
    23    21    22    1
    24    21    23   ar
    25    17    23   ar
    26     3    24    1
    27     3    25    1
    28     6    26    1
    29    15    27    1
    30    16    28    1
    31    16    29    1
    32    10    30    1
    33    11    31    1
    34    12    32    1
    35    13    33    1
    36    18    34    1
    37    19    35    1
    38    20    36    1
    39    23    37    1
@<TRIPOS>MOLECULE
mol43_1_2
 37 39 0 0 0
SMALL
USER_CHARGES
****
VDW energy = -50.19
@<TRIPOS>ATOM
   1 O1        8.7381    -1.4068    -2.6744  O.2     1  <O>11      -0.2754
   2 C1        7.6234    -1.0459    -3.0216  C.2     1  <O>11       0.2192
   3 C2        6.7510    -0.2990    -2.0700  C.3     1  <O>11       0.0685
   4 C3        7.4590    -0.1250    -0.7860  C.ar    1  <O>11       0.0780
   5 N1        7.2738    -1.1113     0.1273  N.ar    1  <O>11      -0.1748
   6 N2        7.8032    -0.9746     1.3639  N.ar    1  <O>11      -0.2425
   7 C4        8.5122     0.1405     1.6571  C.ar    1  <O>11       0.2725
   8 O2        8.9520     0.2652     2.9887  O.2     1  <O>11      -0.2658
   9 C5        8.8181     1.1406     0.7225  C.ar    1  <O>11       0.0496
  10 C6        9.6078     2.2762     1.0104  C.ar    1  <O>11      -0.0487
  11 C7        9.8460     3.2515     0.0410  C.ar    1  <O>11      -0.0610
  12 C8        9.2966     3.1146    -1.2286  C.ar    1  <O>11      -0.0611
  13 C9        8.5069     2.0039    -1.5290  C.ar    1  <O>11      -0.0521
  14 C10       8.2616     1.0015    -0.5623  C.ar    1  <O>11       0.0108
  15 N3        7.1750    -1.3270    -4.2840  N.am    1  <O>11      -0.3109
  16 C11       5.8429    -0.8955    -4.6984  C.3     1  <O>11       0.0369
  17 C12       5.5986    -1.3197    -6.1016  C.ar    1  <O>11      -0.0289
  18 C13       6.4352    -0.8653    -7.1356  C.ar    1  <O>11      -0.0570
  19 C14       6.1962    -1.2558    -8.4580  C.ar    1  <O>11      -0.0601
  20 C15       5.1266    -2.1026    -8.7594  C.ar    1  <O>11      -0.0434
  21 C16       4.2973    -2.5591    -7.7292  C.ar    1  <O>11       0.0413
  22 Cl1       2.9523    -3.6233    -8.1142  Cl      1  <O>11      -0.0835
  23 C17       4.5286    -2.1773    -6.4062  C.ar    1  <O>11      -0.0387
  24 H1        6.5110     0.6790    -2.4880  H       1  <O>11       0.0423
  25 H2        5.8310    -0.8590    -1.9040  H       1  <O>11       0.0423
  26 H3        7.6690    -1.6952     2.0590  H       1  <O>11       0.1921
  27 H4        7.7706    -1.8377    -4.9351  H       1  <O>11       0.1490
  28 H5        5.7748     0.1908    -4.6302  H       1  <O>11       0.0512
  29 H6        5.0953    -1.3472    -4.0468  H       1  <O>11       0.0512
  30 H7       10.0150     2.3861     1.9523  H       1  <O>11       0.0625
  31 H8       10.4288     4.0728     0.2663  H       1  <O>11       0.0618
  32 H9        9.4726     3.8333    -1.9480  H       1  <O>11       0.0618
  33 H10       8.0956     1.9129    -2.4711  H       1  <O>11       0.0624
  34 H11       7.2284    -0.2417    -6.9188  H       1  <O>11       0.0621
  35 H12       6.8124    -0.9170    -9.2134  H       1  <O>11       0.0618
  36 H13       4.9496    -2.3893    -9.7348  H       1  <O>11       0.0632
  37 H14       3.9141    -2.5245    -5.6533  H       1  <O>11       0.0635
@<TRIPOS>BOND
     1     1     2    2
     2     2     3    1
     3     3     4    1
     4     4     5   ar
     5     5     6   ar
     6     6     7   ar
     7     7     8    2
     8     7     9   ar
     9     9    10   ar
    10    10    11   ar
    11    11    12   ar
    12    12    13   ar
    13    13    14   ar
    14     4    14   ar
    15     9    14   ar
    16     2    15   am
    17    15    16    1
    18    16    17    1
    19    17    18   ar
    20    18    19   ar
    21    19    20   ar
    22    20    21   ar
    23    21    22    1
    24    21    23   ar
    25    17    23   ar
    26     3    24    1
    27     3    25    1
    28     6    26    1
    29    15    27    1
    30    16    28    1
    31    16    29    1
    32    10    30    1
    33    11    31    1
    34    12    32    1
    35    13    33    1
    36    18    34    1
    37    19    35    1
    38    20    36    1
    39    23    37    1
@<TRIPOS>MOLECULE
mol43_1_3
 37 39 0 0 0
SMALL
USER_CHARGES
****
VDW energy = -49.38
@<TRIPOS>ATOM
   1 O1        8.7381    -1.4068    -2.6744  O.2     1  <O>11      -0.2754
   2 C1        7.6234    -1.0459    -3.0216  C.2     1  <O>11       0.2192
   3 C2        6.7510    -0.2990    -2.0700  C.3     1  <O>11       0.0685
   4 C3        7.4590    -0.1250    -0.7860  C.ar    1  <O>11       0.0780
   5 N1        8.2092     1.0001    -0.6747  N.ar    1  <O>11      -0.1748
   6 N2        8.9699     1.1805     0.4285  N.ar    1  <O>11      -0.2425
   7 C4        8.9575     0.2366     1.3986  C.ar    1  <O>11       0.2725
   8 O2        9.8445     0.4380     2.4732  O.2     1  <O>11      -0.2658
   9 C5        8.1258    -0.8927     1.3798  C.ar    1  <O>11       0.0496
  10 C6        8.0677    -1.8485     2.4186  C.ar    1  <O>11      -0.0487
  11 C7        7.2409    -2.9685     2.3203  C.ar    1  <O>11      -0.0610
  12 C8        6.4634    -3.1576     1.1837  C.ar    1  <O>11      -0.0611
  13 C9        6.5139    -2.2287     0.1435  C.ar    1  <O>11      -0.0521
  14 C10       7.3393    -1.0836     0.2288  C.ar    1  <O>11       0.0108
  15 N3        7.1750    -1.3270    -4.2840  N.am    1  <O>11      -0.3109
  16 C11       5.8429    -0.8955    -4.6984  C.3     1  <O>11       0.0369
  17 C12       5.5986    -1.3197    -6.1016  C.ar    1  <O>11      -0.0289
  18 C13       6.4352    -0.8653    -7.1356  C.ar    1  <O>11      -0.0570
  19 C14       6.1962    -1.2558    -8.4580  C.ar    1  <O>11      -0.0601
  20 C15       5.1266    -2.1026    -8.7594  C.ar    1  <O>11      -0.0434
  21 C16       4.2973    -2.5591    -7.7292  C.ar    1  <O>11       0.0413
  22 Cl1       2.9523    -3.6233    -8.1142  Cl      1  <O>11      -0.0835
  23 C17       4.5286    -2.1773    -6.4062  C.ar    1  <O>11      -0.0387
  24 H1        6.5110     0.6790    -2.4880  H       1  <O>11       0.0423
  25 H2        5.8310    -0.8590    -1.9040  H       1  <O>11       0.0423
  26 H3        9.5407     2.0084     0.5251  H       1  <O>11       0.1921
  27 H4        7.7706    -1.8377    -4.9351  H       1  <O>11       0.1490
  28 H5        5.7748     0.1908    -4.6302  H       1  <O>11       0.0512
  29 H6        5.0953    -1.3472    -4.0468  H       1  <O>11       0.0512
  30 H7        8.6457    -1.7163     3.2633  H       1  <O>11       0.0625
  31 H8        7.2067    -3.6549     3.0901  H       1  <O>11       0.0618
  32 H9        5.8496    -3.9840     1.1091  H       1  <O>11       0.0618
  33 H10       5.9402    -2.3797    -0.7009  H       1  <O>11       0.0624
  34 H11       7.2284    -0.2417    -6.9188  H       1  <O>11       0.0621
  35 H12       6.8124    -0.9170    -9.2134  H       1  <O>11       0.0618
  36 H13       4.9496    -2.3893    -9.7348  H       1  <O>11       0.0632
  37 H14       3.9141    -2.5245    -5.6533  H       1  <O>11       0.0635
@<TRIPOS>BOND
     1     1     2    2
     2     2     3    1
     3     3     4    1
     4     4     5   ar
     5     5     6   ar
     6     6     7   ar
     7     7     8    2
     8     7     9   ar
     9     9    10   ar
    10    10    11   ar
    11    11    12   ar
    12    12    13   ar
    13    13    14   ar
    14     4    14   ar
    15     9    14   ar
    16     2    15   am
    17    15    16    1
    18    16    17    1
    19    17    18   ar
    20    18    19   ar
    21    19    20   ar
    22    20    21   ar
    23    21    22    1
    24    21    23   ar
    25    17    23   ar
    26     3    24    1
    27     3    25    1
    28     6    26    1
    29    15    27    1
    30    16    28    1
    31    16    29    1
    32    10    30    1
    33    11    31    1
    34    12    32    1
    35    13    33    1
    36    18    34    1
    37    19    35    1
    38    20    36    1
    39    23    37    1
@<TRIPOS>MOLECULE
mol43_1_4
 37 39 0 0 0
SMALL
USER_CHARGES
****
VDW energy = -48.92
@<TRIPOS>ATOM
   1 O1        8.7381    -1.4068    -2.6744  O.2     1  <O>11      -0.2754
   2 C1        7.6234    -1.0459    -3.0216  C.2     1  <O>11       0.2192
   3 C2        6.7510    -0.2990    -2.0700  C.3     1  <O>11       0.0685
   4 C3        6.0363     0.7713    -2.7938  C.ar    1  <O>11       0.0780
   5 N1        4.6817     0.6972    -2.7676  N.ar    1  <O>11      -0.1748
   6 N2        3.9576     1.5792    -3.4928  N.ar    1  <O>11      -0.2425
   7 C4        4.6032     2.5199    -4.2211  C.ar    1  <O>11       0.2725
   8 O2        3.7957     3.3432    -5.0287  O.2     1  <O>11      -0.2658
   9 C5        5.9936     2.7038    -4.2038  C.ar    1  <O>11       0.0496
  10 C6        6.6647     3.7224    -4.9166  C.ar    1  <O>11      -0.0487
  11 C7        8.0559     3.8281    -4.8817  C.ar    1  <O>11      -0.0610
  12 C8        8.8011     2.9176    -4.1414  C.ar    1  <O>11      -0.0611
  13 C9        8.1564     1.8995    -3.4377  C.ar    1  <O>11      -0.0521
  14 C10       6.7473     1.7817    -3.4545  C.ar    1  <O>11       0.0108
  15 N3        7.1750    -1.3270    -4.2840  N.am    1  <O>11      -0.3109
  16 C11       8.0290    -2.0580    -5.2160  C.3     1  <O>11       0.0369
  17 C12       7.3160    -2.2340    -6.5080  C.ar    1  <O>11      -0.0289
  18 C13       6.0954    -2.9294    -6.5553  C.ar    1  <O>11      -0.0570
  19 C14       5.4315    -3.1050    -7.7746  C.ar    1  <O>11      -0.0601
  20 C15       5.9754    -2.5874    -8.9529  C.ar    1  <O>11      -0.0434
  21 C16       7.1876    -1.8906    -8.9047  C.ar    1  <O>11       0.0413
  22 Cl1       7.8680    -1.2427   -10.3903  Cl      1  <O>11      -0.0835
  23 C17       7.8567    -1.7080    -7.6929  C.ar    1  <O>11      -0.0387
  24 H1        6.0274    -0.9835    -1.6265  H       1  <O>11       0.0423
  25 H2        7.3639     0.1414    -1.2839  H       1  <O>11       0.0423
  26 H3        2.9484     1.5342    -3.4914  H       1  <O>11       0.1921
  27 H4        6.2450    -1.0260    -4.5740  H       1  <O>11       0.1490
  28 H5        8.2700    -3.0360    -4.7980  H       1  <O>11       0.0512
  29 H6        8.9490    -1.4980    -5.3820  H       1  <O>11       0.0512
  30 H7        6.1177     4.3988    -5.4717  H       1  <O>11       0.0625
  31 H8        8.5304     4.5807    -5.4045  H       1  <O>11       0.0618
  32 H9        9.8299     2.9946    -4.1123  H       1  <O>11       0.0618
  33 H10       8.7165     1.2223    -2.8968  H       1  <O>11       0.0624
  34 H11       5.6874    -3.3118    -5.6879  H       1  <O>11       0.0621
  35 H12       4.5369    -3.6186    -7.8036  H       1  <O>11       0.0618
  36 H13       5.4866    -2.7183    -9.8523  H       1  <O>11       0.0632
  37 H14       8.7474    -1.1873    -7.6678  H       1  <O>11       0.0635
@<TRIPOS>BOND
     1     1     2    2
     2     2     3    1
     3     3     4    1
     4     4     5   ar
     5     5     6   ar
     6     6     7   ar
     7     7     8    2
     8     7     9   ar
     9     9    10   ar
    10    10    11   ar
    11    11    12   ar
    12    12    13   ar
    13    13    14   ar
    14     4    14   ar
    15     9    14   ar
    16     2    15   am
    17    15    16    1
    18    16    17    1
    19    17    18   ar
    20    18    19   ar
    21    19    20   ar
    22    20    21   ar
    23    21    22    1
    24    21    23   ar
    25    17    23   ar
    26     3    24    1
    27     3    25    1
    28     6    26    1
    29    15    27    1
    30    16    28    1
    31    16    29    1
    32    10    30    1
    33    11    31    1
    34    12    32    1
    35    13    33    1
    36    18    34    1
    37    19    35    1
    38    20    36    1
    39    23    37    1
@<TRIPOS>MOLECULE
mol43_1_5
 37 39 0 0 0
SMALL
USER_CHARGES
****
VDW energy = -46.82
@<TRIPOS>ATOM
   1 O1        8.7381    -1.4068    -2.6744  O.2     1  <O>11      -0.2754
   2 C1        7.6234    -1.0459    -3.0216  C.2     1  <O>11       0.2192
   3 C2        6.7510    -0.2990    -2.0700  C.3     1  <O>11       0.0685
   4 C3        7.4590    -0.1250    -0.7860  C.ar    1  <O>11       0.0780
   5 N1        7.6639     1.1582    -0.3954  N.ar    1  <O>11      -0.1748
   6 N2        8.3957     1.4019     0.7151  N.ar    1  <O>11      -0.2425
   7 C4        8.8992     0.3580     1.4143  C.ar    1  <O>11       0.2725
   8 O2        9.7320     0.6822     2.5022  O.2     1  <O>11      -0.2658
   9 C5        8.6336    -0.9858     1.1124  C.ar    1  <O>11       0.0496
  10 C6        9.1091    -2.0758     1.8752  C.ar    1  <O>11      -0.0487
  11 C7        8.8347    -3.3914     1.4988  C.ar    1  <O>11      -0.0610
  12 C8        8.0878    -3.6426     0.3537  C.ar    1  <O>11      -0.0611
  13 C9        7.6169    -2.5789    -0.4172  C.ar    1  <O>11      -0.0521
  14 C10       7.8777    -1.2393    -0.0470  C.ar    1  <O>11       0.0108
  15 N3        7.1750    -1.3270    -4.2840  N.am    1  <O>11      -0.3109
  16 C11       8.0289    -2.0582    -5.2159  C.3     1  <O>11       0.0369
  17 C12       7.3159    -2.2342    -6.5079  C.ar    1  <O>11      -0.0289
  18 C13       7.4389    -1.2695    -7.5228  C.ar    1  <O>11      -0.0570
  19 C14       6.7570    -1.4306    -8.7341  C.ar    1  <O>11      -0.0601
  20 C15       5.9519    -2.5529    -8.9446  C.ar    1  <O>11      -0.0434
  21 C16       5.8340    -3.5156    -7.9364  C.ar    1  <O>11       0.0413
  22 Cl1       4.8188    -4.9250    -8.2061  Cl      1  <O>11      -0.0835
  23 C17       6.5120    -3.3654    -6.7251  C.ar    1  <O>11      -0.0387
  24 H1        6.5110     0.6790    -2.4880  H       1  <O>11       0.0423
  25 H2        5.8310    -0.8590    -1.9040  H       1  <O>11       0.0423
  26 H3        8.5650     2.3511     1.0166  H       1  <O>11       0.1921
  27 H4        6.2451    -1.0258    -4.5741  H       1  <O>11       0.1490
  28 H5        8.2697    -3.0363    -4.7978  H       1  <O>11       0.0512
  29 H6        8.9490    -1.4984    -5.3819  H       1  <O>11       0.0512
  30 H7        9.6679    -1.8963     2.7240  H       1  <O>11       0.0625
  31 H8        9.1858    -4.1762     2.0695  H       1  <O>11       0.0618
  32 H9        7.8818    -4.6144     0.0740  H       1  <O>11       0.0618
  33 H10       7.0699    -2.7729    -1.2706  H       1  <O>11       0.0624
  34 H11       8.0342    -0.4396    -7.3741  H       1  <O>11       0.0621
  35 H12       6.8492    -0.7177    -9.4747  H       1  <O>11       0.0618
  36 H13       5.4479    -2.6708    -9.8374  H       1  <O>11       0.0632
  37 H14       6.4226    -4.0846    -5.9903  H       1  <O>11       0.0635
@<TRIPOS>BOND
     1     1     2    2
     2     2     3    1
     3     3     4    1
     4     4     5   ar
     5     5     6   ar
     6     6     7   ar
     7     7     8    2
     8     7     9   ar
     9     9    10   ar
    10    10    11   ar
    11    11    12   ar
    12    12    13   ar
    13    13    14   ar
    14     4    14   ar
    15     9    14   ar
    16     2    15   am
    17    15    16    1
    18    16    17    1
    19    17    18   ar
    20    18    19   ar
    21    19    20   ar
    22    20    21   ar
    23    21    22    1
    24    21    23   ar
    25    17    23   ar
    26     3    24    1
    27     3    25    1
    28     6    26    1
    29    15    27    1
    30    16    28    1
    31    16    29    1
    32    10    30    1
    33    11    31    1
    34    12    32    1
    35    13    33    1
    36    18    34    1
    37    19    35    1
    38    20    36    1
    39    23    37    1
@<TRIPOS>MOLECULE
mol43_1_6
 37 39 0 0 0
SMALL
USER_CHARGES
****
VDW energy = -45.65
@<TRIPOS>ATOM
   1 O1        8.7381    -1.4068    -2.6744  O.2     1  <O>11      -0.2754
   2 C1        7.6234    -1.0459    -3.0216  C.2     1  <O>11       0.2192
   3 C2        6.7510    -0.2990    -2.0700  C.3     1  <O>11       0.0685
   4 C3        7.4590    -0.1250    -0.7860  C.ar    1  <O>11       0.0780
   5 N1        7.6639     1.1582    -0.3954  N.ar    1  <O>11      -0.1748
   6 N2        8.3957     1.4019     0.7151  N.ar    1  <O>11      -0.2425
   7 C4        8.8992     0.3580     1.4143  C.ar    1  <O>11       0.2725
   8 O2        9.7320     0.6822     2.5022  O.2     1  <O>11      -0.2658
   9 C5        8.6336    -0.9858     1.1124  C.ar    1  <O>11       0.0496
  10 C6        9.1091    -2.0758     1.8752  C.ar    1  <O>11      -0.0487
  11 C7        8.8347    -3.3914     1.4988  C.ar    1  <O>11      -0.0610
  12 C8        8.0878    -3.6426     0.3537  C.ar    1  <O>11      -0.0611
  13 C9        7.6169    -2.5789    -0.4172  C.ar    1  <O>11      -0.0521
  14 C10       7.8777    -1.2393    -0.0470  C.ar    1  <O>11       0.0108
  15 N3        7.1750    -1.3270    -4.2840  N.am    1  <O>11      -0.3109
  16 C11       5.8429    -0.8955    -4.6984  C.3     1  <O>11       0.0369
  17 C12       5.5986    -1.3197    -6.1016  C.ar    1  <O>11      -0.0289
  18 C13       5.0185    -2.5709    -6.3733  C.ar    1  <O>11      -0.0570
  19 C14       4.8006    -2.9740    -7.6955  C.ar    1  <O>11      -0.0601
  20 C15       5.1547    -2.1344    -8.7547  C.ar    1  <O>11      -0.0434
  21 C16       5.7269    -0.8868    -8.4837  C.ar    1  <O>11       0.0413
  22 Cl1       6.1717     0.1649    -9.8200  Cl      1  <O>11      -0.0835
  23 C17       5.9465    -0.4743    -7.1680  C.ar    1  <O>11      -0.0387
  24 H1        6.5110     0.6790    -2.4880  H       1  <O>11       0.0423
  25 H2        5.8310    -0.8590    -1.9040  H       1  <O>11       0.0423
  26 H3        8.5650     2.3511     1.0166  H       1  <O>11       0.1921
  27 H4        7.7706    -1.8377    -4.9351  H       1  <O>11       0.1490
  28 H5        5.7748     0.1908    -4.6302  H       1  <O>11       0.0512
  29 H6        5.0953    -1.3472    -4.0468  H       1  <O>11       0.0512
  30 H7        9.6679    -1.8963     2.7240  H       1  <O>11       0.0625
  31 H8        9.1858    -4.1762     2.0695  H       1  <O>11       0.0618
  32 H9        7.8818    -4.6144     0.0740  H       1  <O>11       0.0618
  33 H10       7.0699    -2.7729    -1.2706  H       1  <O>11       0.0624
  34 H11       4.7525    -3.1944    -5.5951  H       1  <O>11       0.0621
  35 H12       4.3767    -3.8948    -7.8890  H       1  <O>11       0.0618
  36 H13       4.9953    -2.4324    -9.7297  H       1  <O>11       0.0632
  37 H14       6.3639     0.4505    -6.9793  H       1  <O>11       0.0635
@<TRIPOS>BOND
     1     1     2    2
     2     2     3    1
     3     3     4    1
     4     4     5   ar
     5     5     6   ar
     6     6     7   ar
     7     7     8    2
     8     7     9   ar
     9     9    10   ar
    10    10    11   ar
    11    11    12   ar
    12    12    13   ar
    13    13    14   ar
    14     4    14   ar
    15     9    14   ar
    16     2    15   am
    17    15    16    1
    18    16    17    1
    19    17    18   ar
    20    18    19   ar
    21    19    20   ar
    22    20    21   ar
    23    21    22    1
    24    21    23   ar
    25    17    23   ar
    26     3    24    1
    27     3    25    1
    28     6    26    1
    29    15    27    1
    30    16    28    1
    31    16    29    1
    32    10    30    1
    33    11    31    1
    34    12    32    1
    35    13    33    1
    36    18    34    1
    37    19    35    1
    38    20    36    1
    39    23    37    1
@<TRIPOS>MOLECULE
mol43_1_7
 37 39 0 0 0
SMALL
USER_CHARGES
****
VDW energy = -45.64
@<TRIPOS>ATOM
   1 O1        8.7381    -1.4068    -2.6744  O.2     1  <O>11      -0.2754
   2 C1        7.6234    -1.0459    -3.0216  C.2     1  <O>11       0.2192
   3 C2        6.7510    -0.2990    -2.0700  C.3     1  <O>11       0.0685
   4 C3        7.4590    -0.1250    -0.7860  C.ar    1  <O>11       0.0780
   5 N1        7.6639     1.1582    -0.3954  N.ar    1  <O>11      -0.1748
   6 N2        8.3957     1.4019     0.7151  N.ar    1  <O>11      -0.2425
   7 C4        8.8992     0.3580     1.4143  C.ar    1  <O>11       0.2725
   8 O2        9.7320     0.6822     2.5022  O.2     1  <O>11      -0.2658
   9 C5        8.6336    -0.9858     1.1124  C.ar    1  <O>11       0.0496
  10 C6        9.1091    -2.0758     1.8752  C.ar    1  <O>11      -0.0487
  11 C7        8.8347    -3.3914     1.4988  C.ar    1  <O>11      -0.0610
  12 C8        8.0878    -3.6426     0.3537  C.ar    1  <O>11      -0.0611
  13 C9        7.6169    -2.5789    -0.4172  C.ar    1  <O>11      -0.0521
  14 C10       7.8777    -1.2393    -0.0470  C.ar    1  <O>11       0.0108
  15 N3        7.1750    -1.3270    -4.2840  N.am    1  <O>11      -0.3109
  16 C11       5.8429    -0.8955    -4.6984  C.3     1  <O>11       0.0369
  17 C12       5.5986    -1.3197    -6.1016  C.ar    1  <O>11      -0.0289
  18 C13       5.9454    -0.4733    -7.1688  C.ar    1  <O>11      -0.0570
  19 C14       5.7032    -0.8691    -8.4891  C.ar    1  <O>11      -0.0601
  20 C15       5.1182    -2.1095    -8.7558  C.ar    1  <O>11      -0.0434
  21 C16       4.7781    -2.9541    -7.6936  C.ar    1  <O>11       0.0413
  22 Cl1       4.0412    -4.5130    -8.0349  Cl      1  <O>11      -0.0835
  23 C17       5.0177    -2.5696    -6.3728  C.ar    1  <O>11      -0.0387
  24 H1        6.5110     0.6790    -2.4880  H       1  <O>11       0.0423
  25 H2        5.8310    -0.8590    -1.9040  H       1  <O>11       0.0423
  26 H3        8.5650     2.3511     1.0166  H       1  <O>11       0.1921
  27 H4        7.7706    -1.8377    -4.9351  H       1  <O>11       0.1490
  28 H5        5.7748     0.1908    -4.6302  H       1  <O>11       0.0512
  29 H6        5.0953    -1.3472    -4.0468  H       1  <O>11       0.0512
  30 H7        9.6679    -1.8963     2.7240  H       1  <O>11       0.0625
  31 H8        9.1858    -4.1762     2.0695  H       1  <O>11       0.0618
  32 H9        7.8818    -4.6144     0.0740  H       1  <O>11       0.0618
  33 H10       7.0699    -2.7729    -1.2706  H       1  <O>11       0.0624
  34 H11       6.3802     0.4430    -6.9781  H       1  <O>11       0.0621
  35 H12       5.9577    -0.2424    -9.2685  H       1  <O>11       0.0618
  36 H13       4.9383    -2.4006    -9.7294  H       1  <O>11       0.0632
  37 H14       4.7682    -3.2027    -5.5970  H       1  <O>11       0.0635
@<TRIPOS>BOND
     1     1     2    2
     2     2     3    1
     3     3     4    1
     4     4     5   ar
     5     5     6   ar
     6     6     7   ar
     7     7     8    2
     8     7     9   ar
     9     9    10   ar
    10    10    11   ar
    11    11    12   ar
    12    12    13   ar
    13    13    14   ar
    14     4    14   ar
    15     9    14   ar
    16     2    15   am
    17    15    16    1
    18    16    17    1
    19    17    18   ar
    20    18    19   ar
    21    19    20   ar
    22    20    21   ar
    23    21    22    1
    24    21    23   ar
    25    17    23   ar
    26     3    24    1
    27     3    25    1
    28     6    26    1
    29    15    27    1
    30    16    28    1
    31    16    29    1
    32    10    30    1
    33    11    31    1
    34    12    32    1
    35    13    33    1
    36    18    34    1
    37    19    35    1
    38    20    36    1
    39    23    37    1
@<TRIPOS>MOLECULE
mol43_1_8
 37 39 0 0 0
SMALL
USER_CHARGES
****
VDW energy = -43.49
@<TRIPOS>ATOM
   1 O1        8.7381    -1.4068    -2.6744  O.2     1  <O>11      -0.2754
   2 C1        7.6234    -1.0459    -3.0216  C.2     1  <O>11       0.2192
   3 C2        6.7510    -0.2990    -2.0700  C.3     1  <O>11       0.0685
   4 C3        7.4590    -0.1250    -0.7860  C.ar    1  <O>11       0.0780
   5 N1        6.8538    -0.6703     0.2991  N.ar    1  <O>11      -0.1748
   6 N2        7.3853    -0.4644     1.5252  N.ar    1  <O>11      -0.2425
   7 C4        8.5136     0.2748     1.6382  C.ar    1  <O>11       0.2725
   8 O2        8.9591     0.5326     2.9486  O.2     1  <O>11      -0.2658
   9 C5        9.2332     0.7751     0.5432  C.ar    1  <O>11       0.0496
  10 C6       10.4429     1.4963     0.6557  C.ar    1  <O>11      -0.0487
  11 C7       11.0908     1.9952    -0.4752  C.ar    1  <O>11      -0.0610
  12 C8       10.5415     1.7893    -1.7354  C.ar    1  <O>11      -0.0611
  13 C9        9.3428     1.0866    -1.8657  C.ar    1  <O>11      -0.0521
  14 C10       8.6764     0.5665    -0.7321  C.ar    1  <O>11       0.0108
  15 N3        7.1750    -1.3270    -4.2840  N.am    1  <O>11      -0.3109
  16 C11       5.8429    -0.8955    -4.6984  C.3     1  <O>11       0.0369
  17 C12       5.5986    -1.3197    -6.1016  C.ar    1  <O>11      -0.0289
  18 C13       5.9454    -0.4733    -7.1688  C.ar    1  <O>11      -0.0570
  19 C14       5.7032    -0.8691    -8.4891  C.ar    1  <O>11      -0.0601
  20 C15       5.1182    -2.1095    -8.7558  C.ar    1  <O>11      -0.0434
  21 C16       4.7781    -2.9541    -7.6936  C.ar    1  <O>11       0.0413
  22 Cl1       4.0412    -4.5130    -8.0349  Cl      1  <O>11      -0.0835
  23 C17       5.0177    -2.5696    -6.3728  C.ar    1  <O>11      -0.0387
  24 H1        6.5110     0.6790    -2.4880  H       1  <O>11       0.0423
  25 H2        5.8310    -0.8590    -1.9040  H       1  <O>11       0.0423
  26 H3        6.9440    -0.8563     2.3451  H       1  <O>11       0.1921
  27 H4        7.7706    -1.8377    -4.9351  H       1  <O>11       0.1490
  28 H5        5.7748     0.1908    -4.6302  H       1  <O>11       0.0512
  29 H6        5.0953    -1.3472    -4.0468  H       1  <O>11       0.0512
  30 H7       10.8538     1.6565     1.5887  H       1  <O>11       0.0625
  31 H8       11.9761     2.5162    -0.3760  H       1  <O>11       0.0618
  32 H9       11.0195     2.1555    -2.5735  H       1  <O>11       0.0618
  33 H10       8.9365     0.9445    -2.8036  H       1  <O>11       0.0624
  34 H11       6.3802     0.4430    -6.9781  H       1  <O>11       0.0621
  35 H12       5.9577    -0.2424    -9.2685  H       1  <O>11       0.0618
  36 H13       4.9383    -2.4006    -9.7294  H       1  <O>11       0.0632
  37 H14       4.7682    -3.2027    -5.5970  H       1  <O>11       0.0635
@<TRIPOS>BOND
     1     1     2    2
     2     2     3    1
     3     3     4    1
     4     4     5   ar
     5     5     6   ar
     6     6     7   ar
     7     7     8    2
     8     7     9   ar
     9     9    10   ar
    10    10    11   ar
    11    11    12   ar
    12    12    13   ar
    13    13    14   ar
    14     4    14   ar
    15     9    14   ar
    16     2    15   am
    17    15    16    1
    18    16    17    1
    19    17    18   ar
    20    18    19   ar
    21    19    20   ar
    22    20    21   ar
    23    21    22    1
    24    21    23   ar
    25    17    23   ar
    26     3    24    1
    27     3    25    1
    28     6    26    1
    29    15    27    1
    30    16    28    1
    31    16    29    1
    32    10    30    1
    33    11    31    1
    34    12    32    1
    35    13    33    1
    36    18    34    1
    37    19    35    1
    38    20    36    1
    39    23    37    1
@<TRIPOS>MOLECULE
mol43_1_9
 37 39 0 0 0
SMALL
USER_CHARGES
****
VDW energy = -43.47
@<TRIPOS>ATOM
   1 O1        8.7381    -1.4068    -2.6744  O.2     1  <O>11      -0.2754
   2 C1        7.6234    -1.0459    -3.0216  C.2     1  <O>11       0.2192
   3 C2        6.7510    -0.2990    -2.0700  C.3     1  <O>11       0.0685
   4 C3        7.4590    -0.1250    -0.7860  C.ar    1  <O>11       0.0780
   5 N1        6.8538    -0.6703     0.2991  N.ar    1  <O>11      -0.1748
   6 N2        7.3853    -0.4644     1.5252  N.ar    1  <O>11      -0.2425
   7 C4        8.5136     0.2748     1.6382  C.ar    1  <O>11       0.2725
   8 O2        8.9591     0.5326     2.9486  O.2     1  <O>11      -0.2658
   9 C5        9.2332     0.7751     0.5432  C.ar    1  <O>11       0.0496
  10 C6       10.4429     1.4963     0.6557  C.ar    1  <O>11      -0.0487
  11 C7       11.0908     1.9952    -0.4752  C.ar    1  <O>11      -0.0610
  12 C8       10.5415     1.7893    -1.7354  C.ar    1  <O>11      -0.0611
  13 C9        9.3428     1.0866    -1.8657  C.ar    1  <O>11      -0.0521
  14 C10       8.6764     0.5665    -0.7321  C.ar    1  <O>11       0.0108
  15 N3        7.1750    -1.3270    -4.2840  N.am    1  <O>11      -0.3109
  16 C11       5.8429    -0.8955    -4.6984  C.3     1  <O>11       0.0369
  17 C12       5.5986    -1.3197    -6.1016  C.ar    1  <O>11      -0.0289
  18 C13       5.0185    -2.5709    -6.3733  C.ar    1  <O>11      -0.0570
  19 C14       4.8006    -2.9740    -7.6955  C.ar    1  <O>11      -0.0601
  20 C15       5.1547    -2.1344    -8.7547  C.ar    1  <O>11      -0.0434
  21 C16       5.7269    -0.8868    -8.4837  C.ar    1  <O>11       0.0413
  22 Cl1       6.1717     0.1649    -9.8200  Cl      1  <O>11      -0.0835
  23 C17       5.9465    -0.4743    -7.1680  C.ar    1  <O>11      -0.0387
  24 H1        6.5110     0.6790    -2.4880  H       1  <O>11       0.0423
  25 H2        5.8310    -0.8590    -1.9040  H       1  <O>11       0.0423
  26 H3        6.9440    -0.8563     2.3451  H       1  <O>11       0.1921
  27 H4        7.7706    -1.8377    -4.9351  H       1  <O>11       0.1490
  28 H5        5.7748     0.1908    -4.6302  H       1  <O>11       0.0512
  29 H6        5.0953    -1.3472    -4.0468  H       1  <O>11       0.0512
  30 H7       10.8538     1.6565     1.5887  H       1  <O>11       0.0625
  31 H8       11.9761     2.5162    -0.3760  H       1  <O>11       0.0618
  32 H9       11.0195     2.1555    -2.5735  H       1  <O>11       0.0618
  33 H10       8.9365     0.9445    -2.8036  H       1  <O>11       0.0624
  34 H11       4.7525    -3.1944    -5.5951  H       1  <O>11       0.0621
  35 H12       4.3767    -3.8948    -7.8890  H       1  <O>11       0.0618
  36 H13       4.9953    -2.4324    -9.7297  H       1  <O>11       0.0632
  37 H14       6.3639     0.4505    -6.9793  H       1  <O>11       0.0635
@<TRIPOS>BOND
     1     1     2    2
     2     2     3    1
     3     3     4    1
     4     4     5   ar
     5     5     6   ar
     6     6     7   ar
     7     7     8    2
     8     7     9   ar
     9     9    10   ar
    10    10    11   ar
    11    11    12   ar
    12    12    13   ar
    13    13    14   ar
    14     4    14   ar
    15     9    14   ar
    16     2    15   am
    17    15    16    1
    18    16    17    1
    19    17    18   ar
    20    18    19   ar
    21    19    20   ar
    22    20    21   ar
    23    21    22    1
    24    21    23   ar
    25    17    23   ar
    26     3    24    1
    27     3    25    1
    28     6    26    1
    29    15    27    1
    30    16    28    1
    31    16    29    1
    32    10    30    1
    33    11    31    1
    34    12    32    1
    35    13    33    1
    36    18    34    1
    37    19    35    1
    38    20    36    1
    39    23    37    1
@<TRIPOS>MOLECULE
mol43_1_10
 37 39 0 0 0
SMALL
USER_CHARGES
****
VDW energy = -42.64
@<TRIPOS>ATOM
   1 O1        8.7381    -1.4068    -2.6744  O.2     1  <O>11      -0.2754
   2 C1        7.6234    -1.0459    -3.0216  C.2     1  <O>11       0.2192
   3 C2        6.7510    -0.2990    -2.0700  C.3     1  <O>11       0.0685
   4 C3        7.4590    -0.1250    -0.7860  C.ar    1  <O>11       0.0780
   5 N1        6.8538    -0.6703     0.2991  N.ar    1  <O>11      -0.1748
   6 N2        7.3853    -0.4644     1.5252  N.ar    1  <O>11      -0.2425
   7 C4        8.5136     0.2748     1.6382  C.ar    1  <O>11       0.2725
   8 O2        8.9591     0.5326     2.9486  O.2     1  <O>11      -0.2658
   9 C5        9.2332     0.7751     0.5432  C.ar    1  <O>11       0.0496
  10 C6       10.4429     1.4963     0.6557  C.ar    1  <O>11      -0.0487
  11 C7       11.0908     1.9952    -0.4752  C.ar    1  <O>11      -0.0610
  12 C8       10.5415     1.7893    -1.7354  C.ar    1  <O>11      -0.0611
  13 C9        9.3428     1.0866    -1.8657  C.ar    1  <O>11      -0.0521
  14 C10       8.6764     0.5665    -0.7321  C.ar    1  <O>11       0.0108
  15 N3        7.1750    -1.3270    -4.2840  N.am    1  <O>11      -0.3109
  16 C11       5.8429    -0.8955    -4.6984  C.3     1  <O>11       0.0369
  17 C12       5.5986    -1.3197    -6.1016  C.ar    1  <O>11      -0.0289
  18 C13       6.4352    -0.8653    -7.1356  C.ar    1  <O>11      -0.0570
  19 C14       6.1962    -1.2558    -8.4580  C.ar    1  <O>11      -0.0601
  20 C15       5.1266    -2.1026    -8.7594  C.ar    1  <O>11      -0.0434
  21 C16       4.2973    -2.5591    -7.7292  C.ar    1  <O>11       0.0413
  22 Cl1       2.9523    -3.6233    -8.1142  Cl      1  <O>11      -0.0835
  23 C17       4.5286    -2.1773    -6.4062  C.ar    1  <O>11      -0.0387
  24 H1        6.5110     0.6790    -2.4880  H       1  <O>11       0.0423
  25 H2        5.8310    -0.8590    -1.9040  H       1  <O>11       0.0423
  26 H3        6.9440    -0.8563     2.3451  H       1  <O>11       0.1921
  27 H4        7.7706    -1.8377    -4.9351  H       1  <O>11       0.1490
  28 H5        5.7748     0.1908    -4.6302  H       1  <O>11       0.0512
  29 H6        5.0953    -1.3472    -4.0468  H       1  <O>11       0.0512
  30 H7       10.8538     1.6565     1.5887  H       1  <O>11       0.0625
  31 H8       11.9761     2.5162    -0.3760  H       1  <O>11       0.0618
  32 H9       11.0195     2.1555    -2.5735  H       1  <O>11       0.0618
  33 H10       8.9365     0.9445    -2.8036  H       1  <O>11       0.0624
  34 H11       7.2284    -0.2417    -6.9188  H       1  <O>11       0.0621
  35 H12       6.8124    -0.9170    -9.2134  H       1  <O>11       0.0618
  36 H13       4.9496    -2.3893    -9.7348  H       1  <O>11       0.0632
  37 H14       3.9141    -2.5245    -5.6533  H       1  <O>11       0.0635
@<TRIPOS>BOND
     1     1     2    2
     2     2     3    1
     3     3     4    1
     4     4     5   ar
     5     5     6   ar
     6     6     7   ar
     7     7     8    2
     8     7     9   ar
     9     9    10   ar
    10    10    11   ar
    11    11    12   ar
    12    12    13   ar
    13    13    14   ar
    14     4    14   ar
    15     9    14   ar
    16     2    15   am
    17    15    16    1
    18    16    17    1
    19    17    18   ar
    20    18    19   ar
    21    19    20   ar
    22    20    21   ar
    23    21    22    1
    24    21    23   ar
    25    17    23   ar
    26     3    24    1
    27     3    25    1
    28     6    26    1
    29    15    27    1
    30    16    28    1
    31    16    29    1
    32    10    30    1
    33    11    31    1
    34    12    32    1
    35    13    33    1
    36    18    34    1
    37    19    35    1
    38    20    36    1
    39    23    37    1
@<TRIPOS>MOLECULE
mol43_1_11
 37 39 0 0 0
SMALL
USER_CHARGES
****
VDW energy = -42.12
@<TRIPOS>ATOM
   1 O1        8.7381    -1.4068    -2.6744  O.2     1  <O>11      -0.2754
   2 C1        7.6234    -1.0459    -3.0216  C.2     1  <O>11       0.2192
   3 C2        6.7510    -0.2990    -2.0700  C.3     1  <O>11       0.0685
   4 C3        6.0363     0.7713    -2.7938  C.ar    1  <O>11       0.0780
   5 N1        4.6817     0.6972    -2.7676  N.ar    1  <O>11      -0.1748
   6 N2        3.9576     1.5792    -3.4928  N.ar    1  <O>11      -0.2425
   7 C4        4.6032     2.5199    -4.2211  C.ar    1  <O>11       0.2725
   8 O2        3.7957     3.3432    -5.0287  O.2     1  <O>11      -0.2658
   9 C5        5.9936     2.7038    -4.2038  C.ar    1  <O>11       0.0496
  10 C6        6.6647     3.7224    -4.9166  C.ar    1  <O>11      -0.0487
  11 C7        8.0559     3.8281    -4.8817  C.ar    1  <O>11      -0.0610
  12 C8        8.8011     2.9176    -4.1414  C.ar    1  <O>11      -0.0611
  13 C9        8.1564     1.8995    -3.4377  C.ar    1  <O>11      -0.0521
  14 C10       6.7473     1.7817    -3.4545  C.ar    1  <O>11       0.0108
  15 N3        7.1750    -1.3270    -4.2840  N.am    1  <O>11      -0.3109
  16 C11       8.0290    -2.0580    -5.2160  C.3     1  <O>11       0.0369
  17 C12       8.3572    -3.3909    -4.6466  C.ar    1  <O>11      -0.0289
  18 C13       9.4976    -3.5570    -3.8419  C.ar    1  <O>11      -0.0570
  19 C14       9.8120    -4.8154    -3.3167  C.ar    1  <O>11      -0.0601
  20 C15       8.9928    -5.9148    -3.5856  C.ar    1  <O>11      -0.0434
  21 C16       7.8547    -5.7481    -4.3820  C.ar    1  <O>11       0.0413
  22 Cl1       6.8283    -7.1349    -4.7181  Cl      1  <O>11      -0.0835
  23 C17       7.5310    -4.4962    -4.9089  C.ar    1  <O>11      -0.0387
  24 H1        6.0274    -0.9835    -1.6265  H       1  <O>11       0.0423
  25 H2        7.3639     0.1414    -1.2839  H       1  <O>11       0.0423
  26 H3        2.9484     1.5342    -3.4914  H       1  <O>11       0.1921
  27 H4        6.2450    -1.0260    -4.5740  H       1  <O>11       0.1490
  28 H5        8.9495    -1.4974    -5.3821  H       1  <O>11       0.0512
  29 H6        7.5067    -2.1863    -6.1638  H       1  <O>11       0.0512
  30 H7        6.1177     4.3988    -5.4717  H       1  <O>11       0.0625
  31 H8        8.5304     4.5807    -5.4045  H       1  <O>11       0.0618
  32 H9        9.8299     2.9946    -4.1123  H       1  <O>11       0.0618
  33 H10       8.7165     1.2223    -2.8968  H       1  <O>11       0.0624
  34 H11      10.1052    -2.7481    -3.6377  H       1  <O>11       0.0621
  35 H12      10.6520    -4.9318    -2.7286  H       1  <O>11       0.0618
  36 H13       9.2255    -6.8431    -3.1995  H       1  <O>11       0.0632
  37 H14       6.6859    -4.3832    -5.4904  H       1  <O>11       0.0635
@<TRIPOS>BOND
     1     1     2    2
     2     2     3    1
     3     3     4    1
     4     4     5   ar
     5     5     6   ar
     6     6     7   ar
     7     7     8    2
     8     7     9   ar
     9     9    10   ar
    10    10    11   ar
    11    11    12   ar
    12    12    13   ar
    13    13    14   ar
    14     4    14   ar
    15     9    14   ar
    16     2    15   am
    17    15    16    1
    18    16    17    1
    19    17    18   ar
    20    18    19   ar
    21    19    20   ar
    22    20    21   ar
    23    21    22    1
    24    21    23   ar
    25    17    23   ar
    26     3    24    1
    27     3    25    1
    28     6    26    1
    29    15    27    1
    30    16    28    1
    31    16    29    1
    32    10    30    1
    33    11    31    1
    34    12    32    1
    35    13    33    1
    36    18    34    1
    37    19    35    1
    38    20    36    1
    39    23    37    1
@<TRIPOS>MOLECULE
mol43_1_12
 37 39 0 0 0
SMALL
USER_CHARGES
****
VDW energy = -37.89
@<TRIPOS>ATOM
   1 O1        8.7381    -1.4068    -2.6744  O.2     1  <O>11      -0.2754
   2 C1        7.6234    -1.0459    -3.0216  C.2     1  <O>11       0.2192
   3 C2        6.7510    -0.2990    -2.0700  C.3     1  <O>11       0.0685
   4 C3        7.4590    -0.1250    -0.7860  C.ar    1  <O>11       0.0780
   5 N1        8.2092     1.0001    -0.6747  N.ar    1  <O>11      -0.1748
   6 N2        8.9699     1.1805     0.4285  N.ar    1  <O>11      -0.2425
   7 C4        8.9575     0.2366     1.3986  C.ar    1  <O>11       0.2725
   8 O2        9.8445     0.4380     2.4732  O.2     1  <O>11      -0.2658
   9 C5        8.1258    -0.8927     1.3798  C.ar    1  <O>11       0.0496
  10 C6        8.0677    -1.8485     2.4186  C.ar    1  <O>11      -0.0487
  11 C7        7.2409    -2.9685     2.3203  C.ar    1  <O>11      -0.0610
  12 C8        6.4634    -3.1576     1.1837  C.ar    1  <O>11      -0.0611
  13 C9        6.5139    -2.2287     0.1435  C.ar    1  <O>11      -0.0521
  14 C10       7.3393    -1.0836     0.2288  C.ar    1  <O>11       0.0108
  15 N3        7.1750    -1.3270    -4.2840  N.am    1  <O>11      -0.3109
  16 C11       8.0290    -2.0580    -5.2160  C.3     1  <O>11       0.0369
  17 C12       7.3160    -2.2340    -6.5080  C.ar    1  <O>11      -0.0289
  18 C13       7.9350    -2.9110    -7.5730  C.ar    1  <O>11      -0.0570
  19 C14       7.2670    -3.0650    -8.7930  C.ar    1  <O>11      -0.0601
  20 C15       5.9790    -2.5500    -8.9600  C.ar    1  <O>11      -0.0434
  21 C16       5.3610    -1.8810    -7.8980  C.ar    1  <O>11       0.0413
  22 Cl1       3.7410    -1.2340    -8.1140  Cl      1  <O>11      -0.0835
  23 C17       6.0180    -1.7240    -6.6760  C.ar    1  <O>11      -0.0387
  24 H1        6.5110     0.6790    -2.4880  H       1  <O>11       0.0423
  25 H2        5.8310    -0.8590    -1.9040  H       1  <O>11       0.0423
  26 H3        9.5407     2.0084     0.5251  H       1  <O>11       0.1921
  27 H4        6.2450    -1.0260    -4.5740  H       1  <O>11       0.1490
  28 H5        8.2700    -3.0360    -4.7980  H       1  <O>11       0.0512
  29 H6        8.9490    -1.4980    -5.3820  H       1  <O>11       0.0512
  30 H7        8.6457    -1.7163     3.2633  H       1  <O>11       0.0625
  31 H8        7.2067    -3.6549     3.0901  H       1  <O>11       0.0618
  32 H9        5.8496    -3.9840     1.1091  H       1  <O>11       0.0618
  33 H10       5.9402    -2.3797    -0.7009  H       1  <O>11       0.0624
  34 H11       8.8853    -3.2958    -7.4548  H       1  <O>11       0.0621
  35 H12       7.7275    -3.5608    -9.5722  H       1  <O>11       0.0618
  36 H13       5.4871    -2.6623    -9.8602  H       1  <O>11       0.0632
  37 H14       5.5506    -1.2339    -5.8973  H       1  <O>11       0.0635
@<TRIPOS>BOND
     1     1     2    2
     2     2     3    1
     3     3     4    1
     4     4     5   ar
     5     5     6   ar
     6     6     7   ar
     7     7     8    2
     8     7     9   ar
     9     9    10   ar
    10    10    11   ar
    11    11    12   ar
    12    12    13   ar
    13    13    14   ar
    14     4    14   ar
    15     9    14   ar
    16     2    15   am
    17    15    16    1
    18    16    17    1
    19    17    18   ar
    20    18    19   ar
    21    19    20   ar
    22    20    21   ar
    23    21    22    1
    24    21    23   ar
    25    17    23   ar
    26     3    24    1
    27     3    25    1
    28     6    26    1
    29    15    27    1
    30    16    28    1
    31    16    29    1
    32    10    30    1
    33    11    31    1
    34    12    32    1
    35    13    33    1
    36    18    34    1
    37    19    35    1
    38    20    36    1
    39    23    37    1
@<TRIPOS>MOLECULE
mol43_1_13
 37 39 0 0 0
SMALL
USER_CHARGES
****
VDW energy = -36.65
@<TRIPOS>ATOM
   1 O1        8.7381    -1.4068    -2.6744  O.2     1  <O>11      -0.2754
   2 C1        7.6234    -1.0459    -3.0216  C.2     1  <O>11       0.2192
   3 C2        6.7510    -0.2990    -2.0700  C.3     1  <O>11       0.0685
   4 C3        7.4590    -0.1250    -0.7860  C.ar    1  <O>11       0.0780
   5 N1        8.7070    -0.6540    -0.7250  N.ar    1  <O>11      -0.1748
   6 N2        9.3790    -0.6280     0.4480  N.ar    1  <O>11      -0.2425
   7 C4        8.7920    -0.0670     1.5310  C.ar    1  <O>11       0.2725
   8 O2        9.5040    -0.1600     2.7420  O.2     1  <O>11      -0.2658
   9 C5        7.5490     0.5820     1.4980  C.ar    1  <O>11       0.0496
  10 C6        6.9610     1.2200     2.6130  C.ar    1  <O>11      -0.0487
  11 C7        5.7040     1.8190     2.5190  C.ar    1  <O>11      -0.0610
  12 C8        5.0100     1.7870     1.3150  C.ar    1  <O>11      -0.0611
  13 C9        5.5710     1.1540     0.2050  C.ar    1  <O>11      -0.0521
  14 C10       6.8470     0.5490     0.2790  C.ar    1  <O>11       0.0108
  15 N3        7.1750    -1.3270    -4.2840  N.am    1  <O>11      -0.3109
  16 C11       8.0290    -2.0580    -5.2160  C.3     1  <O>11       0.0369
  17 C12       9.2834    -1.2940    -5.4425  C.ar    1  <O>11      -0.0289
  18 C13       9.2359     0.0044    -5.9788  C.ar    1  <O>11      -0.0570
  19 C14      10.4188     0.7177    -6.2030  C.ar    1  <O>11      -0.0601
  20 C15      11.6551     0.1457    -5.8923  C.ar    1  <O>11      -0.0434
  21 C16      11.7018    -1.1446    -5.3534  C.ar    1  <O>11       0.0413
  22 Cl1      13.2599    -1.8598    -4.9656  Cl      1  <O>11      -0.0835
  23 C17      10.5272    -1.8637    -5.1238  C.ar    1  <O>11      -0.0387
  24 H1        6.5110     0.6790    -2.4880  H       1  <O>11       0.0423
  25 H2        5.8310    -0.8590    -1.9040  H       1  <O>11       0.0423
  26 H3       10.3060    -1.0240     0.5140  H       1  <O>11       0.1921
  27 H4        6.2450    -1.0260    -4.5740  H       1  <O>11       0.1490
  28 H5        7.5059    -2.1868    -6.1642  H       1  <O>11       0.0512
  29 H6        8.2692    -3.0357    -4.7988  H       1  <O>11       0.0512
  30 H7        7.4690     1.2435     3.5110  H       1  <O>11       0.0625
  31 H8        5.2905     2.2848     3.3418  H       1  <O>11       0.0618
  32 H9        4.0811     2.2308     1.2421  H       1  <O>11       0.0618
  33 H10       5.0466     1.1270    -0.6834  H       1  <O>11       0.0624
  34 H11       8.3255     0.4332    -6.2079  H       1  <O>11       0.0621
  35 H12      10.3778     1.6697    -6.5993  H       1  <O>11       0.0618
  36 H13      12.5274     0.6712    -6.0591  H       1  <O>11       0.0632
  37 H14      10.5728    -2.8125    -4.7204  H       1  <O>11       0.0635
@<TRIPOS>BOND
     1     1     2    2
     2     2     3    1
     3     3     4    1
     4     4     5   ar
     5     5     6   ar
     6     6     7   ar
     7     7     8    2
     8     7     9   ar
     9     9    10   ar
    10    10    11   ar
    11    11    12   ar
    12    12    13   ar
    13    13    14   ar
    14     4    14   ar
    15     9    14   ar
    16     2    15   am
    17    15    16    1
    18    16    17    1
    19    17    18   ar
    20    18    19   ar
    21    19    20   ar
    22    20    21   ar
    23    21    22    1
    24    21    23   ar
    25    17    23   ar
    26     3    24    1
    27     3    25    1
    28     6    26    1
    29    15    27    1
    30    16    28    1
    31    16    29    1
    32    10    30    1
    33    11    31    1
    34    12    32    1
    35    13    33    1
    36    18    34    1
    37    19    35    1
    38    20    36    1
    39    23    37    1
@<TRIPOS>MOLECULE
mol43_1_14
 37 39 0 0 0
SMALL
USER_CHARGES
****
VDW energy = -36.43
@<TRIPOS>ATOM
   1 O1        8.7381    -1.4068    -2.6744  O.2     1  <O>11      -0.2754
   2 C1        7.6234    -1.0459    -3.0216  C.2     1  <O>11       0.2192
   3 C2        6.7510    -0.2990    -2.0700  C.3     1  <O>11       0.0685
   4 C3        6.0363     0.7713    -2.7938  C.ar    1  <O>11       0.0780
   5 N1        4.6817     0.6972    -2.7676  N.ar    1  <O>11      -0.1748
   6 N2        3.9576     1.5792    -3.4928  N.ar    1  <O>11      -0.2425
   7 C4        4.6032     2.5199    -4.2211  C.ar    1  <O>11       0.2725
   8 O2        3.7957     3.3432    -5.0287  O.2     1  <O>11      -0.2658
   9 C5        5.9936     2.7038    -4.2038  C.ar    1  <O>11       0.0496
  10 C6        6.6647     3.7224    -4.9166  C.ar    1  <O>11      -0.0487
  11 C7        8.0559     3.8281    -4.8817  C.ar    1  <O>11      -0.0610
  12 C8        8.8011     2.9176    -4.1414  C.ar    1  <O>11      -0.0611
  13 C9        8.1564     1.8995    -3.4377  C.ar    1  <O>11      -0.0521
  14 C10       6.7473     1.7817    -3.4545  C.ar    1  <O>11       0.0108
  15 N3        7.1750    -1.3270    -4.2840  N.am    1  <O>11      -0.3109
  16 C11       8.0290    -2.0580    -5.2160  C.3     1  <O>11       0.0369
  17 C12       7.3160    -2.2340    -6.5080  C.ar    1  <O>11      -0.0289
  18 C13       7.9350    -2.9110    -7.5730  C.ar    1  <O>11      -0.0570
  19 C14       7.2670    -3.0650    -8.7930  C.ar    1  <O>11      -0.0601
  20 C15       5.9790    -2.5500    -8.9600  C.ar    1  <O>11      -0.0434
  21 C16       5.3610    -1.8810    -7.8980  C.ar    1  <O>11       0.0413
  22 Cl1       3.7410    -1.2340    -8.1140  Cl      1  <O>11      -0.0835
  23 C17       6.0180    -1.7240    -6.6760  C.ar    1  <O>11      -0.0387
  24 H1        6.0274    -0.9835    -1.6265  H       1  <O>11       0.0423
  25 H2        7.3639     0.1414    -1.2839  H       1  <O>11       0.0423
  26 H3        2.9484     1.5342    -3.4914  H       1  <O>11       0.1921
  27 H4        6.2450    -1.0260    -4.5740  H       1  <O>11       0.1490
  28 H5        8.2700    -3.0360    -4.7980  H       1  <O>11       0.0512
  29 H6        8.9490    -1.4980    -5.3820  H       1  <O>11       0.0512
  30 H7        6.1177     4.3988    -5.4717  H       1  <O>11       0.0625
  31 H8        8.5304     4.5807    -5.4045  H       1  <O>11       0.0618
  32 H9        9.8299     2.9946    -4.1123  H       1  <O>11       0.0618
  33 H10       8.7165     1.2223    -2.8968  H       1  <O>11       0.0624
  34 H11       8.8853    -3.2958    -7.4548  H       1  <O>11       0.0621
  35 H12       7.7275    -3.5608    -9.5722  H       1  <O>11       0.0618
  36 H13       5.4871    -2.6623    -9.8602  H       1  <O>11       0.0632
  37 H14       5.5506    -1.2339    -5.8973  H       1  <O>11       0.0635
@<TRIPOS>BOND
     1     1     2    2
     2     2     3    1
     3     3     4    1
     4     4     5   ar
     5     5     6   ar
     6     6     7   ar
     7     7     8    2
     8     7     9   ar
     9     9    10   ar
    10    10    11   ar
    11    11    12   ar
    12    12    13   ar
    13    13    14   ar
    14     4    14   ar
    15     9    14   ar
    16     2    15   am
    17    15    16    1
    18    16    17    1
    19    17    18   ar
    20    18    19   ar
    21    19    20   ar
    22    20    21   ar
    23    21    22    1
    24    21    23   ar
    25    17    23   ar
    26     3    24    1
    27     3    25    1
    28     6    26    1
    29    15    27    1
    30    16    28    1
    31    16    29    1
    32    10    30    1
    33    11    31    1
    34    12    32    1
    35    13    33    1
    36    18    34    1
    37    19    35    1
    38    20    36    1
    39    23    37    1
@<TRIPOS>MOLECULE
mol43_1_15
 37 39 0 0 0
SMALL
USER_CHARGES
****
VDW energy = -36.27
@<TRIPOS>ATOM
   1 O1        8.7381    -1.4068    -2.6744  O.2     1  <O>11      -0.2754
   2 C1        7.6234    -1.0459    -3.0216  C.2     1  <O>11       0.2192
   3 C2        6.7510    -0.2990    -2.0700  C.3     1  <O>11       0.0685
   4 C3        7.4590    -0.1250    -0.7860  C.ar    1  <O>11       0.0780
   5 N1        8.2092     1.0001    -0.6747  N.ar    1  <O>11      -0.1748
   6 N2        8.9699     1.1805     0.4285  N.ar    1  <O>11      -0.2425
   7 C4        8.9575     0.2366     1.3986  C.ar    1  <O>11       0.2725
   8 O2        9.8445     0.4380     2.4732  O.2     1  <O>11      -0.2658
   9 C5        8.1258    -0.8927     1.3798  C.ar    1  <O>11       0.0496
  10 C6        8.0677    -1.8485     2.4186  C.ar    1  <O>11      -0.0487
  11 C7        7.2409    -2.9685     2.3203  C.ar    1  <O>11      -0.0610
  12 C8        6.4634    -3.1576     1.1837  C.ar    1  <O>11      -0.0611
  13 C9        6.5139    -2.2287     0.1435  C.ar    1  <O>11      -0.0521
  14 C10       7.3393    -1.0836     0.2288  C.ar    1  <O>11       0.0108
  15 N3        7.1750    -1.3270    -4.2840  N.am    1  <O>11      -0.3109
  16 C11       5.8429    -0.8955    -4.6984  C.3     1  <O>11       0.0369
  17 C12       5.5986    -1.3197    -6.1016  C.ar    1  <O>11      -0.0289
  18 C13       4.3782    -1.0192    -6.7309  C.ar    1  <O>11      -0.0570
  19 C14       4.1450    -1.4302    -8.0481  C.ar    1  <O>11      -0.0601
  20 C15       5.1245    -2.1391    -8.7480  C.ar    1  <O>11      -0.0434
  21 C16       6.3412    -2.4334    -8.1232  C.ar    1  <O>11       0.0413
  22 Cl1       7.5696    -3.3266    -9.0080  Cl      1  <O>11      -0.0835
  23 C17       6.5847    -2.0258    -6.8101  C.ar    1  <O>11      -0.0387
  24 H1        6.5110     0.6790    -2.4880  H       1  <O>11       0.0423
  25 H2        5.8310    -0.8590    -1.9040  H       1  <O>11       0.0423
  26 H3        9.5407     2.0084     0.5251  H       1  <O>11       0.1921
  27 H4        7.7706    -1.8377    -4.9351  H       1  <O>11       0.1490
  28 H5        5.7748     0.1908    -4.6302  H       1  <O>11       0.0512
  29 H6        5.0953    -1.3472    -4.0468  H       1  <O>11       0.0512
  30 H7        8.6457    -1.7163     3.2633  H       1  <O>11       0.0625
  31 H8        7.2067    -3.6549     3.0901  H       1  <O>11       0.0618
  32 H9        5.8496    -3.9840     1.1091  H       1  <O>11       0.0618
  33 H10       5.9402    -2.3797    -0.7009  H       1  <O>11       0.0624
  34 H11       3.6518    -0.4936    -6.2198  H       1  <O>11       0.0621
  35 H12       3.2460    -1.2088    -8.5041  H       1  <O>11       0.0618
  36 H13       4.9518    -2.4435    -9.7188  H       1  <O>11       0.0632
  37 H14       7.4880    -2.2431    -6.3607  H       1  <O>11       0.0635
@<TRIPOS>BOND
     1     1     2    2
     2     2     3    1
     3     3     4    1
     4     4     5   ar
     5     5     6   ar
     6     6     7   ar
     7     7     8    2
     8     7     9   ar
     9     9    10   ar
    10    10    11   ar
    11    11    12   ar
    12    12    13   ar
    13    13    14   ar
    14     4    14   ar
    15     9    14   ar
    16     2    15   am
    17    15    16    1
    18    16    17    1
    19    17    18   ar
    20    18    19   ar
    21    19    20   ar
    22    20    21   ar
    23    21    22    1
    24    21    23   ar
    25    17    23   ar
    26     3    24    1
    27     3    25    1
    28     6    26    1
    29    15    27    1
    30    16    28    1
    31    16    29    1
    32    10    30    1
    33    11    31    1
    34    12    32    1
    35    13    33    1
    36    18    34    1
    37    19    35    1
    38    20    36    1
    39    23    37    1
@<TRIPOS>MOLECULE
mol43_1_16
 37 39 0 0 0
SMALL
USER_CHARGES
****
VDW energy = -36.21
@<TRIPOS>ATOM
   1 O1        8.7381    -1.4068    -2.6744  O.2     1  <O>11      -0.2754
   2 C1        7.6234    -1.0459    -3.0216  C.2     1  <O>11       0.2192
   3 C2        6.7510    -0.2990    -2.0700  C.3     1  <O>11       0.0685
   4 C3        7.4590    -0.1250    -0.7860  C.ar    1  <O>11       0.0780
   5 N1        8.7070    -0.6540    -0.7250  N.ar    1  <O>11      -0.1748
   6 N2        9.3790    -0.6280     0.4480  N.ar    1  <O>11      -0.2425
   7 C4        8.7920    -0.0670     1.5310  C.ar    1  <O>11       0.2725
   8 O2        9.5040    -0.1600     2.7420  O.2     1  <O>11      -0.2658
   9 C5        7.5490     0.5820     1.4980  C.ar    1  <O>11       0.0496
  10 C6        6.9610     1.2200     2.6130  C.ar    1  <O>11      -0.0487
  11 C7        5.7040     1.8190     2.5190  C.ar    1  <O>11      -0.0610
  12 C8        5.0100     1.7870     1.3150  C.ar    1  <O>11      -0.0611
  13 C9        5.5710     1.1540     0.2050  C.ar    1  <O>11      -0.0521
  14 C10       6.8470     0.5490     0.2790  C.ar    1  <O>11       0.0108
  15 N3        7.1750    -1.3270    -4.2840  N.am    1  <O>11      -0.3109
  16 C11       8.0290    -2.0580    -5.2160  C.3     1  <O>11       0.0369
  17 C12       7.3160    -2.2340    -6.5080  C.ar    1  <O>11      -0.0289
  18 C13       6.0954    -2.9294    -6.5553  C.ar    1  <O>11      -0.0570
  19 C14       5.4315    -3.1050    -7.7746  C.ar    1  <O>11      -0.0601
  20 C15       5.9754    -2.5874    -8.9529  C.ar    1  <O>11      -0.0434
  21 C16       7.1876    -1.8906    -8.9047  C.ar    1  <O>11       0.0413
  22 Cl1       7.8680    -1.2427   -10.3903  Cl      1  <O>11      -0.0835
  23 C17       7.8567    -1.7080    -7.6929  C.ar    1  <O>11      -0.0387
  24 H1        6.5110     0.6790    -2.4880  H       1  <O>11       0.0423
  25 H2        5.8310    -0.8590    -1.9040  H       1  <O>11       0.0423
  26 H3       10.3060    -1.0240     0.5140  H       1  <O>11       0.1921
  27 H4        6.2450    -1.0260    -4.5740  H       1  <O>11       0.1490
  28 H5        8.2700    -3.0360    -4.7980  H       1  <O>11       0.0512
  29 H6        8.9490    -1.4980    -5.3820  H       1  <O>11       0.0512
  30 H7        7.4690     1.2435     3.5110  H       1  <O>11       0.0625
  31 H8        5.2905     2.2848     3.3418  H       1  <O>11       0.0618
  32 H9        4.0811     2.2308     1.2421  H       1  <O>11       0.0618
  33 H10       5.0466     1.1270    -0.6834  H       1  <O>11       0.0624
  34 H11       5.6874    -3.3118    -5.6879  H       1  <O>11       0.0621
  35 H12       4.5369    -3.6186    -7.8036  H       1  <O>11       0.0618
  36 H13       5.4866    -2.7183    -9.8523  H       1  <O>11       0.0632
  37 H14       8.7474    -1.1873    -7.6678  H       1  <O>11       0.0635
@<TRIPOS>BOND
     1     1     2    2
     2     2     3    1
     3     3     4    1
     4     4     5   ar
     5     5     6   ar
     6     6     7   ar
     7     7     8    2
     8     7     9   ar
     9     9    10   ar
    10    10    11   ar
    11    11    12   ar
    12    12    13   ar
    13    13    14   ar
    14     4    14   ar
    15     9    14   ar
    16     2    15   am
    17    15    16    1
    18    16    17    1
    19    17    18   ar
    20    18    19   ar
    21    19    20   ar
    22    20    21   ar
    23    21    22    1
    24    21    23   ar
    25    17    23   ar
    26     3    24    1
    27     3    25    1
    28     6    26    1
    29    15    27    1
    30    16    28    1
    31    16    29    1
    32    10    30    1
    33    11    31    1
    34    12    32    1
    35    13    33    1
    36    18    34    1
    37    19    35    1
    38    20    36    1
    39    23    37    1
@<TRIPOS>MOLECULE
mol43_1_17
 37 39 0 0 0
SMALL
USER_CHARGES
****
VDW energy = -35.20
@<TRIPOS>ATOM
   1 O1        8.7381    -1.4068    -2.6744  O.2     1  <O>11      -0.2754
   2 C1        7.6234    -1.0459    -3.0216  C.2     1  <O>11       0.2192
   3 C2        6.7510    -0.2990    -2.0700  C.3     1  <O>11       0.0685
   4 C3        7.4590    -0.1250    -0.7860  C.ar    1  <O>11       0.0780
   5 N1        8.7070    -0.6540    -0.7250  N.ar    1  <O>11      -0.1748
   6 N2        9.3790    -0.6280     0.4480  N.ar    1  <O>11      -0.2425
   7 C4        8.7920    -0.0670     1.5310  C.ar    1  <O>11       0.2725
   8 O2        9.5040    -0.1600     2.7420  O.2     1  <O>11      -0.2658
   9 C5        7.5490     0.5820     1.4980  C.ar    1  <O>11       0.0496
  10 C6        6.9610     1.2200     2.6130  C.ar    1  <O>11      -0.0487
  11 C7        5.7040     1.8190     2.5190  C.ar    1  <O>11      -0.0610
  12 C8        5.0100     1.7870     1.3150  C.ar    1  <O>11      -0.0611
  13 C9        5.5710     1.1540     0.2050  C.ar    1  <O>11      -0.0521
  14 C10       6.8470     0.5490     0.2790  C.ar    1  <O>11       0.0108
  15 N3        7.1750    -1.3270    -4.2840  N.am    1  <O>11      -0.3109
  16 C11       5.8429    -0.8955    -4.6984  C.3     1  <O>11       0.0369
  17 C12       5.5986    -1.3197    -6.1016  C.ar    1  <O>11      -0.0289
  18 C13       6.4352    -0.8653    -7.1356  C.ar    1  <O>11      -0.0570
  19 C14       6.1962    -1.2558    -8.4580  C.ar    1  <O>11      -0.0601
  20 C15       5.1266    -2.1026    -8.7594  C.ar    1  <O>11      -0.0434
  21 C16       4.2973    -2.5591    -7.7292  C.ar    1  <O>11       0.0413
  22 Cl1       2.9523    -3.6233    -8.1142  Cl      1  <O>11      -0.0835
  23 C17       4.5286    -2.1773    -6.4062  C.ar    1  <O>11      -0.0387
  24 H1        6.5110     0.6790    -2.4880  H       1  <O>11       0.0423
  25 H2        5.8310    -0.8590    -1.9040  H       1  <O>11       0.0423
  26 H3       10.3060    -1.0240     0.5140  H       1  <O>11       0.1921
  27 H4        7.7706    -1.8377    -4.9351  H       1  <O>11       0.1490
  28 H5        5.7748     0.1908    -4.6302  H       1  <O>11       0.0512
  29 H6        5.0953    -1.3472    -4.0468  H       1  <O>11       0.0512
  30 H7        7.4690     1.2435     3.5110  H       1  <O>11       0.0625
  31 H8        5.2905     2.2848     3.3418  H       1  <O>11       0.0618
  32 H9        4.0811     2.2308     1.2421  H       1  <O>11       0.0618
  33 H10       5.0466     1.1270    -0.6834  H       1  <O>11       0.0624
  34 H11       7.2284    -0.2417    -6.9188  H       1  <O>11       0.0621
  35 H12       6.8124    -0.9170    -9.2134  H       1  <O>11       0.0618
  36 H13       4.9496    -2.3893    -9.7348  H       1  <O>11       0.0632
  37 H14       3.9141    -2.5245    -5.6533  H       1  <O>11       0.0635
@<TRIPOS>BOND
     1     1     2    2
     2     2     3    1
     3     3     4    1
     4     4     5   ar
     5     5     6   ar
     6     6     7   ar
     7     7     8    2
     8     7     9   ar
     9     9    10   ar
    10    10    11   ar
    11    11    12   ar
    12    12    13   ar
    13    13    14   ar
    14     4    14   ar
    15     9    14   ar
    16     2    15   am
    17    15    16    1
    18    16    17    1
    19    17    18   ar
    20    18    19   ar
    21    19    20   ar
    22    20    21   ar
    23    21    22    1
    24    21    23   ar
    25    17    23   ar
    26     3    24    1
    27     3    25    1
    28     6    26    1
    29    15    27    1
    30    16    28    1
    31    16    29    1
    32    10    30    1
    33    11    31    1
    34    12    32    1
    35    13    33    1
    36    18    34    1
    37    19    35    1
    38    20    36    1
    39    23    37    1
@<TRIPOS>MOLECULE
mol43_1_18
 37 39 0 0 0
SMALL
USER_CHARGES
****
VDW energy = -33.41
@<TRIPOS>ATOM
   1 O1        8.7381    -1.4068    -2.6744  O.2     1  <O>11      -0.2754
   2 C1        7.6234    -1.0459    -3.0216  C.2     1  <O>11       0.2192
   3 C2        6.7510    -0.2990    -2.0700  C.3     1  <O>11       0.0685
   4 C3        7.4590    -0.1250    -0.7860  C.ar    1  <O>11       0.0780
   5 N1        7.6639     1.1582    -0.3954  N.ar    1  <O>11      -0.1748
   6 N2        8.3957     1.4019     0.7151  N.ar    1  <O>11      -0.2425
   7 C4        8.8992     0.3580     1.4143  C.ar    1  <O>11       0.2725
   8 O2        9.7320     0.6822     2.5022  O.2     1  <O>11      -0.2658
   9 C5        8.6336    -0.9858     1.1124  C.ar    1  <O>11       0.0496
  10 C6        9.1091    -2.0758     1.8752  C.ar    1  <O>11      -0.0487
  11 C7        8.8347    -3.3914     1.4988  C.ar    1  <O>11      -0.0610
  12 C8        8.0878    -3.6426     0.3537  C.ar    1  <O>11      -0.0611
  13 C9        7.6169    -2.5789    -0.4172  C.ar    1  <O>11      -0.0521
  14 C10       7.8777    -1.2393    -0.0470  C.ar    1  <O>11       0.0108
  15 N3        7.1750    -1.3270    -4.2840  N.am    1  <O>11      -0.3109
  16 C11       8.0290    -2.0580    -5.2160  C.3     1  <O>11       0.0369
  17 C12       7.3160    -2.2340    -6.5080  C.ar    1  <O>11      -0.0289
  18 C13       7.9350    -2.9110    -7.5730  C.ar    1  <O>11      -0.0570
  19 C14       7.2670    -3.0650    -8.7930  C.ar    1  <O>11      -0.0601
  20 C15       5.9790    -2.5500    -8.9600  C.ar    1  <O>11      -0.0434
  21 C16       5.3610    -1.8810    -7.8980  C.ar    1  <O>11       0.0413
  22 Cl1       3.7410    -1.2340    -8.1140  Cl      1  <O>11      -0.0835
  23 C17       6.0180    -1.7240    -6.6760  C.ar    1  <O>11      -0.0387
  24 H1        6.5110     0.6790    -2.4880  H       1  <O>11       0.0423
  25 H2        5.8310    -0.8590    -1.9040  H       1  <O>11       0.0423
  26 H3        8.5650     2.3511     1.0166  H       1  <O>11       0.1921
  27 H4        6.2450    -1.0260    -4.5740  H       1  <O>11       0.1490
  28 H5        8.2700    -3.0360    -4.7980  H       1  <O>11       0.0512
  29 H6        8.9490    -1.4980    -5.3820  H       1  <O>11       0.0512
  30 H7        9.6679    -1.8963     2.7240  H       1  <O>11       0.0625
  31 H8        9.1858    -4.1762     2.0695  H       1  <O>11       0.0618
  32 H9        7.8818    -4.6144     0.0740  H       1  <O>11       0.0618
  33 H10       7.0699    -2.7729    -1.2706  H       1  <O>11       0.0624
  34 H11       8.8853    -3.2958    -7.4548  H       1  <O>11       0.0621
  35 H12       7.7275    -3.5608    -9.5722  H       1  <O>11       0.0618
  36 H13       5.4871    -2.6623    -9.8602  H       1  <O>11       0.0632
  37 H14       5.5506    -1.2339    -5.8973  H       1  <O>11       0.0635
@<TRIPOS>BOND
     1     1     2    2
     2     2     3    1
     3     3     4    1
     4     4     5   ar
     5     5     6   ar
     6     6     7   ar
     7     7     8    2
     8     7     9   ar
     9     9    10   ar
    10    10    11   ar
    11    11    12   ar
    12    12    13   ar
    13    13    14   ar
    14     4    14   ar
    15     9    14   ar
    16     2    15   am
    17    15    16    1
    18    16    17    1
    19    17    18   ar
    20    18    19   ar
    21    19    20   ar
    22    20    21   ar
    23    21    22    1
    24    21    23   ar
    25    17    23   ar
    26     3    24    1
    27     3    25    1
    28     6    26    1
    29    15    27    1
    30    16    28    1
    31    16    29    1
    32    10    30    1
    33    11    31    1
    34    12    32    1
    35    13    33    1
    36    18    34    1
    37    19    35    1
    38    20    36    1
    39    23    37    1
@<TRIPOS>MOLECULE
mol43_1_19
 37 39 0 0 0
SMALL
USER_CHARGES
****
VDW energy = -32.61
@<TRIPOS>ATOM
   1 O1        8.7381    -1.4068    -2.6744  O.2     1  <O>11      -0.2754
   2 C1        7.6234    -1.0459    -3.0216  C.2     1  <O>11       0.2192
   3 C2        6.7510    -0.2990    -2.0700  C.3     1  <O>11       0.0685
   4 C3        6.0363     0.7713    -2.7938  C.ar    1  <O>11       0.0780
   5 N1        6.3003     0.8624    -4.1216  N.ar    1  <O>11      -0.1748
   6 N2        5.7663     1.8807    -4.8330  N.ar    1  <O>11      -0.2425
   7 C4        4.9744     2.7799    -4.2033  C.ar    1  <O>11       0.2725
   8 O2        4.5311     3.8681    -4.9787  O.2     1  <O>11      -0.2658
   9 C5        4.5889     2.6754    -2.8588  C.ar    1  <O>11       0.0496
  10 C6        3.7150     3.5796    -2.2149  C.ar    1  <O>11      -0.0487
  11 C7        3.3988     3.4357    -0.8632  C.ar    1  <O>11      -0.0610
  12 C8        3.9525     2.3927    -0.1298  C.ar    1  <O>11      -0.0611
  13 C9        4.8246     1.4945    -0.7465  C.ar    1  <O>11      -0.0521
  14 C10       5.1500     1.6195    -2.1170  C.ar    1  <O>11       0.0108
  15 N3        7.1750    -1.3270    -4.2840  N.am    1  <O>11      -0.3109
  16 C11       8.0290    -2.0580    -5.2160  C.3     1  <O>11       0.0369
  17 C12       9.2834    -1.2940    -5.4425  C.ar    1  <O>11      -0.0289
  18 C13       9.2359     0.0044    -5.9788  C.ar    1  <O>11      -0.0570
  19 C14      10.4188     0.7177    -6.2030  C.ar    1  <O>11      -0.0601
  20 C15      11.6551     0.1457    -5.8923  C.ar    1  <O>11      -0.0434
  21 C16      11.7018    -1.1446    -5.3534  C.ar    1  <O>11       0.0413
  22 Cl1      13.2599    -1.8598    -4.9656  Cl      1  <O>11      -0.0835
  23 C17      10.5272    -1.8637    -5.1238  C.ar    1  <O>11      -0.0387
  24 H1        6.0274    -0.9835    -1.6265  H       1  <O>11       0.0423
  25 H2        7.3639     0.1414    -1.2839  H       1  <O>11       0.0423
  26 H3        5.9583     1.9688    -5.8209  H       1  <O>11       0.1921
  27 H4        6.2450    -1.0260    -4.5740  H       1  <O>11       0.1490
  28 H5        7.5059    -2.1868    -6.1642  H       1  <O>11       0.0512
  29 H6        8.2692    -3.0357    -4.7988  H       1  <O>11       0.0512
  30 H7        3.3039     4.3587    -2.7525  H       1  <O>11       0.0625
  31 H8        2.7552     4.1023    -0.4090  H       1  <O>11       0.0618
  32 H9        3.7190     2.2827     0.8694  H       1  <O>11       0.0618
  33 H10       5.2383     0.7274    -0.1940  H       1  <O>11       0.0624
  34 H11       8.3255     0.4332    -6.2079  H       1  <O>11       0.0621
  35 H12      10.3778     1.6697    -6.5993  H       1  <O>11       0.0618
  36 H13      12.5274     0.6712    -6.0591  H       1  <O>11       0.0632
  37 H14      10.5728    -2.8125    -4.7204  H       1  <O>11       0.0635
@<TRIPOS>BOND
     1     1     2    2
     2     2     3    1
     3     3     4    1
     4     4     5   ar
     5     5     6   ar
     6     6     7   ar
     7     7     8    2
     8     7     9   ar
     9     9    10   ar
    10    10    11   ar
    11    11    12   ar
    12    12    13   ar
    13    13    14   ar
    14     4    14   ar
    15     9    14   ar
    16     2    15   am
    17    15    16    1
    18    16    17    1
    19    17    18   ar
    20    18    19   ar
    21    19    20   ar
    22    20    21   ar
    23    21    22    1
    24    21    23   ar
    25    17    23   ar
    26     3    24    1
    27     3    25    1
    28     6    26    1
    29    15    27    1
    30    16    28    1
    31    16    29    1
    32    10    30    1
    33    11    31    1
    34    12    32    1
    35    13    33    1
    36    18    34    1
    37    19    35    1
    38    20    36    1
    39    23    37    1
@<TRIPOS>MOLECULE
mol43_1_20
 37 39 0 0 0
SMALL
USER_CHARGES
****
VDW energy = -31.97
@<TRIPOS>ATOM
   1 O1        8.7381    -1.4068    -2.6744  O.2     1  <O>11      -0.2754
   2 C1        7.6234    -1.0459    -3.0216  C.2     1  <O>11       0.2192
   3 C2        6.7510    -0.2990    -2.0700  C.3     1  <O>11       0.0685
   4 C3        6.0363     0.7713    -2.7938  C.ar    1  <O>11       0.0780
   5 N1        4.6817     0.6972    -2.7676  N.ar    1  <O>11      -0.1748
   6 N2        3.9576     1.5792    -3.4928  N.ar    1  <O>11      -0.2425
   7 C4        4.6032     2.5199    -4.2211  C.ar    1  <O>11       0.2725
   8 O2        3.7957     3.3432    -5.0287  O.2     1  <O>11      -0.2658
   9 C5        5.9936     2.7038    -4.2038  C.ar    1  <O>11       0.0496
  10 C6        6.6647     3.7224    -4.9166  C.ar    1  <O>11      -0.0487
  11 C7        8.0559     3.8281    -4.8817  C.ar    1  <O>11      -0.0610
  12 C8        8.8011     2.9176    -4.1414  C.ar    1  <O>11      -0.0611
  13 C9        8.1564     1.8995    -3.4377  C.ar    1  <O>11      -0.0521
  14 C10       6.7473     1.7817    -3.4545  C.ar    1  <O>11       0.0108
  15 N3        7.1750    -1.3270    -4.2840  N.am    1  <O>11      -0.3109
  16 C11       8.0290    -2.0580    -5.2160  C.3     1  <O>11       0.0369
  17 C12       8.3572    -3.3909    -4.6466  C.ar    1  <O>11      -0.0289
  18 C13       9.1713    -4.2864    -5.3614  C.ar    1  <O>11      -0.0570
  19 C14       9.4691    -5.5460    -4.8292  C.ar    1  <O>11      -0.0601
  20 C15       8.9623    -5.9210    -3.5824  C.ar    1  <O>11      -0.0434
  21 C16       8.1565    -5.0273    -2.8687  C.ar    1  <O>11       0.0413
  22 Cl1       7.5206    -5.5047    -1.3011  Cl      1  <O>11      -0.0835
  23 C17       7.8553    -3.7674    -3.3898  C.ar    1  <O>11      -0.0387
  24 H1        6.0274    -0.9835    -1.6265  H       1  <O>11       0.0423
  25 H2        7.3639     0.1414    -1.2839  H       1  <O>11       0.0423
  26 H3        2.9484     1.5342    -3.4914  H       1  <O>11       0.1921
  27 H4        6.2450    -1.0260    -4.5740  H       1  <O>11       0.1490
  28 H5        8.9495    -1.4974    -5.3821  H       1  <O>11       0.0512
  29 H6        7.5067    -2.1863    -6.1638  H       1  <O>11       0.0512
  30 H7        6.1177     4.3988    -5.4717  H       1  <O>11       0.0625
  31 H8        8.5304     4.5807    -5.4045  H       1  <O>11       0.0618
  32 H9        9.8299     2.9946    -4.1123  H       1  <O>11       0.0618
  33 H10       8.7165     1.2223    -2.8968  H       1  <O>11       0.0624
  34 H11       9.5506    -4.0141    -6.2817  H       1  <O>11       0.0621
  35 H12      10.0653    -6.2003    -5.3598  H       1  <O>11       0.0618
  36 H13       9.1808    -6.8504    -3.1908  H       1  <O>11       0.0632
  37 H14       7.2647    -3.1137    -2.8523  H       1  <O>11       0.0635
@<TRIPOS>BOND
     1     1     2    2
     2     2     3    1
     3     3     4    1
     4     4     5   ar
     5     5     6   ar
     6     6     7   ar
     7     7     8    2
     8     7     9   ar
     9     9    10   ar
    10    10    11   ar
    11    11    12   ar
    12    12    13   ar
    13    13    14   ar
    14     4    14   ar
    15     9    14   ar
    16     2    15   am
    17    15    16    1
    18    16    17    1
    19    17    18   ar
    20    18    19   ar
    21    19    20   ar
    22    20    21   ar
    23    21    22    1
    24    21    23   ar
    25    17    23   ar
    26     3    24    1
    27     3    25    1
    28     6    26    1
    29    15    27    1
    30    16    28    1
    31    16    29    1
    32    10    30    1
    33    11    31    1
    34    12    32    1
    35    13    33    1
    36    18    34    1
    37    19    35    1
    38    20    36    1
    39    23    37    1
@<TRIPOS>MOLECULE
mol43_1_21
 37 39 0 0 0
SMALL
USER_CHARGES
****
VDW energy = -31.66
@<TRIPOS>ATOM
   1 O1        8.7381    -1.4068    -2.6744  O.2     1  <O>11      -0.2754
   2 C1        7.6234    -1.0459    -3.0216  C.2     1  <O>11       0.2192
   3 C2        6.7510    -0.2990    -2.0700  C.3     1  <O>11       0.0685
   4 C3        5.3571    -0.7653    -2.2104  C.ar    1  <O>11       0.0780
   5 N1        5.0007    -1.8049    -1.4145  N.ar    1  <O>11      -0.1748
   6 N2        3.7747    -2.3567    -1.5580  N.ar    1  <O>11      -0.2425
   7 C4        2.9301    -1.8523    -2.4877  C.ar    1  <O>11       0.2725
   8 O2        1.7090    -2.5334    -2.6530  O.2     1  <O>11      -0.2658
   9 C5        3.2096    -0.7182    -3.2643  C.ar    1  <O>11       0.0496
  10 C6        2.3064    -0.1543    -4.1929  C.ar    1  <O>11      -0.0487
  11 C7        2.6620     0.9570    -4.9585  C.ar    1  <O>11      -0.0610
  12 C8        3.9246     1.5208    -4.8159  C.ar    1  <O>11      -0.0611
  13 C9        4.8333     0.9725    -3.9098  C.ar    1  <O>11      -0.0521
  14 C10       4.4879    -0.1482    -3.1196  C.ar    1  <O>11       0.0108
  15 N3        7.1750    -1.3270    -4.2840  N.am    1  <O>11      -0.3109
  16 C11       8.0290    -2.0580    -5.2160  C.3     1  <O>11       0.0369
  17 C12       8.3572    -3.3909    -4.6466  C.ar    1  <O>11      -0.0289
  18 C13       9.1713    -4.2864    -5.3614  C.ar    1  <O>11      -0.0570
  19 C14       9.4691    -5.5460    -4.8292  C.ar    1  <O>11      -0.0601
  20 C15       8.9623    -5.9210    -3.5824  C.ar    1  <O>11      -0.0434
  21 C16       8.1565    -5.0273    -2.8687  C.ar    1  <O>11       0.0413
  22 Cl1       7.5206    -5.5047    -1.3011  Cl      1  <O>11      -0.0835
  23 C17       7.8553    -3.7674    -3.3898  C.ar    1  <O>11      -0.0387
  24 H1        7.0920    -0.4752    -1.0495  H       1  <O>11       0.0423
  25 H2        6.8009     0.7669    -2.2910  H       1  <O>11       0.0423
  26 H3        3.4950    -3.1363    -0.9795  H       1  <O>11       0.1921
  27 H4        6.2450    -1.0260    -4.5740  H       1  <O>11       0.1490
  28 H5        8.9495    -1.4974    -5.3821  H       1  <O>11       0.0512
  29 H6        7.5067    -2.1863    -6.1638  H       1  <O>11       0.0512
  30 H7        1.3691    -0.5708    -4.3068  H       1  <O>11       0.0625
  31 H8        1.9889     1.3595    -5.6292  H       1  <O>11       0.0618
  32 H9        4.1895     2.3439    -5.3794  H       1  <O>11       0.0618
  33 H10       5.7717     1.3912    -3.8151  H       1  <O>11       0.0624
  34 H11       9.5506    -4.0141    -6.2817  H       1  <O>11       0.0621
  35 H12      10.0653    -6.2003    -5.3598  H       1  <O>11       0.0618
  36 H13       9.1808    -6.8504    -3.1908  H       1  <O>11       0.0632
  37 H14       7.2647    -3.1137    -2.8523  H       1  <O>11       0.0635
@<TRIPOS>BOND
     1     1     2    2
     2     2     3    1
     3     3     4    1
     4     4     5   ar
     5     5     6   ar
     6     6     7   ar
     7     7     8    2
     8     7     9   ar
     9     9    10   ar
    10    10    11   ar
    11    11    12   ar
    12    12    13   ar
    13    13    14   ar
    14     4    14   ar
    15     9    14   ar
    16     2    15   am
    17    15    16    1
    18    16    17    1
    19    17    18   ar
    20    18    19   ar
    21    19    20   ar
    22    20    21   ar
    23    21    22    1
    24    21    23   ar
    25    17    23   ar
    26     3    24    1
    27     3    25    1
    28     6    26    1
    29    15    27    1
    30    16    28    1
    31    16    29    1
    32    10    30    1
    33    11    31    1
    34    12    32    1
    35    13    33    1
    36    18    34    1
    37    19    35    1
    38    20    36    1
    39    23    37    1
@<TRIPOS>MOLECULE
mol43_1_22
 37 39 0 0 0
SMALL
USER_CHARGES
****
VDW energy = -31.37
@<TRIPOS>ATOM
   1 O1        8.7381    -1.4068    -2.6744  O.2     1  <O>11      -0.2754
   2 C1        7.6234    -1.0459    -3.0216  C.2     1  <O>11       0.2192
   3 C2        6.7510    -0.2990    -2.0700  C.3     1  <O>11       0.0685
   4 C3        5.3571    -0.7653    -2.2104  C.ar    1  <O>11       0.0780
   5 N1        5.0007    -1.8049    -1.4145  N.ar    1  <O>11      -0.1748
   6 N2        3.7747    -2.3567    -1.5580  N.ar    1  <O>11      -0.2425
   7 C4        2.9301    -1.8523    -2.4877  C.ar    1  <O>11       0.2725
   8 O2        1.7090    -2.5334    -2.6530  O.2     1  <O>11      -0.2658
   9 C5        3.2096    -0.7182    -3.2643  C.ar    1  <O>11       0.0496
  10 C6        2.3064    -0.1543    -4.1929  C.ar    1  <O>11      -0.0487
  11 C7        2.6620     0.9570    -4.9585  C.ar    1  <O>11      -0.0610
  12 C8        3.9246     1.5208    -4.8159  C.ar    1  <O>11      -0.0611
  13 C9        4.8333     0.9725    -3.9098  C.ar    1  <O>11      -0.0521
  14 C10       4.4879    -0.1482    -3.1196  C.ar    1  <O>11       0.0108
  15 N3        7.1750    -1.3270    -4.2840  N.am    1  <O>11      -0.3109
  16 C11       8.0290    -2.0580    -5.2160  C.3     1  <O>11       0.0369
  17 C12       9.2834    -1.2940    -5.4425  C.ar    1  <O>11      -0.0289
  18 C13      10.2727    -1.7950    -6.3063  C.ar    1  <O>11      -0.0570
  19 C14      11.4586    -1.0803    -6.5088  C.ar    1  <O>11      -0.0601
  20 C15      11.6664     0.1377    -5.8566  C.ar    1  <O>11      -0.0434
  21 C16      10.6792     0.6388    -5.0012  C.ar    1  <O>11       0.0413
  22 Cl1      10.9464     2.1710    -4.1823  Cl      1  <O>11      -0.0835
  23 C17       9.4915    -0.0654    -4.7941  C.ar    1  <O>11      -0.0387
  24 H1        7.0920    -0.4752    -1.0495  H       1  <O>11       0.0423
  25 H2        6.8009     0.7669    -2.2910  H       1  <O>11       0.0423
  26 H3        3.4950    -3.1363    -0.9795  H       1  <O>11       0.1921
  27 H4        6.2450    -1.0260    -4.5740  H       1  <O>11       0.1490
  28 H5        7.5059    -2.1868    -6.1642  H       1  <O>11       0.0512
  29 H6        8.2692    -3.0357    -4.7988  H       1  <O>11       0.0512
  30 H7        1.3691    -0.5708    -4.3068  H       1  <O>11       0.0625
  31 H8        1.9889     1.3595    -5.6292  H       1  <O>11       0.0618
  32 H9        4.1895     2.3439    -5.3794  H       1  <O>11       0.0618
  33 H10       5.7717     1.3912    -3.8151  H       1  <O>11       0.0624
  34 H11      10.1238    -2.6930    -6.7928  H       1  <O>11       0.0621
  35 H12      12.1825    -1.4544    -7.1422  H       1  <O>11       0.0618
  36 H13      12.5417     0.6639    -6.0049  H       1  <O>11       0.0632
  37 H14       8.7674     0.3162    -4.1655  H       1  <O>11       0.0635
@<TRIPOS>BOND
     1     1     2    2
     2     2     3    1
     3     3     4    1
     4     4     5   ar
     5     5     6   ar
     6     6     7   ar
     7     7     8    2
     8     7     9   ar
     9     9    10   ar
    10    10    11   ar
    11    11    12   ar
    12    12    13   ar
    13    13    14   ar
    14     4    14   ar
    15     9    14   ar
    16     2    15   am
    17    15    16    1
    18    16    17    1
    19    17    18   ar
    20    18    19   ar
    21    19    20   ar
    22    20    21   ar
    23    21    22    1
    24    21    23   ar
    25    17    23   ar
    26     3    24    1
    27     3    25    1
    28     6    26    1
    29    15    27    1
    30    16    28    1
    31    16    29    1
    32    10    30    1
    33    11    31    1
    34    12    32    1
    35    13    33    1
    36    18    34    1
    37    19    35    1
    38    20    36    1
    39    23    37    1
@<TRIPOS>MOLECULE
mol43_1_23
 37 39 0 0 0
SMALL
USER_CHARGES
****
VDW energy = -31.23
@<TRIPOS>ATOM
   1 O1        8.7381    -1.4068    -2.6744  O.2     1  <O>11      -0.2754
   2 C1        7.6234    -1.0459    -3.0216  C.2     1  <O>11       0.2192
   3 C2        6.7510    -0.2990    -2.0700  C.3     1  <O>11       0.0685
   4 C3        7.4590    -0.1250    -0.7860  C.ar    1  <O>11       0.0780
   5 N1        6.8538    -0.6703     0.2991  N.ar    1  <O>11      -0.1748
   6 N2        7.3853    -0.4644     1.5252  N.ar    1  <O>11      -0.2425
   7 C4        8.5136     0.2748     1.6382  C.ar    1  <O>11       0.2725
   8 O2        8.9591     0.5326     2.9486  O.2     1  <O>11      -0.2658
   9 C5        9.2332     0.7751     0.5432  C.ar    1  <O>11       0.0496
  10 C6       10.4429     1.4963     0.6557  C.ar    1  <O>11      -0.0487
  11 C7       11.0908     1.9952    -0.4752  C.ar    1  <O>11      -0.0610
  12 C8       10.5415     1.7893    -1.7354  C.ar    1  <O>11      -0.0611
  13 C9        9.3428     1.0866    -1.8657  C.ar    1  <O>11      -0.0521
  14 C10       8.6764     0.5665    -0.7321  C.ar    1  <O>11       0.0108
  15 N3        7.1750    -1.3270    -4.2840  N.am    1  <O>11      -0.3109
  16 C11       8.0290    -2.0580    -5.2160  C.3     1  <O>11       0.0369
  17 C12       7.3160    -2.2340    -6.5080  C.ar    1  <O>11      -0.0289
  18 C13       7.9350    -2.9110    -7.5730  C.ar    1  <O>11      -0.0570
  19 C14       7.2670    -3.0650    -8.7930  C.ar    1  <O>11      -0.0601
  20 C15       5.9790    -2.5500    -8.9600  C.ar    1  <O>11      -0.0434
  21 C16       5.3610    -1.8810    -7.8980  C.ar    1  <O>11       0.0413
  22 Cl1       3.7410    -1.2340    -8.1140  Cl      1  <O>11      -0.0835
  23 C17       6.0180    -1.7240    -6.6760  C.ar    1  <O>11      -0.0387
  24 H1        6.5110     0.6790    -2.4880  H       1  <O>11       0.0423
  25 H2        5.8310    -0.8590    -1.9040  H       1  <O>11       0.0423
  26 H3        6.9440    -0.8563     2.3451  H       1  <O>11       0.1921
  27 H4        6.2450    -1.0260    -4.5740  H       1  <O>11       0.1490
  28 H5        8.2700    -3.0360    -4.7980  H       1  <O>11       0.0512
  29 H6        8.9490    -1.4980    -5.3820  H       1  <O>11       0.0512
  30 H7       10.8538     1.6565     1.5887  H       1  <O>11       0.0625
  31 H8       11.9761     2.5162    -0.3760  H       1  <O>11       0.0618
  32 H9       11.0195     2.1555    -2.5735  H       1  <O>11       0.0618
  33 H10       8.9365     0.9445    -2.8036  H       1  <O>11       0.0624
  34 H11       8.8853    -3.2958    -7.4548  H       1  <O>11       0.0621
  35 H12       7.7275    -3.5608    -9.5722  H       1  <O>11       0.0618
  36 H13       5.4871    -2.6623    -9.8602  H       1  <O>11       0.0632
  37 H14       5.5506    -1.2339    -5.8973  H       1  <O>11       0.0635
@<TRIPOS>BOND
     1     1     2    2
     2     2     3    1
     3     3     4    1
     4     4     5   ar
     5     5     6   ar
     6     6     7   ar
     7     7     8    2
     8     7     9   ar
     9     9    10   ar
    10    10    11   ar
    11    11    12   ar
    12    12    13   ar
    13    13    14   ar
    14     4    14   ar
    15     9    14   ar
    16     2    15   am
    17    15    16    1
    18    16    17    1
    19    17    18   ar
    20    18    19   ar
    21    19    20   ar
    22    20    21   ar
    23    21    22    1
    24    21    23   ar
    25    17    23   ar
    26     3    24    1
    27     3    25    1
    28     6    26    1
    29    15    27    1
    30    16    28    1
    31    16    29    1
    32    10    30    1
    33    11    31    1
    34    12    32    1
    35    13    33    1
    36    18    34    1
    37    19    35    1
    38    20    36    1
    39    23    37    1
@<TRIPOS>MOLECULE
mol43_1_24
 37 39 0 0 0
SMALL
USER_CHARGES
****
VDW energy = -30.68
@<TRIPOS>ATOM
   1 O1        8.7381    -1.4068    -2.6744  O.2     1  <O>11      -0.2754
   2 C1        7.6234    -1.0459    -3.0216  C.2     1  <O>11       0.2192
   3 C2        6.7510    -0.2990    -2.0700  C.3     1  <O>11       0.0685
   4 C3        5.3571    -0.7653    -2.2104  C.ar    1  <O>11       0.0780
   5 N1        4.4528     0.1803    -2.5697  N.ar    1  <O>11      -0.1748
   6 N2        3.1411    -0.1440    -2.6173  N.ar    1  <O>11      -0.2425
   7 C4        2.7637    -1.4077    -2.3125  C.ar    1  <O>11       0.2725
   8 O2        1.3776    -1.6532    -2.2862  O.2     1  <O>11      -0.2658
   9 C5        3.6639    -2.4466    -2.0339  C.ar    1  <O>11       0.0496
  10 C6        3.2757    -3.7799    -1.7738  C.ar    1  <O>11      -0.0487
  11 C7        4.2229    -4.7588    -1.4703  C.ar    1  <O>11      -0.0610
  12 C8        5.5710    -4.4245    -1.4150  C.ar    1  <O>11      -0.0611
  13 C9        5.9728    -3.1108    -1.6606  C.ar    1  <O>11      -0.0521
  14 C10       5.0283    -2.1073    -1.9779  C.ar    1  <O>11       0.0108
  15 N3        7.1750    -1.3270    -4.2840  N.am    1  <O>11      -0.3109
  16 C11       8.0290    -2.0580    -5.2160  C.3     1  <O>11       0.0369
  17 C12       9.2834    -1.2940    -5.4425  C.ar    1  <O>11      -0.0289
  18 C13      10.2727    -1.7950    -6.3063  C.ar    1  <O>11      -0.0570
  19 C14      11.4586    -1.0803    -6.5088  C.ar    1  <O>11      -0.0601
  20 C15      11.6664     0.1377    -5.8566  C.ar    1  <O>11      -0.0434
  21 C16      10.6792     0.6388    -5.0012  C.ar    1  <O>11       0.0413
  22 Cl1      10.9464     2.1710    -4.1823  Cl      1  <O>11      -0.0835
  23 C17       9.4915    -0.0654    -4.7941  C.ar    1  <O>11      -0.0387
  24 H1        7.0920    -0.4752    -1.0495  H       1  <O>11       0.0423
  25 H2        6.8009     0.7669    -2.2910  H       1  <O>11       0.0423
  26 H3        2.4530     0.5491    -2.8752  H       1  <O>11       0.1921
  27 H4        6.2450    -1.0260    -4.5740  H       1  <O>11       0.1490
  28 H5        7.5059    -2.1868    -6.1642  H       1  <O>11       0.0512
  29 H6        8.2692    -3.0357    -4.7988  H       1  <O>11       0.0512
  30 H7        2.2761    -4.0339    -1.8088  H       1  <O>11       0.0625
  31 H8        3.9231    -5.7292    -1.2872  H       1  <O>11       0.0618
  32 H9        6.2739    -5.1468    -1.1927  H       1  <O>11       0.0618
  33 H10       6.9745    -2.8679    -1.6099  H       1  <O>11       0.0624
  34 H11      10.1238    -2.6930    -6.7928  H       1  <O>11       0.0621
  35 H12      12.1825    -1.4544    -7.1422  H       1  <O>11       0.0618
  36 H13      12.5417     0.6639    -6.0049  H       1  <O>11       0.0632
  37 H14       8.7674     0.3162    -4.1655  H       1  <O>11       0.0635
@<TRIPOS>BOND
     1     1     2    2
     2     2     3    1
     3     3     4    1
     4     4     5   ar
     5     5     6   ar
     6     6     7   ar
     7     7     8    2
     8     7     9   ar
     9     9    10   ar
    10    10    11   ar
    11    11    12   ar
    12    12    13   ar
    13    13    14   ar
    14     4    14   ar
    15     9    14   ar
    16     2    15   am
    17    15    16    1
    18    16    17    1
    19    17    18   ar
    20    18    19   ar
    21    19    20   ar
    22    20    21   ar
    23    21    22    1
    24    21    23   ar
    25    17    23   ar
    26     3    24    1
    27     3    25    1
    28     6    26    1
    29    15    27    1
    30    16    28    1
    31    16    29    1
    32    10    30    1
    33    11    31    1
    34    12    32    1
    35    13    33    1
    36    18    34    1
    37    19    35    1
    38    20    36    1
    39    23    37    1
@<TRIPOS>MOLECULE
mol43_1_25
 37 39 0 0 0
SMALL
USER_CHARGES
****
VDW energy = -25.49
@<TRIPOS>ATOM
   1 O1        8.7381    -1.4068    -2.6744  O.2     1  <O>11      -0.2754
   2 C1        7.6234    -1.0459    -3.0216  C.2     1  <O>11       0.2192
   3 C2        6.7510    -0.2990    -2.0700  C.3     1  <O>11       0.0685
   4 C3        7.4590    -0.1250    -0.7860  C.ar    1  <O>11       0.0780
   5 N1        8.7070    -0.6540    -0.7250  N.ar    1  <O>11      -0.1748
   6 N2        9.3790    -0.6280     0.4480  N.ar    1  <O>11      -0.2425
   7 C4        8.7920    -0.0670     1.5310  C.ar    1  <O>11       0.2725
   8 O2        9.5040    -0.1600     2.7420  O.2     1  <O>11      -0.2658
   9 C5        7.5490     0.5820     1.4980  C.ar    1  <O>11       0.0496
  10 C6        6.9610     1.2200     2.6130  C.ar    1  <O>11      -0.0487
  11 C7        5.7040     1.8190     2.5190  C.ar    1  <O>11      -0.0610
  12 C8        5.0100     1.7870     1.3150  C.ar    1  <O>11      -0.0611
  13 C9        5.5710     1.1540     0.2050  C.ar    1  <O>11      -0.0521
  14 C10       6.8470     0.5490     0.2790  C.ar    1  <O>11       0.0108
  15 N3        7.1750    -1.3270    -4.2840  N.am    1  <O>11      -0.3109
  16 C11       5.8429    -0.8955    -4.6984  C.3     1  <O>11       0.0369
  17 C12       4.8235    -1.5118    -3.8098  C.ar    1  <O>11      -0.0289
  18 C13       4.7112    -2.9102    -3.7226  C.ar    1  <O>11      -0.0570
  19 C14       3.7425    -3.4888    -2.8949  C.ar    1  <O>11      -0.0601
  20 C15       2.8824    -2.6809    -2.1469  C.ar    1  <O>11      -0.0434
  21 C16       2.9980    -1.2891    -2.2297  C.ar    1  <O>11       0.0413
  22 Cl1       1.9126    -0.2773    -1.2874  Cl      1  <O>11      -0.0835
  23 C17       3.9627    -0.7019    -3.0508  C.ar    1  <O>11      -0.0387
  24 H1        6.5110     0.6790    -2.4880  H       1  <O>11       0.0423
  25 H2        5.8310    -0.8590    -1.9040  H       1  <O>11       0.0423
  26 H3       10.3060    -1.0240     0.5140  H       1  <O>11       0.1921
  27 H4        7.7706    -1.8377    -4.9351  H       1  <O>11       0.1490
  28 H5        5.6635    -1.2072    -5.7279  H       1  <O>11       0.0512
  29 H6        5.7750     0.1900    -4.6311  H       1  <O>11       0.0512
  30 H7        7.4690     1.2435     3.5110  H       1  <O>11       0.0625
  31 H8        5.2905     2.2848     3.3418  H       1  <O>11       0.0618
  32 H9        4.0811     2.2308     1.2421  H       1  <O>11       0.0618
  33 H10       5.0466     1.1270    -0.6834  H       1  <O>11       0.0624
  34 H11       5.3454    -3.5123    -4.2708  H       1  <O>11       0.0621
  35 H12       3.6631    -4.5162    -2.8368  H       1  <O>11       0.0618
  36 H13       2.1671    -3.1077    -1.5377  H       1  <O>11       0.0632
  37 H14       4.0431     0.3258    -3.1000  H       1  <O>11       0.0635
@<TRIPOS>BOND
     1     1     2    2
     2     2     3    1
     3     3     4    1
     4     4     5   ar
     5     5     6   ar
     6     6     7   ar
     7     7     8    2
     8     7     9   ar
     9     9    10   ar
    10    10    11   ar
    11    11    12   ar
    12    12    13   ar
    13    13    14   ar
    14     4    14   ar
    15     9    14   ar
    16     2    15   am
    17    15    16    1
    18    16    17    1
    19    17    18   ar
    20    18    19   ar
    21    19    20   ar
    22    20    21   ar
    23    21    22    1
    24    21    23   ar
    25    17    23   ar
    26     3    24    1
    27     3    25    1
    28     6    26    1
    29    15    27    1
    30    16    28    1
    31    16    29    1
    32    10    30    1
    33    11    31    1
    34    12    32    1
    35    13    33    1
    36    18    34    1
    37    19    35    1
    38    20    36    1
    39    23    37    1
@<TRIPOS>MOLECULE
mol43_1_26
 37 39 0 0 0
SMALL
USER_CHARGES
****
VDW energy = -23.61
@<TRIPOS>ATOM
   1 O1        8.7381    -1.4068    -2.6744  O.2     1  <O>11      -0.2754
   2 C1        7.6234    -1.0459    -3.0216  C.2     1  <O>11       0.2192
   3 C2        6.7510    -0.2990    -2.0700  C.3     1  <O>11       0.0685
   4 C3        7.4590    -0.1250    -0.7860  C.ar    1  <O>11       0.0780
   5 N1        8.7070    -0.6540    -0.7250  N.ar    1  <O>11      -0.1748
   6 N2        9.3790    -0.6280     0.4480  N.ar    1  <O>11      -0.2425
   7 C4        8.7920    -0.0670     1.5310  C.ar    1  <O>11       0.2725
   8 O2        9.5040    -0.1600     2.7420  O.2     1  <O>11      -0.2658
   9 C5        7.5490     0.5820     1.4980  C.ar    1  <O>11       0.0496
  10 C6        6.9610     1.2200     2.6130  C.ar    1  <O>11      -0.0487
  11 C7        5.7040     1.8190     2.5190  C.ar    1  <O>11      -0.0610
  12 C8        5.0100     1.7870     1.3150  C.ar    1  <O>11      -0.0611
  13 C9        5.5710     1.1540     0.2050  C.ar    1  <O>11      -0.0521
  14 C10       6.8470     0.5490     0.2790  C.ar    1  <O>11       0.0108
  15 N3        7.1750    -1.3270    -4.2840  N.am    1  <O>11      -0.3109
  16 C11       8.0290    -2.0580    -5.2160  C.3     1  <O>11       0.0369
  17 C12       7.3160    -2.2340    -6.5080  C.ar    1  <O>11      -0.0289
  18 C13       7.9350    -2.9110    -7.5730  C.ar    1  <O>11      -0.0570
  19 C14       7.2670    -3.0650    -8.7930  C.ar    1  <O>11      -0.0601
  20 C15       5.9790    -2.5500    -8.9600  C.ar    1  <O>11      -0.0434
  21 C16       5.3610    -1.8810    -7.8980  C.ar    1  <O>11       0.0413
  22 Cl1       3.7410    -1.2340    -8.1140  Cl      1  <O>11      -0.0835
  23 C17       6.0180    -1.7240    -6.6760  C.ar    1  <O>11      -0.0387
  24 H1        6.5110     0.6790    -2.4880  H       1  <O>11       0.0423
  25 H2        5.8310    -0.8590    -1.9040  H       1  <O>11       0.0423
  26 H3       10.3060    -1.0240     0.5140  H       1  <O>11       0.1921
  27 H4        6.2450    -1.0260    -4.5740  H       1  <O>11       0.1490
  28 H5        8.2700    -3.0360    -4.7980  H       1  <O>11       0.0512
  29 H6        8.9490    -1.4980    -5.3820  H       1  <O>11       0.0512
  30 H7        7.4690     1.2435     3.5110  H       1  <O>11       0.0625
  31 H8        5.2905     2.2848     3.3418  H       1  <O>11       0.0618
  32 H9        4.0811     2.2308     1.2421  H       1  <O>11       0.0618
  33 H10       5.0466     1.1270    -0.6834  H       1  <O>11       0.0624
  34 H11       8.8853    -3.2958    -7.4548  H       1  <O>11       0.0621
  35 H12       7.7275    -3.5608    -9.5722  H       1  <O>11       0.0618
  36 H13       5.4871    -2.6623    -9.8602  H       1  <O>11       0.0632
  37 H14       5.5506    -1.2339    -5.8973  H       1  <O>11       0.0635
@<TRIPOS>BOND
     1     1     2    2
     2     2     3    1
     3     3     4    1
     4     4     5   ar
     5     5     6   ar
     6     6     7   ar
     7     7     8    2
     8     7     9   ar
     9     9    10   ar
    10    10    11   ar
    11    11    12   ar
    12    12    13   ar
    13    13    14   ar
    14     4    14   ar
    15     9    14   ar
    16     2    15   am
    17    15    16    1
    18    16    17    1
    19    17    18   ar
    20    18    19   ar
    21    19    20   ar
    22    20    21   ar
    23    21    22    1
    24    21    23   ar
    25    17    23   ar
    26     3    24    1
    27     3    25    1
    28     6    26    1
    29    15    27    1
    30    16    28    1
    31    16    29    1
    32    10    30    1
    33    11    31    1
    34    12    32    1
    35    13    33    1
    36    18    34    1
    37    19    35    1
    38    20    36    1
    39    23    37    1
@<TRIPOS>MOLECULE
mol43_1_27
 37 39 0 0 0
SMALL
USER_CHARGES
****
VDW energy = -22.13
@<TRIPOS>ATOM
   1 O1        8.7381    -1.4068    -2.6744  O.2     1  <O>11      -0.2754
   2 C1        7.6234    -1.0459    -3.0216  C.2     1  <O>11       0.2192
   3 C2        6.7510    -0.2990    -2.0700  C.3     1  <O>11       0.0685
   4 C3        7.4590    -0.1250    -0.7860  C.ar    1  <O>11       0.0780
   5 N1        8.7070    -0.6540    -0.7250  N.ar    1  <O>11      -0.1748
   6 N2        9.3790    -0.6280     0.4480  N.ar    1  <O>11      -0.2425
   7 C4        8.7920    -0.0670     1.5310  C.ar    1  <O>11       0.2725
   8 O2        9.5040    -0.1600     2.7420  O.2     1  <O>11      -0.2658
   9 C5        7.5490     0.5820     1.4980  C.ar    1  <O>11       0.0496
  10 C6        6.9610     1.2200     2.6130  C.ar    1  <O>11      -0.0487
  11 C7        5.7040     1.8190     2.5190  C.ar    1  <O>11      -0.0610
  12 C8        5.0100     1.7870     1.3150  C.ar    1  <O>11      -0.0611
  13 C9        5.5710     1.1540     0.2050  C.ar    1  <O>11      -0.0521
  14 C10       6.8470     0.5490     0.2790  C.ar    1  <O>11       0.0108
  15 N3        7.1750    -1.3270    -4.2840  N.am    1  <O>11      -0.3109
  16 C11       5.8429    -0.8955    -4.6984  C.3     1  <O>11       0.0369
  17 C12       5.5986    -1.3197    -6.1016  C.ar    1  <O>11      -0.0289
  18 C13       4.3782    -1.0192    -6.7309  C.ar    1  <O>11      -0.0570
  19 C14       4.1450    -1.4302    -8.0481  C.ar    1  <O>11      -0.0601
  20 C15       5.1245    -2.1391    -8.7480  C.ar    1  <O>11      -0.0434
  21 C16       6.3412    -2.4334    -8.1232  C.ar    1  <O>11       0.0413
  22 Cl1       7.5696    -3.3266    -9.0080  Cl      1  <O>11      -0.0835
  23 C17       6.5847    -2.0258    -6.8101  C.ar    1  <O>11      -0.0387
  24 H1        6.5110     0.6790    -2.4880  H       1  <O>11       0.0423
  25 H2        5.8310    -0.8590    -1.9040  H       1  <O>11       0.0423
  26 H3       10.3060    -1.0240     0.5140  H       1  <O>11       0.1921
  27 H4        7.7706    -1.8377    -4.9351  H       1  <O>11       0.1490
  28 H5        5.7748     0.1908    -4.6302  H       1  <O>11       0.0512
  29 H6        5.0953    -1.3472    -4.0468  H       1  <O>11       0.0512
  30 H7        7.4690     1.2435     3.5110  H       1  <O>11       0.0625
  31 H8        5.2905     2.2848     3.3418  H       1  <O>11       0.0618
  32 H9        4.0811     2.2308     1.2421  H       1  <O>11       0.0618
  33 H10       5.0466     1.1270    -0.6834  H       1  <O>11       0.0624
  34 H11       3.6518    -0.4936    -6.2198  H       1  <O>11       0.0621
  35 H12       3.2460    -1.2088    -8.5041  H       1  <O>11       0.0618
  36 H13       4.9518    -2.4435    -9.7188  H       1  <O>11       0.0632
  37 H14       7.4880    -2.2431    -6.3607  H       1  <O>11       0.0635
@<TRIPOS>BOND
     1     1     2    2
     2     2     3    1
     3     3     4    1
     4     4     5   ar
     5     5     6   ar
     6     6     7   ar
     7     7     8    2
     8     7     9   ar
     9     9    10   ar
    10    10    11   ar
    11    11    12   ar
    12    12    13   ar
    13    13    14   ar
    14     4    14   ar
    15     9    14   ar
    16     2    15   am
    17    15    16    1
    18    16    17    1
    19    17    18   ar
    20    18    19   ar
    21    19    20   ar
    22    20    21   ar
    23    21    22    1
    24    21    23   ar
    25    17    23   ar
    26     3    24    1
    27     3    25    1
    28     6    26    1
    29    15    27    1
    30    16    28    1
    31    16    29    1
    32    10    30    1
    33    11    31    1
    34    12    32    1
    35    13    33    1
    36    18    34    1
    37    19    35    1
    38    20    36    1
    39    23    37    1
@<TRIPOS>MOLECULE
mol43_1_28
 37 39 0 0 0
SMALL
USER_CHARGES
****
VDW energy = -19.70
@<TRIPOS>ATOM
   1 O1        8.7381    -1.4068    -2.6744  O.2     1  <O>11      -0.2754
   2 C1        7.6234    -1.0459    -3.0216  C.2     1  <O>11       0.2192
   3 C2        6.7510    -0.2990    -2.0700  C.3     1  <O>11       0.0685
   4 C3        7.4590    -0.1250    -0.7860  C.ar    1  <O>11       0.0780
   5 N1        8.7070    -0.6540    -0.7250  N.ar    1  <O>11      -0.1748
   6 N2        9.3790    -0.6280     0.4480  N.ar    1  <O>11      -0.2425
   7 C4        8.7920    -0.0670     1.5310  C.ar    1  <O>11       0.2725
   8 O2        9.5040    -0.1600     2.7420  O.2     1  <O>11      -0.2658
   9 C5        7.5490     0.5820     1.4980  C.ar    1  <O>11       0.0496
  10 C6        6.9610     1.2200     2.6130  C.ar    1  <O>11      -0.0487
  11 C7        5.7040     1.8190     2.5190  C.ar    1  <O>11      -0.0610
  12 C8        5.0100     1.7870     1.3150  C.ar    1  <O>11      -0.0611
  13 C9        5.5710     1.1540     0.2050  C.ar    1  <O>11      -0.0521
  14 C10       6.8470     0.5490     0.2790  C.ar    1  <O>11       0.0108
  15 N3        7.1750    -1.3270    -4.2840  N.am    1  <O>11      -0.3109
  16 C11       8.0290    -2.0580    -5.2160  C.3     1  <O>11       0.0369
  17 C12       8.3572    -3.3909    -4.6466  C.ar    1  <O>11      -0.0289
  18 C13       9.1713    -4.2864    -5.3614  C.ar    1  <O>11      -0.0570
  19 C14       9.4691    -5.5460    -4.8292  C.ar    1  <O>11      -0.0601
  20 C15       8.9623    -5.9210    -3.5824  C.ar    1  <O>11      -0.0434
  21 C16       8.1565    -5.0273    -2.8687  C.ar    1  <O>11       0.0413
  22 Cl1       7.5206    -5.5047    -1.3011  Cl      1  <O>11      -0.0835
  23 C17       7.8553    -3.7674    -3.3898  C.ar    1  <O>11      -0.0387
  24 H1        6.5110     0.6790    -2.4880  H       1  <O>11       0.0423
  25 H2        5.8310    -0.8590    -1.9040  H       1  <O>11       0.0423
  26 H3       10.3060    -1.0240     0.5140  H       1  <O>11       0.1921
  27 H4        6.2450    -1.0260    -4.5740  H       1  <O>11       0.1490
  28 H5        8.9495    -1.4974    -5.3821  H       1  <O>11       0.0512
  29 H6        7.5067    -2.1863    -6.1638  H       1  <O>11       0.0512
  30 H7        7.4690     1.2435     3.5110  H       1  <O>11       0.0625
  31 H8        5.2905     2.2848     3.3418  H       1  <O>11       0.0618
  32 H9        4.0811     2.2308     1.2421  H       1  <O>11       0.0618
  33 H10       5.0466     1.1270    -0.6834  H       1  <O>11       0.0624
  34 H11       9.5506    -4.0141    -6.2817  H       1  <O>11       0.0621
  35 H12      10.0653    -6.2003    -5.3598  H       1  <O>11       0.0618
  36 H13       9.1808    -6.8504    -3.1908  H       1  <O>11       0.0632
  37 H14       7.2647    -3.1137    -2.8523  H       1  <O>11       0.0635
@<TRIPOS>BOND
     1     1     2    2
     2     2     3    1
     3     3     4    1
     4     4     5   ar
     5     5     6   ar
     6     6     7   ar
     7     7     8    2
     8     7     9   ar
     9     9    10   ar
    10    10    11   ar
    11    11    12   ar
    12    12    13   ar
    13    13    14   ar
    14     4    14   ar
    15     9    14   ar
    16     2    15   am
    17    15    16    1
    18    16    17    1
    19    17    18   ar
    20    18    19   ar
    21    19    20   ar
    22    20    21   ar
    23    21    22    1
    24    21    23   ar
    25    17    23   ar
    26     3    24    1
    27     3    25    1
    28     6    26    1
    29    15    27    1
    30    16    28    1
    31    16    29    1
    32    10    30    1
    33    11    31    1
    34    12    32    1
    35    13    33    1
    36    18    34    1
    37    19    35    1
    38    20    36    1
    39    23    37    1
@<TRIPOS>MOLECULE
mol43_1_29
 37 39 0 0 0
SMALL
USER_CHARGES
****
VDW energy = -19.61
@<TRIPOS>ATOM
   1 O1        8.7381    -1.4068    -2.6744  O.2     1  <O>11      -0.2754
   2 C1        7.6234    -1.0459    -3.0216  C.2     1  <O>11       0.2192
   3 C2        6.7510    -0.2990    -2.0700  C.3     1  <O>11       0.0685
   4 C3        6.0363     0.7713    -2.7938  C.ar    1  <O>11       0.0780
   5 N1        6.3003     0.8624    -4.1216  N.ar    1  <O>11      -0.1748
   6 N2        5.7663     1.8807    -4.8330  N.ar    1  <O>11      -0.2425
   7 C4        4.9744     2.7799    -4.2033  C.ar    1  <O>11       0.2725
   8 O2        4.5311     3.8681    -4.9787  O.2     1  <O>11      -0.2658
   9 C5        4.5889     2.6754    -2.8588  C.ar    1  <O>11       0.0496
  10 C6        3.7150     3.5796    -2.2149  C.ar    1  <O>11      -0.0487
  11 C7        3.3988     3.4357    -0.8632  C.ar    1  <O>11      -0.0610
  12 C8        3.9525     2.3927    -0.1298  C.ar    1  <O>11      -0.0611
  13 C9        4.8246     1.4945    -0.7465  C.ar    1  <O>11      -0.0521
  14 C10       5.1500     1.6195    -2.1170  C.ar    1  <O>11       0.0108
  15 N3        7.1750    -1.3270    -4.2840  N.am    1  <O>11      -0.3109
  16 C11       8.0290    -2.0580    -5.2160  C.3     1  <O>11       0.0369
  17 C12       7.3160    -2.2340    -6.5080  C.ar    1  <O>11      -0.0289
  18 C13       7.9350    -2.9110    -7.5730  C.ar    1  <O>11      -0.0570
  19 C14       7.2670    -3.0650    -8.7930  C.ar    1  <O>11      -0.0601
  20 C15       5.9790    -2.5500    -8.9600  C.ar    1  <O>11      -0.0434
  21 C16       5.3610    -1.8810    -7.8980  C.ar    1  <O>11       0.0413
  22 Cl1       3.7410    -1.2340    -8.1140  Cl      1  <O>11      -0.0835
  23 C17       6.0180    -1.7240    -6.6760  C.ar    1  <O>11      -0.0387
  24 H1        6.0274    -0.9835    -1.6265  H       1  <O>11       0.0423
  25 H2        7.3639     0.1414    -1.2839  H       1  <O>11       0.0423
  26 H3        5.9583     1.9688    -5.8209  H       1  <O>11       0.1921
  27 H4        6.2450    -1.0260    -4.5740  H       1  <O>11       0.1490
  28 H5        8.2700    -3.0360    -4.7980  H       1  <O>11       0.0512
  29 H6        8.9490    -1.4980    -5.3820  H       1  <O>11       0.0512
  30 H7        3.3039     4.3587    -2.7525  H       1  <O>11       0.0625
  31 H8        2.7552     4.1023    -0.4090  H       1  <O>11       0.0618
  32 H9        3.7190     2.2827     0.8694  H       1  <O>11       0.0618
  33 H10       5.2383     0.7274    -0.1940  H       1  <O>11       0.0624
  34 H11       8.8853    -3.2958    -7.4548  H       1  <O>11       0.0621
  35 H12       7.7275    -3.5608    -9.5722  H       1  <O>11       0.0618
  36 H13       5.4871    -2.6623    -9.8602  H       1  <O>11       0.0632
  37 H14       5.5506    -1.2339    -5.8973  H       1  <O>11       0.0635
@<TRIPOS>BOND
     1     1     2    2
     2     2     3    1
     3     3     4    1
     4     4     5   ar
     5     5     6   ar
     6     6     7   ar
     7     7     8    2
     8     7     9   ar
     9     9    10   ar
    10    10    11   ar
    11    11    12   ar
    12    12    13   ar
    13    13    14   ar
    14     4    14   ar
    15     9    14   ar
    16     2    15   am
    17    15    16    1
    18    16    17    1
    19    17    18   ar
    20    18    19   ar
    21    19    20   ar
    22    20    21   ar
    23    21    22    1
    24    21    23   ar
    25    17    23   ar
    26     3    24    1
    27     3    25    1
    28     6    26    1
    29    15    27    1
    30    16    28    1
    31    16    29    1
    32    10    30    1
    33    11    31    1
    34    12    32    1
    35    13    33    1
    36    18    34    1
    37    19    35    1
    38    20    36    1
    39    23    37    1
@<TRIPOS>MOLECULE
mol43_1_30
 37 39 0 0 0
SMALL
USER_CHARGES
****
VDW energy = -15.19
@<TRIPOS>ATOM
   1 O1        8.7381    -1.4068    -2.6744  O.2     1  <O>11      -0.2754
   2 C1        7.6234    -1.0459    -3.0216  C.2     1  <O>11       0.2192
   3 C2        6.7510    -0.2990    -2.0700  C.3     1  <O>11       0.0685
   4 C3        5.3571    -0.7653    -2.2104  C.ar    1  <O>11       0.0780
   5 N1        5.1512    -1.7371    -3.1348  N.ar    1  <O>11      -0.1748
   6 N2        3.8884    -2.1431    -3.3964  N.ar    1  <O>11      -0.2425
   7 C4        2.8609    -1.5748    -2.7230  C.ar    1  <O>11       0.2725
   8 O2        1.5674    -1.9719    -3.1119  O.2     1  <O>11      -0.2658
   9 C5        3.0253    -0.6414    -1.6890  C.ar    1  <O>11       0.0496
  10 C6        1.9581    -0.0912    -0.9444  C.ar    1  <O>11      -0.0487
  11 C7        2.1901     0.8598     0.0504  C.ar    1  <O>11      -0.0610
  12 C8        3.4876     1.2823     0.3154  C.ar    1  <O>11      -0.0611
  13 C9        4.5537     0.7563    -0.4155  C.ar    1  <O>11      -0.0521
  14 C10       4.3389    -0.2141    -1.4214  C.ar    1  <O>11       0.0108
  15 N3        7.1750    -1.3270    -4.2840  N.am    1  <O>11      -0.3109
  16 C11       8.0290    -2.0580    -5.2160  C.3     1  <O>11       0.0369
  17 C12       8.3572    -3.3909    -4.6466  C.ar    1  <O>11      -0.0289
  18 C13       9.1713    -4.2864    -5.3614  C.ar    1  <O>11      -0.0570
  19 C14       9.4691    -5.5460    -4.8292  C.ar    1  <O>11      -0.0601
  20 C15       8.9623    -5.9210    -3.5824  C.ar    1  <O>11      -0.0434
  21 C16       8.1565    -5.0273    -2.8687  C.ar    1  <O>11       0.0413
  22 Cl1       7.5206    -5.5047    -1.3011  Cl      1  <O>11      -0.0835
  23 C17       7.8553    -3.7674    -3.3898  C.ar    1  <O>11      -0.0387
  24 H1        7.0920    -0.4752    -1.0495  H       1  <O>11       0.0423
  25 H2        6.8009     0.7669    -2.2910  H       1  <O>11       0.0423
  26 H3        3.7155    -2.8600    -4.0869  H       1  <O>11       0.1921
  27 H4        6.2450    -1.0260    -4.5740  H       1  <O>11       0.1490
  28 H5        8.9495    -1.4974    -5.3821  H       1  <O>11       0.0512
  29 H6        7.5067    -2.1863    -6.1638  H       1  <O>11       0.0512
  30 H7        0.9920    -0.3972    -1.1392  H       1  <O>11       0.0625
  31 H8        1.3998     1.2486     0.5882  H       1  <O>11       0.0618
  32 H9        3.6622     1.9840     1.0518  H       1  <O>11       0.0618
  33 H10       5.5135     1.0805    -0.2189  H       1  <O>11       0.0624
  34 H11       9.5506    -4.0141    -6.2817  H       1  <O>11       0.0621
  35 H12      10.0653    -6.2003    -5.3598  H       1  <O>11       0.0618
  36 H13       9.1808    -6.8504    -3.1908  H       1  <O>11       0.0632
  37 H14       7.2647    -3.1137    -2.8523  H       1  <O>11       0.0635
@<TRIPOS>BOND
     1     1     2    2
     2     2     3    1
     3     3     4    1
     4     4     5   ar
     5     5     6   ar
     6     6     7   ar
     7     7     8    2
     8     7     9   ar
     9     9    10   ar
    10    10    11   ar
    11    11    12   ar
    12    12    13   ar
    13    13    14   ar
    14     4    14   ar
    15     9    14   ar
    16     2    15   am
    17    15    16    1
    18    16    17    1
    19    17    18   ar
    20    18    19   ar
    21    19    20   ar
    22    20    21   ar
    23    21    22    1
    24    21    23   ar
    25    17    23   ar
    26     3    24    1
    27     3    25    1
    28     6    26    1
    29    15    27    1
    30    16    28    1
    31    16    29    1
    32    10    30    1
    33    11    31    1
    34    12    32    1
    35    13    33    1
    36    18    34    1
    37    19    35    1
    38    20    36    1
    39    23    37    1
