@<TRIPOS>MOLECULE
mol49_1_1
 34 35 0 0 0
SMALL
USER_CHARGES
****
VDW energy = 98.92
@<TRIPOS>ATOM
   1 O1        3.4420    -9.1855    -5.2979  O.2     1  <O>11      -0.2451
   2 C1        2.8552    -9.8129    -4.4288  C.2     1  <O>11       0.3370
   3 O2        3.5096   -10.1823    -3.3012  O.3     1  <O>11      -0.4771
   4 C2        1.4620   -10.1610    -4.6040  C.ar    1  <O>11       0.0640
   5 C3        1.0413   -10.7122    -5.8159  C.ar    1  <O>11      -0.0061
   6 C4       -0.3073   -11.0396    -5.9959  C.ar    1  <O>11       0.1194
   7 O3       -0.6994   -11.5476    -7.1202  O.3     1  <O>11      -0.5067
   8 C5       -1.2283   -10.8203    -4.9684  C.ar    1  <O>11       0.0007
   9 C6       -0.7901   -10.2722    -3.7570  C.ar    1  <O>11       0.0316
  10 N1       -1.7439   -10.0493    -2.7005  N.pl3   1  <O>11      -0.3396
  11 C7       -1.2915    -9.9692    -1.3141  C.3     1  <O>11       0.0344
  12 C8       -0.8004   -11.3017    -0.8764  C.ar    1  <O>11      -0.0283
  13 C9       -1.7119   -12.2978    -0.4830  C.ar    1  <O>11      -0.0569
  14 C10      -1.2479   -13.5479    -0.0579  C.ar    1  <O>11      -0.0593
  15 C11       0.1227   -13.8165    -0.0257  C.ar    1  <O>11      -0.0316
  16 C12       1.0278   -12.8264    -0.4249  C.ar    1  <O>11       0.1219
  17 N2        2.4407   -13.1086    -0.3909  N.4     1  <O>11       0.0060
  18 O4        2.9967   -12.6390     0.8616  O.2     1  <O>11      -0.1300
  19 O5        3.0959   -12.4326    -1.4952  O.2     1  <O>11      -0.3961
  20 C13       0.5768   -11.5775    -0.8503  C.ar    1  <O>11      -0.0270
  21 C14       0.5522    -9.9446    -3.5668  C.ar    1  <O>11      -0.0266
  22 H1        2.9041   -10.6687    -2.7201  H       1  <O>11       0.2954
  23 H2       -1.6549   -11.7161    -7.0829  H       1  <O>11       0.2921
  24 H3       -2.7348    -9.9467    -2.9197  H       1  <O>11       0.1464
  25 H4       -2.1222    -9.6612    -0.6789  H       1  <O>11       0.0511
  26 H5       -0.4851    -9.2400    -1.2364  H       1  <O>11       0.0511
  27 H6        1.7211   -10.8772    -6.5746  H       1  <O>11       0.0662
  28 H7       -2.2232   -11.0602    -5.1013  H       1  <O>11       0.0672
  29 H8       -2.7257   -12.1063    -0.5078  H       1  <O>11       0.0621
  30 H9       -1.9209   -14.2741     0.2328  H       1  <O>11       0.0618
  31 H10       0.4650   -14.7375     0.2899  H       1  <O>11       0.0640
  32 H11       2.8474   -12.6273    -2.3774  H       1  <O>11       0.3292
  33 H12       1.2537   -10.8567    -1.1456  H       1  <O>11       0.0643
  34 H13       0.8697    -9.5466    -2.6691  H       1  <O>11       0.0644
@<TRIPOS>BOND
     1     1     2    2
     2     2     3    1
     3     2     4    1
     4     4     5   ar
     5     5     6   ar
     6     6     7    1
     7     6     8   ar
     8     8     9   ar
     9     9    10    1
    10    10    11    1
    11    11    12    1
    12    12    13   ar
    13    13    14   ar
    14    14    15   ar
    15    15    16   ar
    16    16    17    1
    17    17    18    2
    18    17    19    1
    19    16    20   ar
    20    12    20   ar
    21     9    21   ar
    22     4    21   ar
    23     3    22    1
    24     7    23    1
    25    10    24    1
    26    11    25    1
    27    11    26    1
    28     5    27    1
    29     8    28    1
    30    13    29    1
    31    14    30    1
    32    15    31    1
    33    19    32    1
    34    20    33    1
    35    21    34    1
@<TRIPOS>MOLECULE
mol49_1_2
 34 35 0 0 0
SMALL
USER_CHARGES
****
VDW energy = 102.85
@<TRIPOS>ATOM
   1 O1        3.4420    -9.1855    -5.2979  O.2     1  <O>11      -0.2451
   2 C1        2.8552    -9.8129    -4.4288  C.2     1  <O>11       0.3370
   3 O2        3.5096   -10.1823    -3.3012  O.3     1  <O>11      -0.4771
   4 C2        1.4620   -10.1610    -4.6040  C.ar    1  <O>11       0.0640
   5 C3        1.0134   -11.4175    -4.1926  C.ar    1  <O>11      -0.0061
   6 C4       -0.3305   -11.7649    -4.3706  C.ar    1  <O>11       0.1194
   7 O3       -0.7471   -12.9308    -3.9927  O.3     1  <O>11      -0.5067
   8 C5       -1.2205   -10.8590    -4.9532  C.ar    1  <O>11       0.0007
   9 C6       -0.7568    -9.6008    -5.3553  C.ar    1  <O>11       0.0316
  10 N1       -1.6793    -8.6703    -5.9544  N.pl3   1  <O>11      -0.3396
  11 C7       -2.2799    -8.9711    -7.2513  C.3     1  <O>11       0.0344
  12 C8       -1.2307    -8.9335    -8.3029  C.ar    1  <O>11      -0.0283
  13 C9       -0.7996    -7.7026    -8.8291  C.ar    1  <O>11      -0.0569
  14 C10       0.1789    -7.6689    -9.8291  C.ar    1  <O>11      -0.0593
  15 C11       0.7372    -8.8565   -10.3083  C.ar    1  <O>11      -0.0316
  16 C12       0.3124   -10.0800    -9.7779  C.ar    1  <O>11       0.1219
  17 N2        0.8920   -11.3024   -10.2746  N.4     1  <O>11       0.0060
  18 O4        2.2520   -11.0514   -10.7057  O.2     1  <O>11      -0.1300
  19 O5        0.1103   -11.7879   -11.3965  O.2     1  <O>11      -0.3961
  20 C13      -0.6618   -10.1255    -8.7813  C.ar    1  <O>11      -0.0270
  21 C14       0.5801    -9.2441    -5.1802  C.ar    1  <O>11      -0.0266
  22 H1        2.9041   -10.6687    -2.7201  H       1  <O>11       0.2954
  23 H2       -1.6953   -13.0131    -4.1849  H       1  <O>11       0.2921
  24 H3       -1.9139    -7.8018    -5.4735  H       1  <O>11       0.1464
  25 H4       -3.0470    -8.2297    -7.4762  H       1  <O>11       0.0511
  26 H5       -2.7311    -9.9628    -7.2217  H       1  <O>11       0.0511
  27 H6        1.6693   -12.0865    -3.7596  H       1  <O>11       0.0662
  28 H7       -2.2113   -11.1153    -5.0861  H       1  <O>11       0.0672
  29 H8       -1.2060    -6.8218    -8.4768  H       1  <O>11       0.0621
  30 H9        0.4892    -6.7631   -10.2141  H       1  <O>11       0.0618
  31 H10       1.4571    -8.8318   -11.0473  H       1  <O>11       0.0640
  32 H11      -0.7955   -11.9977   -11.2805  H       1  <O>11       0.3292
  33 H12      -0.9643   -11.0336    -8.3955  H       1  <O>11       0.0643
  34 H13       0.9141    -8.3127    -5.4733  H       1  <O>11       0.0644
@<TRIPOS>BOND
     1     1     2    2
     2     2     3    1
     3     2     4    1
     4     4     5   ar
     5     5     6   ar
     6     6     7    1
     7     6     8   ar
     8     8     9   ar
     9     9    10    1
    10    10    11    1
    11    11    12    1
    12    12    13   ar
    13    13    14   ar
    14    14    15   ar
    15    15    16   ar
    16    16    17    1
    17    17    18    2
    18    17    19    1
    19    16    20   ar
    20    12    20   ar
    21     9    21   ar
    22     4    21   ar
    23     3    22    1
    24     7    23    1
    25    10    24    1
    26    11    25    1
    27    11    26    1
    28     5    27    1
    29     8    28    1
    30    13    29    1
    31    14    30    1
    32    15    31    1
    33    19    32    1
    34    20    33    1
    35    21    34    1
@<TRIPOS>MOLECULE
mol49_1_3
 34 35 0 0 0
SMALL
USER_CHARGES
****
VDW energy = 103.70
@<TRIPOS>ATOM
   1 O1        3.4420    -9.1855    -5.2979  O.2     1  <O>11      -0.2451
   2 C1        2.8552    -9.8129    -4.4288  C.2     1  <O>11       0.3370
   3 O2        3.5096   -10.1823    -3.3012  O.3     1  <O>11      -0.4771
   4 C2        1.4620   -10.1610    -4.6040  C.ar    1  <O>11       0.0640
   5 C3        1.0134   -11.4175    -4.1926  C.ar    1  <O>11      -0.0061
   6 C4       -0.3305   -11.7649    -4.3706  C.ar    1  <O>11       0.1194
   7 O3       -0.7471   -12.9308    -3.9927  O.3     1  <O>11      -0.5067
   8 C5       -1.2205   -10.8590    -4.9532  C.ar    1  <O>11       0.0007
   9 C6       -0.7568    -9.6008    -5.3553  C.ar    1  <O>11       0.0316
  10 N1       -1.6793    -8.6703    -5.9544  N.pl3   1  <O>11      -0.3396
  11 C7       -2.2799    -8.9711    -7.2513  C.3     1  <O>11       0.0344
  12 C8       -1.2307    -8.9335    -8.3029  C.ar    1  <O>11      -0.0283
  13 C9       -0.5141   -10.0985    -8.6299  C.ar    1  <O>11      -0.0569
  14 C10       0.4833   -10.0591    -9.6109  C.ar    1  <O>11      -0.0593
  15 C11       0.7709    -8.8641   -10.2750  C.ar    1  <O>11      -0.0316
  16 C12       0.0514    -7.7075    -9.9535  C.ar    1  <O>11       0.1219
  17 N2        0.3509    -6.4773   -10.6421  N.4     1  <O>11       0.0060
  18 O4        1.2933    -5.7036    -9.8600  O.2     1  <O>11      -0.1300
  19 O5       -0.8700    -5.7142   -10.8227  O.2     1  <O>11      -0.3961
  20 C13      -0.9445    -7.7352    -8.9779  C.ar    1  <O>11      -0.0270
  21 C14       0.5801    -9.2441    -5.1802  C.ar    1  <O>11      -0.0266
  22 H1        2.9041   -10.6687    -2.7201  H       1  <O>11       0.2954
  23 H2       -1.6953   -13.0131    -4.1849  H       1  <O>11       0.2921
  24 H3       -1.9139    -7.8018    -5.4735  H       1  <O>11       0.1464
  25 H4       -3.0470    -8.2297    -7.4762  H       1  <O>11       0.0511
  26 H5       -2.7311    -9.9628    -7.2217  H       1  <O>11       0.0511
  27 H6        1.6693   -12.0865    -3.7596  H       1  <O>11       0.0662
  28 H7       -2.2113   -11.1153    -5.0861  H       1  <O>11       0.0672
  29 H8       -0.7243   -10.9850    -8.1450  H       1  <O>11       0.0621
  30 H9        1.0084   -10.9161    -9.8445  H       1  <O>11       0.0618
  31 H10       1.5079    -8.8344   -10.9967  H       1  <O>11       0.0640
  32 H11      -1.5825    -6.0786   -11.3100  H       1  <O>11       0.3292
  33 H12      -1.4707    -6.8766    -8.7521  H       1  <O>11       0.0643
  34 H13       0.9141    -8.3127    -5.4733  H       1  <O>11       0.0644
@<TRIPOS>BOND
     1     1     2    2
     2     2     3    1
     3     2     4    1
     4     4     5   ar
     5     5     6   ar
     6     6     7    1
     7     6     8   ar
     8     8     9   ar
     9     9    10    1
    10    10    11    1
    11    11    12    1
    12    12    13   ar
    13    13    14   ar
    14    14    15   ar
    15    15    16   ar
    16    16    17    1
    17    17    18    2
    18    17    19    1
    19    16    20   ar
    20    12    20   ar
    21     9    21   ar
    22     4    21   ar
    23     3    22    1
    24     7    23    1
    25    10    24    1
    26    11    25    1
    27    11    26    1
    28     5    27    1
    29     8    28    1
    30    13    29    1
    31    14    30    1
    32    15    31    1
    33    19    32    1
    34    20    33    1
    35    21    34    1
@<TRIPOS>MOLECULE
mol49_1_4
 34 35 0 0 0
SMALL
USER_CHARGES
****
VDW energy = 103.77
@<TRIPOS>ATOM
   1 O1        3.4420    -9.1855    -5.2979  O.2     1  <O>11      -0.2451
   2 C1        2.8552    -9.8129    -4.4288  C.2     1  <O>11       0.3370
   3 O2        3.5096   -10.1823    -3.3012  O.3     1  <O>11      -0.4771
   4 C2        1.4620   -10.1610    -4.6040  C.ar    1  <O>11       0.0640
   5 C3        1.0134   -11.4175    -4.1926  C.ar    1  <O>11      -0.0061
   6 C4       -0.3305   -11.7649    -4.3706  C.ar    1  <O>11       0.1194
   7 O3       -0.7471   -12.9308    -3.9927  O.3     1  <O>11      -0.5067
   8 C5       -1.2205   -10.8590    -4.9532  C.ar    1  <O>11       0.0007
   9 C6       -0.7568    -9.6008    -5.3553  C.ar    1  <O>11       0.0316
  10 N1       -1.6793    -8.6703    -5.9544  N.pl3   1  <O>11      -0.3396
  11 C7       -2.4192    -7.7329    -5.1136  C.3     1  <O>11       0.0344
  12 C8       -3.3909    -8.4816    -4.2749  C.ar    1  <O>11      -0.0283
  13 C9       -4.6168    -8.9047    -4.8188  C.ar    1  <O>11      -0.0569
  14 C10      -5.5372    -9.5979    -4.0244  C.ar    1  <O>11      -0.0593
  15 C11      -5.2430    -9.8784    -2.6878  C.ar    1  <O>11      -0.0316
  16 C12      -4.0192    -9.4632    -2.1505  C.ar    1  <O>11       0.1219
  17 N2       -3.7196    -9.7557    -0.7715  N.4     1  <O>11       0.0060
  18 O4       -4.0837    -8.6214     0.0526  O.2     1  <O>11      -0.1300
  19 O5       -2.3001   -10.0211    -0.6303  O.2     1  <O>11      -0.3961
  20 C13      -3.0947    -8.7719    -2.9328  C.ar    1  <O>11      -0.0270
  21 C14       0.5801    -9.2441    -5.1802  C.ar    1  <O>11      -0.0266
  22 H1        2.9041   -10.6687    -2.7201  H       1  <O>11       0.2954
  23 H2       -1.6953   -13.0131    -4.1849  H       1  <O>11       0.2921
  24 H3       -1.8157    -8.6649    -6.9653  H       1  <O>11       0.1464
  25 H4       -2.9547    -7.0240    -5.7455  H       1  <O>11       0.0511
  26 H5       -1.7233    -7.1932    -4.4714  H       1  <O>11       0.0511
  27 H6        1.6693   -12.0865    -3.7596  H       1  <O>11       0.0662
  28 H7       -2.2113   -11.1153    -5.0861  H       1  <O>11       0.0672
  29 H8       -4.8384    -8.7033    -5.8065  H       1  <O>11       0.0621
  30 H9       -6.4367    -9.9032    -4.4276  H       1  <O>11       0.0618
  31 H10      -5.9225   -10.3876    -2.1014  H       1  <O>11       0.0640
  32 H11      -1.9065   -10.7283    -1.1023  H       1  <O>11       0.3292
  33 H12      -2.1941    -8.4741    -2.5263  H       1  <O>11       0.0643
  34 H13       0.9141    -8.3127    -5.4733  H       1  <O>11       0.0644
@<TRIPOS>BOND
     1     1     2    2
     2     2     3    1
     3     2     4    1
     4     4     5   ar
     5     5     6   ar
     6     6     7    1
     7     6     8   ar
     8     8     9   ar
     9     9    10    1
    10    10    11    1
    11    11    12    1
    12    12    13   ar
    13    13    14   ar
    14    14    15   ar
    15    15    16   ar
    16    16    17    1
    17    17    18    2
    18    17    19    1
    19    16    20   ar
    20    12    20   ar
    21     9    21   ar
    22     4    21   ar
    23     3    22    1
    24     7    23    1
    25    10    24    1
    26    11    25    1
    27    11    26    1
    28     5    27    1
    29     8    28    1
    30    13    29    1
    31    14    30    1
    32    15    31    1
    33    19    32    1
    34    20    33    1
    35    21    34    1
@<TRIPOS>MOLECULE
mol49_1_5
 34 35 0 0 0
SMALL
USER_CHARGES
****
VDW energy = 106.68
@<TRIPOS>ATOM
   1 O1        3.4420    -9.1855    -5.2979  O.2     1  <O>11      -0.2451
   2 C1        2.8552    -9.8129    -4.4288  C.2     1  <O>11       0.3370
   3 O2        3.5096   -10.1823    -3.3012  O.3     1  <O>11      -0.4771
   4 C2        1.4620   -10.1610    -4.6040  C.ar    1  <O>11       0.0640
   5 C3        1.0413   -10.7122    -5.8159  C.ar    1  <O>11      -0.0061
   6 C4       -0.3073   -11.0396    -5.9959  C.ar    1  <O>11       0.1194
   7 O3       -0.6994   -11.5476    -7.1202  O.3     1  <O>11      -0.5067
   8 C5       -1.2283   -10.8203    -4.9684  C.ar    1  <O>11       0.0007
   9 C6       -0.7901   -10.2722    -3.7570  C.ar    1  <O>11       0.0316
  10 N1       -1.7439   -10.0493    -2.7005  N.pl3   1  <O>11      -0.3396
  11 C7       -2.4490    -8.7734    -2.6114  C.3     1  <O>11       0.0344
  12 C8       -1.4854    -7.6998    -2.2546  C.ar    1  <O>11      -0.0283
  13 C9       -1.0802    -7.5275    -0.9190  C.ar    1  <O>11      -0.0569
  14 C10      -0.1832    -6.5075    -0.5819  C.ar    1  <O>11      -0.0593
  15 C11       0.3192    -5.6567    -1.5696  C.ar    1  <O>11      -0.0316
  16 C12      -0.0794    -5.8347    -2.8994  C.ar    1  <O>11       0.1219
  17 N2        0.4424    -4.9553    -3.9150  N.4     1  <O>11       0.0060
  18 O4       -0.4871    -3.8660    -4.1342  O.2     1  <O>11      -0.1300
  19 O5        0.6215    -5.6951    -5.1503  O.2     1  <O>11      -0.3961
  20 C13      -0.9725    -6.8477    -3.2467  C.ar    1  <O>11      -0.0270
  21 C14       0.5522    -9.9446    -3.5668  C.ar    1  <O>11      -0.0266
  22 H1        2.9041   -10.6687    -2.7201  H       1  <O>11       0.2954
  23 H2       -1.6549   -11.7161    -7.0829  H       1  <O>11       0.2921
  24 H3       -1.9279   -10.7819    -2.0150  H       1  <O>11       0.1464
  25 H4       -3.2210    -8.8386    -1.8444  H       1  <O>11       0.0511
  26 H5       -2.9100    -8.5449    -3.5722  H       1  <O>11       0.0511
  27 H6        1.7211   -10.8772    -6.5746  H       1  <O>11       0.0662
  28 H7       -2.2232   -11.0602    -5.1013  H       1  <O>11       0.0672
  29 H8       -1.4453    -8.1549    -0.1855  H       1  <O>11       0.0621
  30 H9        0.1083    -6.3834     0.4002  H       1  <O>11       0.0618
  31 H10       0.9789    -4.9032    -1.3208  H       1  <O>11       0.0640
  32 H11       1.1962    -6.4346    -5.1744  H       1  <O>11       0.3292
  33 H12      -1.2563    -6.9712    -4.2312  H       1  <O>11       0.0643
  34 H13       0.8697    -9.5466    -2.6691  H       1  <O>11       0.0644
@<TRIPOS>BOND
     1     1     2    2
     2     2     3    1
     3     2     4    1
     4     4     5   ar
     5     5     6   ar
     6     6     7    1
     7     6     8   ar
     8     8     9   ar
     9     9    10    1
    10    10    11    1
    11    11    12    1
    12    12    13   ar
    13    13    14   ar
    14    14    15   ar
    15    15    16   ar
    16    16    17    1
    17    17    18    2
    18    17    19    1
    19    16    20   ar
    20    12    20   ar
    21     9    21   ar
    22     4    21   ar
    23     3    22    1
    24     7    23    1
    25    10    24    1
    26    11    25    1
    27    11    26    1
    28     5    27    1
    29     8    28    1
    30    13    29    1
    31    14    30    1
    32    15    31    1
    33    19    32    1
    34    20    33    1
    35    21    34    1
@<TRIPOS>MOLECULE
mol49_1_6
 34 35 0 0 0
SMALL
USER_CHARGES
****
VDW energy = 106.99
@<TRIPOS>ATOM
   1 O1        3.4420    -9.1855    -5.2979  O.2     1  <O>11      -0.2451
   2 C1        2.8552    -9.8129    -4.4288  C.2     1  <O>11       0.3370
   3 O2        3.5096   -10.1823    -3.3012  O.3     1  <O>11      -0.4771
   4 C2        1.4620   -10.1610    -4.6040  C.ar    1  <O>11       0.0640
   5 C3        0.4750    -9.2817    -4.1546  C.ar    1  <O>11      -0.0061
   6 C4       -0.8745    -9.6183    -4.3101  C.ar    1  <O>11       0.1194
   7 O3       -1.7906    -8.8055    -3.8909  O.3     1  <O>11      -0.5067
   8 C5       -1.2337   -10.8255    -4.9148  C.ar    1  <O>11       0.0007
   9 C6       -0.2326   -11.6941    -5.3653  C.ar    1  <O>11       0.0316
  10 N1       -0.6088   -12.9371    -5.9892  N.pl3   1  <O>11      -0.3396
  11 C7        0.3198   -13.6098    -6.8938  C.3     1  <O>11       0.0344
  12 C8       -0.3020   -14.8609    -7.4000  C.ar    1  <O>11      -0.0283
  13 C9       -1.0679   -14.8438    -8.5793  C.ar    1  <O>11      -0.0569
  14 C10      -1.6644   -16.0199    -9.0480  C.ar    1  <O>11      -0.0593
  15 C11      -1.4996   -17.2193    -8.3507  C.ar    1  <O>11      -0.0316
  16 C12      -0.7307   -17.2357    -7.1815  C.ar    1  <O>11       0.1219
  17 N2       -0.5627   -18.4755    -6.4661  N.4     1  <O>11       0.0060
  18 O4       -1.5550   -18.5642    -5.4145  O.2     1  <O>11      -0.1300
  19 O5        0.7656   -18.5222    -5.8838  O.2     1  <O>11      -0.3961
  20 C13      -0.1317   -16.0700    -6.7053  C.ar    1  <O>11      -0.0270
  21 C14       1.1151   -11.3668    -5.2172  C.ar    1  <O>11      -0.0266
  22 H1        2.9041   -10.6687    -2.7201  H       1  <O>11       0.2954
  23 H2       -2.6661    -9.1840    -4.0725  H       1  <O>11       0.2921
  24 H3       -1.5228   -13.3482    -5.7993  H       1  <O>11       0.1464
  25 H4        1.2377   -13.8511    -6.3573  H       1  <O>11       0.0511
  26 H5        0.5512   -12.9526    -7.7320  H       1  <O>11       0.0511
  27 H6        0.7391    -8.3884    -3.7103  H       1  <O>11       0.0662
  28 H7       -2.2287   -11.0748    -5.0282  H       1  <O>11       0.0672
  29 H8       -1.1904   -13.9616    -9.1006  H       1  <O>11       0.0621
  30 H9       -2.2282   -16.0011    -9.9121  H       1  <O>11       0.0618
  31 H10      -1.9413   -18.0860    -8.6950  H       1  <O>11       0.0640
  32 H11       1.5211   -18.4753    -6.4360  H       1  <O>11       0.3292
  33 H12       0.4359   -16.0954    -5.8439  H       1  <O>11       0.0643
  34 H13       1.8481   -12.0089    -5.5570  H       1  <O>11       0.0644
@<TRIPOS>BOND
     1     1     2    2
     2     2     3    1
     3     2     4    1
     4     4     5   ar
     5     5     6   ar
     6     6     7    1
     7     6     8   ar
     8     8     9   ar
     9     9    10    1
    10    10    11    1
    11    11    12    1
    12    12    13   ar
    13    13    14   ar
    14    14    15   ar
    15    15    16   ar
    16    16    17    1
    17    17    18    2
    18    17    19    1
    19    16    20   ar
    20    12    20   ar
    21     9    21   ar
    22     4    21   ar
    23     3    22    1
    24     7    23    1
    25    10    24    1
    26    11    25    1
    27    11    26    1
    28     5    27    1
    29     8    28    1
    30    13    29    1
    31    14    30    1
    32    15    31    1
    33    19    32    1
    34    20    33    1
    35    21    34    1
@<TRIPOS>MOLECULE
mol49_1_7
 34 35 0 0 0
SMALL
USER_CHARGES
****
VDW energy = 107.10
@<TRIPOS>ATOM
   1 O1        3.4420    -9.1855    -5.2979  O.2     1  <O>11      -0.2451
   2 C1        2.8552    -9.8129    -4.4288  C.2     1  <O>11       0.3370
   3 O2        3.5096   -10.1823    -3.3012  O.3     1  <O>11      -0.4771
   4 C2        1.4620   -10.1610    -4.6040  C.ar    1  <O>11       0.0640
   5 C3        1.0134   -11.4175    -4.1926  C.ar    1  <O>11      -0.0061
   6 C4       -0.3305   -11.7649    -4.3706  C.ar    1  <O>11       0.1194
   7 O3       -0.7471   -12.9308    -3.9927  O.3     1  <O>11      -0.5067
   8 C5       -1.2205   -10.8590    -4.9532  C.ar    1  <O>11       0.0007
   9 C6       -0.7568    -9.6008    -5.3553  C.ar    1  <O>11       0.0316
  10 N1       -1.6793    -8.6703    -5.9544  N.pl3   1  <O>11      -0.3396
  11 C7       -2.7776    -8.1206    -5.1640  C.3     1  <O>11       0.0344
  12 C8       -2.2274    -7.2655    -4.0803  C.ar    1  <O>11      -0.0283
  13 C9       -1.7225    -7.8499    -2.9050  C.ar    1  <O>11      -0.0569
  14 C10      -1.2170    -7.0431    -1.8792  C.ar    1  <O>11      -0.0593
  15 C11      -1.2062    -5.6529    -2.0171  C.ar    1  <O>11      -0.0316
  16 C12      -1.7022    -5.0738    -3.1907  C.ar    1  <O>11       0.1219
  17 N2       -1.6880    -3.6393    -3.3290  N.4     1  <O>11       0.0060
  18 O4       -2.9701    -3.1024    -2.9211  O.2     1  <O>11      -0.1300
  19 O5       -1.4348    -3.2890    -4.7141  O.2     1  <O>11      -0.3961
  20 C13      -2.2081    -5.8678    -4.2193  C.ar    1  <O>11      -0.0270
  21 C14       0.5801    -9.2441    -5.1802  C.ar    1  <O>11      -0.0266
  22 H1        2.9041   -10.6687    -2.7201  H       1  <O>11       0.2954
  23 H2       -1.6953   -13.0131    -4.1849  H       1  <O>11       0.2921
  24 H3       -1.5658    -8.3943    -6.9298  H       1  <O>11       0.1464
  25 H4       -3.3532    -8.9366    -4.7266  H       1  <O>11       0.0511
  26 H5       -3.4246    -7.5235    -5.8065  H       1  <O>11       0.0511
  27 H6        1.6693   -12.0865    -3.7596  H       1  <O>11       0.0662
  28 H7       -2.2113   -11.1153    -5.0861  H       1  <O>11       0.0672
  29 H8       -1.7247    -8.8764    -2.7987  H       1  <O>11       0.0621
  30 H9       -0.8507    -7.4769    -1.0174  H       1  <O>11       0.0618
  31 H10      -0.8356    -5.0579    -1.2598  H       1  <O>11       0.0640
  32 H11      -0.6413    -3.5642    -5.1294  H       1  <O>11       0.3292
  33 H12      -2.5677    -5.4293    -5.0814  H       1  <O>11       0.0643
  34 H13       0.9141    -8.3127    -5.4733  H       1  <O>11       0.0644
@<TRIPOS>BOND
     1     1     2    2
     2     2     3    1
     3     2     4    1
     4     4     5   ar
     5     5     6   ar
     6     6     7    1
     7     6     8   ar
     8     8     9   ar
     9     9    10    1
    10    10    11    1
    11    11    12    1
    12    12    13   ar
    13    13    14   ar
    14    14    15   ar
    15    15    16   ar
    16    16    17    1
    17    17    18    2
    18    17    19    1
    19    16    20   ar
    20    12    20   ar
    21     9    21   ar
    22     4    21   ar
    23     3    22    1
    24     7    23    1
    25    10    24    1
    26    11    25    1
    27    11    26    1
    28     5    27    1
    29     8    28    1
    30    13    29    1
    31    14    30    1
    32    15    31    1
    33    19    32    1
    34    20    33    1
    35    21    34    1
@<TRIPOS>MOLECULE
mol49_1_8
 34 35 0 0 0
SMALL
USER_CHARGES
****
VDW energy = 107.13
@<TRIPOS>ATOM
   1 O1        3.4420    -9.1855    -5.2979  O.2     1  <O>11      -0.2451
   2 C1        2.8552    -9.8129    -4.4288  C.2     1  <O>11       0.3370
   3 O2        3.5096   -10.1823    -3.3012  O.3     1  <O>11      -0.4771
   4 C2        1.4620   -10.1610    -4.6040  C.ar    1  <O>11       0.0640
   5 C3        0.4750    -9.2817    -4.1546  C.ar    1  <O>11      -0.0061
   6 C4       -0.8745    -9.6183    -4.3101  C.ar    1  <O>11       0.1194
   7 O3       -1.7906    -8.8055    -3.8909  O.3     1  <O>11      -0.5067
   8 C5       -1.2337   -10.8255    -4.9148  C.ar    1  <O>11       0.0007
   9 C6       -0.2326   -11.6941    -5.3653  C.ar    1  <O>11       0.0316
  10 N1       -0.6088   -12.9371    -5.9892  N.pl3   1  <O>11      -0.3396
  11 C7       -1.3119   -12.9274    -7.2693  C.3     1  <O>11       0.0344
  12 C8       -0.4162   -12.3800    -8.3213  C.ar    1  <O>11      -0.0283
  13 C9       -0.2406   -10.9905    -8.4487  C.ar    1  <O>11      -0.0569
  14 C10       0.5924   -10.4754    -9.4484  C.ar    1  <O>11      -0.0593
  15 C11       1.2586   -11.3372   -10.3232  C.ar    1  <O>11      -0.0316
  16 C12       1.0885   -12.7200   -10.1898  C.ar    1  <O>11       0.1219
  17 N2        1.7785   -13.6051   -11.0939  N.4     1  <O>11       0.0060
  18 O4        1.3479   -14.9679   -10.8577  O.2     1  <O>11      -0.1300
  19 O5        3.2090   -13.5041   -10.8725  O.2     1  <O>11      -0.3961
  20 C13       0.2610   -13.2443    -9.1975  C.ar    1  <O>11      -0.0270
  21 C14       1.1151   -11.3668    -5.2172  C.ar    1  <O>11      -0.0266
  22 H1        2.9041   -10.6687    -2.7201  H       1  <O>11       0.2954
  23 H2       -2.6661    -9.1840    -4.0725  H       1  <O>11       0.2921
  24 H3       -0.3841   -13.8240    -5.5382  H       1  <O>11       0.1464
  25 H4       -2.2023   -12.3035    -7.1892  H       1  <O>11       0.0511
  26 H5       -1.6033   -13.9443    -7.5317  H       1  <O>11       0.0511
  27 H6        0.7391    -8.3884    -3.7103  H       1  <O>11       0.0662
  28 H7       -2.2287   -11.0748    -5.0282  H       1  <O>11       0.0672
  29 H8       -0.7274   -10.3490    -7.8033  H       1  <O>11       0.0621
  30 H9        0.7152    -9.4548    -9.5396  H       1  <O>11       0.0618
  31 H10       1.8710   -10.9573   -11.0617  H       1  <O>11       0.0640
  32 H11       3.6436   -12.6817   -10.9853  H       1  <O>11       0.3292
  33 H12       0.1463   -14.2659    -9.1068  H       1  <O>11       0.0643
  34 H13       1.8481   -12.0089    -5.5570  H       1  <O>11       0.0644
@<TRIPOS>BOND
     1     1     2    2
     2     2     3    1
     3     2     4    1
     4     4     5   ar
     5     5     6   ar
     6     6     7    1
     7     6     8   ar
     8     8     9   ar
     9     9    10    1
    10    10    11    1
    11    11    12    1
    12    12    13   ar
    13    13    14   ar
    14    14    15   ar
    15    15    16   ar
    16    16    17    1
    17    17    18    2
    18    17    19    1
    19    16    20   ar
    20    12    20   ar
    21     9    21   ar
    22     4    21   ar
    23     3    22    1
    24     7    23    1
    25    10    24    1
    26    11    25    1
    27    11    26    1
    28     5    27    1
    29     8    28    1
    30    13    29    1
    31    14    30    1
    32    15    31    1
    33    19    32    1
    34    20    33    1
    35    21    34    1
@<TRIPOS>MOLECULE
mol49_1_9
 34 35 0 0 0
SMALL
USER_CHARGES
****
VDW energy = 108.26
@<TRIPOS>ATOM
   1 O1        3.4420    -9.1855    -5.2979  O.2     1  <O>11      -0.2451
   2 C1        2.8552    -9.8129    -4.4288  C.2     1  <O>11       0.3370
   3 O2        3.5096   -10.1823    -3.3012  O.3     1  <O>11      -0.4771
   4 C2        1.4620   -10.1610    -4.6040  C.ar    1  <O>11       0.0640
   5 C3        1.1306   -11.3698    -5.2192  C.ar    1  <O>11      -0.0061
   6 C4       -0.2153   -11.7066    -5.4026  C.ar    1  <O>11       0.1194
   7 O3       -0.5240   -12.8254    -5.9759  O.3     1  <O>11      -0.5067
   8 C5       -1.2229   -10.8409    -4.9699  C.ar    1  <O>11       0.0007
   9 C6       -0.8747    -9.6351    -4.3496  C.ar    1  <O>11       0.0316
  10 N1       -1.9179    -8.7469    -3.9043  N.pl3   1  <O>11      -0.3396
  11 C7       -1.6469    -7.7744    -2.8488  C.3     1  <O>11       0.0344
  12 C8       -2.8764    -6.9858    -2.5754  C.ar    1  <O>11      -0.0283
  13 C9       -3.7983    -7.4246    -1.6083  C.ar    1  <O>11      -0.0569
  14 C10      -4.9626    -6.6884    -1.3611  C.ar    1  <O>11      -0.0593
  15 C11      -5.2149    -5.5110    -2.0693  C.ar    1  <O>11      -0.0316
  16 C12      -4.2925    -5.0719    -3.0259  C.ar    1  <O>11       0.1219
  17 N2       -4.5566    -3.8561    -3.7533  N.4     1  <O>11       0.0060
  18 O4       -5.2007    -4.1763    -5.0108  O.2     1  <O>11      -0.1300
  19 O5       -3.3069    -3.1654    -4.0114  O.2     1  <O>11      -0.3961
  20 C13      -3.1291    -5.7973    -3.2804  C.ar    1  <O>11      -0.0270
  21 C14       0.4636    -9.2913    -4.1600  C.ar    1  <O>11      -0.0266
  22 H1        2.9041   -10.6687    -2.7201  H       1  <O>11       0.2954
  23 H2       -1.4903   -12.9071    -6.0259  H       1  <O>11       0.2921
  24 H3       -2.8456    -8.7958    -4.3257  H       1  <O>11       0.1464
  25 H4       -0.8489    -7.1043    -3.1695  H       1  <O>11       0.0511
  26 H5       -1.3400    -8.2971    -1.9430  H       1  <O>11       0.0511
  27 H6        1.8739   -12.0113    -5.5368  H       1  <O>11       0.0662
  28 H7       -2.2155   -11.0882    -5.1063  H       1  <O>11       0.0672
  29 H8       -3.6157    -8.2919    -1.0795  H       1  <O>11       0.0621
  30 H9       -5.6374    -7.0167    -0.6527  H       1  <O>11       0.0618
  31 H10      -6.0745    -4.9694    -1.8887  H       1  <O>11       0.0640
  32 H11      -2.7681    -2.8888    -3.2965  H       1  <O>11       0.3292
  33 H12      -2.4547    -5.4616    -3.9857  H       1  <O>11       0.0643
  34 H13       0.7134    -8.4037    -3.6966  H       1  <O>11       0.0644
@<TRIPOS>BOND
     1     1     2    2
     2     2     3    1
     3     2     4    1
     4     4     5   ar
     5     5     6   ar
     6     6     7    1
     7     6     8   ar
     8     8     9   ar
     9     9    10    1
    10    10    11    1
    11    11    12    1
    12    12    13   ar
    13    13    14   ar
    14    14    15   ar
    15    15    16   ar
    16    16    17    1
    17    17    18    2
    18    17    19    1
    19    16    20   ar
    20    12    20   ar
    21     9    21   ar
    22     4    21   ar
    23     3    22    1
    24     7    23    1
    25    10    24    1
    26    11    25    1
    27    11    26    1
    28     5    27    1
    29     8    28    1
    30    13    29    1
    31    14    30    1
    32    15    31    1
    33    19    32    1
    34    20    33    1
    35    21    34    1
@<TRIPOS>MOLECULE
mol49_1_10
 34 35 0 0 0
SMALL
USER_CHARGES
****
VDW energy = 108.59
@<TRIPOS>ATOM
   1 O1        3.4420    -9.1855    -5.2979  O.2     1  <O>11      -0.2451
   2 C1        2.8552    -9.8129    -4.4288  C.2     1  <O>11       0.3370
   3 O2        3.5096   -10.1823    -3.3012  O.3     1  <O>11      -0.4771
   4 C2        1.4620   -10.1610    -4.6040  C.ar    1  <O>11       0.0640
   5 C3        1.0413   -10.7122    -5.8159  C.ar    1  <O>11      -0.0061
   6 C4       -0.3073   -11.0396    -5.9959  C.ar    1  <O>11       0.1194
   7 O3       -0.6994   -11.5476    -7.1202  O.3     1  <O>11      -0.5067
   8 C5       -1.2283   -10.8203    -4.9684  C.ar    1  <O>11       0.0007
   9 C6       -0.7901   -10.2722    -3.7570  C.ar    1  <O>11       0.0316
  10 N1       -1.7439   -10.0493    -2.7005  N.pl3   1  <O>11      -0.3396
  11 C7       -2.4490    -8.7734    -2.6114  C.3     1  <O>11       0.0344
  12 C8       -1.4854    -7.6998    -2.2546  C.ar    1  <O>11      -0.0283
  13 C9       -1.0802    -7.5275    -0.9190  C.ar    1  <O>11      -0.0569
  14 C10      -0.1832    -6.5075    -0.5819  C.ar    1  <O>11      -0.0593
  15 C11       0.3192    -5.6567    -1.5696  C.ar    1  <O>11      -0.0316
  16 C12      -0.0794    -5.8347    -2.8994  C.ar    1  <O>11       0.1219
  17 N2        0.4424    -4.9553    -3.9150  N.4     1  <O>11       0.0060
  18 O4       -0.5334    -4.8107    -4.9759  O.2     1  <O>11      -0.1300
  19 O5        1.6672    -5.5141    -4.4564  O.2     1  <O>11      -0.3961
  20 C13      -0.9725    -6.8477    -3.2467  C.ar    1  <O>11      -0.0270
  21 C14       0.5522    -9.9446    -3.5668  C.ar    1  <O>11      -0.0266
  22 H1        2.9041   -10.6687    -2.7201  H       1  <O>11       0.2954
  23 H2       -1.6549   -11.7161    -7.0829  H       1  <O>11       0.2921
  24 H3       -1.9279   -10.7819    -2.0150  H       1  <O>11       0.1464
  25 H4       -3.2210    -8.8386    -1.8444  H       1  <O>11       0.0511
  26 H5       -2.9100    -8.5449    -3.5722  H       1  <O>11       0.0511
  27 H6        1.7211   -10.8772    -6.5746  H       1  <O>11       0.0662
  28 H7       -2.2232   -11.0602    -5.1013  H       1  <O>11       0.0672
  29 H8       -1.4453    -8.1549    -0.1855  H       1  <O>11       0.0621
  30 H9        0.1083    -6.3834     0.4002  H       1  <O>11       0.0618
  31 H10       0.9789    -4.9032    -1.3208  H       1  <O>11       0.0640
  32 H11       2.3999    -5.6697    -3.8936  H       1  <O>11       0.3292
  33 H12      -1.2563    -6.9712    -4.2312  H       1  <O>11       0.0643
  34 H13       0.8697    -9.5466    -2.6691  H       1  <O>11       0.0644
@<TRIPOS>BOND
     1     1     2    2
     2     2     3    1
     3     2     4    1
     4     4     5   ar
     5     5     6   ar
     6     6     7    1
     7     6     8   ar
     8     8     9   ar
     9     9    10    1
    10    10    11    1
    11    11    12    1
    12    12    13   ar
    13    13    14   ar
    14    14    15   ar
    15    15    16   ar
    16    16    17    1
    17    17    18    2
    18    17    19    1
    19    16    20   ar
    20    12    20   ar
    21     9    21   ar
    22     4    21   ar
    23     3    22    1
    24     7    23    1
    25    10    24    1
    26    11    25    1
    27    11    26    1
    28     5    27    1
    29     8    28    1
    30    13    29    1
    31    14    30    1
    32    15    31    1
    33    19    32    1
    34    20    33    1
    35    21    34    1
@<TRIPOS>MOLECULE
mol49_1_11
 34 35 0 0 0
SMALL
USER_CHARGES
****
VDW energy = 108.93
@<TRIPOS>ATOM
   1 O1        3.4420    -9.1855    -5.2979  O.2     1  <O>11      -0.2451
   2 C1        2.8552    -9.8129    -4.4288  C.2     1  <O>11       0.3370
   3 O2        3.5096   -10.1823    -3.3012  O.3     1  <O>11      -0.4771
   4 C2        1.4620   -10.1610    -4.6040  C.ar    1  <O>11       0.0640
   5 C3        1.0134   -11.4175    -4.1926  C.ar    1  <O>11      -0.0061
   6 C4       -0.3305   -11.7649    -4.3706  C.ar    1  <O>11       0.1194
   7 O3       -0.7471   -12.9308    -3.9927  O.3     1  <O>11      -0.5067
   8 C5       -1.2205   -10.8590    -4.9532  C.ar    1  <O>11       0.0007
   9 C6       -0.7568    -9.6008    -5.3553  C.ar    1  <O>11       0.0316
  10 N1       -1.6793    -8.6703    -5.9544  N.pl3   1  <O>11      -0.3396
  11 C7       -1.8736    -8.6652    -7.4020  C.3     1  <O>11       0.0344
  12 C8       -2.5013    -9.9453    -7.8211  C.ar    1  <O>11      -0.0283
  13 C9       -1.7173   -11.1037    -7.9671  C.ar    1  <O>11      -0.0569
  14 C10      -2.3070   -12.3056    -8.3750  C.ar    1  <O>11      -0.0593
  15 C11      -3.6783   -12.3643    -8.6355  C.ar    1  <O>11      -0.0316
  16 C12      -4.4581   -11.2122    -8.4823  C.ar    1  <O>11       0.1219
  17 N2       -5.8725   -11.2779    -8.7511  N.4     1  <O>11       0.0060
  18 O4       -6.4430    -9.9494    -8.6610  O.2     1  <O>11      -0.1300
  19 O5       -6.5101   -12.1457    -7.7786  O.2     1  <O>11      -0.3961
  20 C13      -3.8812   -10.0094    -8.0763  C.ar    1  <O>11      -0.0270
  21 C14       0.5801    -9.2441    -5.1802  C.ar    1  <O>11      -0.0266
  22 H1        2.9041   -10.6687    -2.7201  H       1  <O>11       0.2954
  23 H2       -1.6953   -13.0131    -4.1849  H       1  <O>11       0.2921
  24 H3       -2.1974    -8.0153    -5.3687  H       1  <O>11       0.1464
  25 H4       -0.9086    -8.5543    -7.8969  H       1  <O>11       0.0511
  26 H5       -2.5215    -7.8337    -7.6789  H       1  <O>11       0.0511
  27 H6        1.6693   -12.0865    -3.7596  H       1  <O>11       0.0662
  28 H7       -2.2113   -11.1153    -5.0861  H       1  <O>11       0.0672
  29 H8       -0.7044   -11.0673    -7.7729  H       1  <O>11       0.0621
  30 H9       -1.7265   -13.1518    -8.4838  H       1  <O>11       0.0618
  31 H10      -4.1128   -13.2499    -8.9385  H       1  <O>11       0.0640
  32 H11      -6.2508   -13.0435    -7.7108  H       1  <O>11       0.3292
  33 H12      -4.4672    -9.1675    -7.9633  H       1  <O>11       0.0643
  34 H13       0.9141    -8.3127    -5.4733  H       1  <O>11       0.0644
@<TRIPOS>BOND
     1     1     2    2
     2     2     3    1
     3     2     4    1
     4     4     5   ar
     5     5     6   ar
     6     6     7    1
     7     6     8   ar
     8     8     9   ar
     9     9    10    1
    10    10    11    1
    11    11    12    1
    12    12    13   ar
    13    13    14   ar
    14    14    15   ar
    15    15    16   ar
    16    16    17    1
    17    17    18    2
    18    17    19    1
    19    16    20   ar
    20    12    20   ar
    21     9    21   ar
    22     4    21   ar
    23     3    22    1
    24     7    23    1
    25    10    24    1
    26    11    25    1
    27    11    26    1
    28     5    27    1
    29     8    28    1
    30    13    29    1
    31    14    30    1
    32    15    31    1
    33    19    32    1
    34    20    33    1
    35    21    34    1
@<TRIPOS>MOLECULE
mol49_1_12
 34 35 0 0 0
SMALL
USER_CHARGES
****
VDW energy = 109.67
@<TRIPOS>ATOM
   1 O1        3.4420    -9.1855    -5.2979  O.2     1  <O>11      -0.2451
   2 C1        2.8552    -9.8129    -4.4288  C.2     1  <O>11       0.3370
   3 O2        3.5096   -10.1823    -3.3012  O.3     1  <O>11      -0.4771
   4 C2        1.4620   -10.1610    -4.6040  C.ar    1  <O>11       0.0640
   5 C3        1.0134   -11.4175    -4.1926  C.ar    1  <O>11      -0.0061
   6 C4       -0.3305   -11.7649    -4.3706  C.ar    1  <O>11       0.1194
   7 O3       -0.7471   -12.9308    -3.9927  O.3     1  <O>11      -0.5067
   8 C5       -1.2205   -10.8590    -4.9532  C.ar    1  <O>11       0.0007
   9 C6       -0.7568    -9.6008    -5.3553  C.ar    1  <O>11       0.0316
  10 N1       -1.6793    -8.6703    -5.9544  N.pl3   1  <O>11      -0.3396
  11 C7       -2.7776    -8.1206    -5.1640  C.3     1  <O>11       0.0344
  12 C8       -2.2274    -7.2655    -4.0803  C.ar    1  <O>11      -0.0283
  13 C9       -1.7225    -7.8499    -2.9050  C.ar    1  <O>11      -0.0569
  14 C10      -1.2170    -7.0431    -1.8792  C.ar    1  <O>11      -0.0593
  15 C11      -1.2062    -5.6529    -2.0171  C.ar    1  <O>11      -0.0316
  16 C12      -1.7022    -5.0738    -3.1907  C.ar    1  <O>11       0.1219
  17 N2       -1.6880    -3.6393    -3.3290  N.4     1  <O>11       0.0060
  18 O4       -2.3691    -3.2655    -4.5516  O.2     1  <O>11      -0.1300
  19 O5       -0.3153    -3.1712    -3.3768  O.2     1  <O>11      -0.3961
  20 C13      -2.2081    -5.8678    -4.2193  C.ar    1  <O>11      -0.0270
  21 C14       0.5801    -9.2441    -5.1802  C.ar    1  <O>11      -0.0266
  22 H1        2.9041   -10.6687    -2.7201  H       1  <O>11       0.2954
  23 H2       -1.6953   -13.0131    -4.1849  H       1  <O>11       0.2921
  24 H3       -1.5658    -8.3943    -6.9298  H       1  <O>11       0.1464
  25 H4       -3.3532    -8.9366    -4.7266  H       1  <O>11       0.0511
  26 H5       -3.4246    -7.5235    -5.8065  H       1  <O>11       0.0511
  27 H6        1.6693   -12.0865    -3.7596  H       1  <O>11       0.0662
  28 H7       -2.2113   -11.1153    -5.0861  H       1  <O>11       0.0672
  29 H8       -1.7247    -8.8764    -2.7987  H       1  <O>11       0.0621
  30 H9       -0.8507    -7.4769    -1.0174  H       1  <O>11       0.0618
  31 H10      -0.8356    -5.0579    -1.2598  H       1  <O>11       0.0640
  32 H11       0.2608    -3.3348    -2.6562  H       1  <O>11       0.3292
  33 H12      -2.5677    -5.4293    -5.0814  H       1  <O>11       0.0643
  34 H13       0.9141    -8.3127    -5.4733  H       1  <O>11       0.0644
@<TRIPOS>BOND
     1     1     2    2
     2     2     3    1
     3     2     4    1
     4     4     5   ar
     5     5     6   ar
     6     6     7    1
     7     6     8   ar
     8     8     9   ar
     9     9    10    1
    10    10    11    1
    11    11    12    1
    12    12    13   ar
    13    13    14   ar
    14    14    15   ar
    15    15    16   ar
    16    16    17    1
    17    17    18    2
    18    17    19    1
    19    16    20   ar
    20    12    20   ar
    21     9    21   ar
    22     4    21   ar
    23     3    22    1
    24     7    23    1
    25    10    24    1
    26    11    25    1
    27    11    26    1
    28     5    27    1
    29     8    28    1
    30    13    29    1
    31    14    30    1
    32    15    31    1
    33    19    32    1
    34    20    33    1
    35    21    34    1
@<TRIPOS>MOLECULE
mol49_1_13
 34 35 0 0 0
SMALL
USER_CHARGES
****
VDW energy = 109.90
@<TRIPOS>ATOM
   1 O1        3.4420    -9.1855    -5.2979  O.2     1  <O>11      -0.2451
   2 C1        2.8552    -9.8129    -4.4288  C.2     1  <O>11       0.3370
   3 O2        3.5096   -10.1823    -3.3012  O.3     1  <O>11      -0.4771
   4 C2        1.4620   -10.1610    -4.6040  C.ar    1  <O>11       0.0640
   5 C3        1.1306   -11.3698    -5.2192  C.ar    1  <O>11      -0.0061
   6 C4       -0.2153   -11.7066    -5.4026  C.ar    1  <O>11       0.1194
   7 O3       -0.5240   -12.8254    -5.9759  O.3     1  <O>11      -0.5067
   8 C5       -1.2229   -10.8409    -4.9699  C.ar    1  <O>11       0.0007
   9 C6       -0.8747    -9.6351    -4.3496  C.ar    1  <O>11       0.0316
  10 N1       -1.9179    -8.7469    -3.9043  N.pl3   1  <O>11      -0.3396
  11 C7       -2.8131    -9.1559    -2.8251  C.3     1  <O>11       0.0344
  12 C8       -3.6739   -10.2731    -3.2933  C.ar    1  <O>11      -0.0283
  13 C9       -4.8068   -10.0103    -4.0841  C.ar    1  <O>11      -0.0569
  14 C10      -5.6245   -11.0619    -4.5132  C.ar    1  <O>11      -0.0593
  15 C11      -5.3191   -12.3794    -4.1631  C.ar    1  <O>11      -0.0316
  16 C12      -4.1870   -12.6395    -3.3824  C.ar    1  <O>11       0.1219
  17 N2       -3.8753   -14.0004    -3.0247  N.4     1  <O>11       0.0060
  18 O4       -4.3476   -14.8927    -4.0636  O.2     1  <O>11      -0.1300
  19 O5       -4.5242   -14.3317    -1.7699  O.2     1  <O>11      -0.3961
  20 C13      -3.3650   -11.5996    -2.9494  C.ar    1  <O>11      -0.0270
  21 C14       0.4636    -9.2913    -4.1600  C.ar    1  <O>11      -0.0266
  22 H1        2.9041   -10.6687    -2.7201  H       1  <O>11       0.2954
  23 H2       -1.4903   -12.9071    -6.0259  H       1  <O>11       0.2921
  24 H3       -2.0317    -7.8322    -4.3414  H       1  <O>11       0.1464
  25 H4       -3.4389    -8.3121    -2.5338  H       1  <O>11       0.0511
  26 H5       -2.2240    -9.4838    -1.9687  H       1  <O>11       0.0511
  27 H6        1.8739   -12.0113    -5.5368  H       1  <O>11       0.0662
  28 H7       -2.2155   -11.0882    -5.1063  H       1  <O>11       0.0672
  29 H8       -5.0357    -9.0394    -4.3486  H       1  <O>11       0.0621
  30 H9       -6.4565   -10.8632    -5.0905  H       1  <O>11       0.0618
  31 H10      -5.9233   -13.1546    -4.4776  H       1  <O>11       0.0640
  32 H11      -4.3246   -13.8429    -0.9959  H       1  <O>11       0.3292
  33 H12      -2.5310   -11.8042    -2.3772  H       1  <O>11       0.0643
  34 H13       0.7134    -8.4037    -3.6966  H       1  <O>11       0.0644
@<TRIPOS>BOND
     1     1     2    2
     2     2     3    1
     3     2     4    1
     4     4     5   ar
     5     5     6   ar
     6     6     7    1
     7     6     8   ar
     8     8     9   ar
     9     9    10    1
    10    10    11    1
    11    11    12    1
    12    12    13   ar
    13    13    14   ar
    14    14    15   ar
    15    15    16   ar
    16    16    17    1
    17    17    18    2
    18    17    19    1
    19    16    20   ar
    20    12    20   ar
    21     9    21   ar
    22     4    21   ar
    23     3    22    1
    24     7    23    1
    25    10    24    1
    26    11    25    1
    27    11    26    1
    28     5    27    1
    29     8    28    1
    30    13    29    1
    31    14    30    1
    32    15    31    1
    33    19    32    1
    34    20    33    1
    35    21    34    1
@<TRIPOS>MOLECULE
mol49_1_14
 34 35 0 0 0
SMALL
USER_CHARGES
****
VDW energy = 110.25
@<TRIPOS>ATOM
   1 O1        3.4420    -9.1855    -5.2979  O.2     1  <O>11      -0.2451
   2 C1        2.8552    -9.8129    -4.4288  C.2     1  <O>11       0.3370
   3 O2        3.5096   -10.1823    -3.3012  O.3     1  <O>11      -0.4771
   4 C2        1.4620   -10.1610    -4.6040  C.ar    1  <O>11       0.0640
   5 C3        1.0134   -11.4175    -4.1926  C.ar    1  <O>11      -0.0061
   6 C4       -0.3305   -11.7649    -4.3706  C.ar    1  <O>11       0.1194
   7 O3       -0.7471   -12.9308    -3.9927  O.3     1  <O>11      -0.5067
   8 C5       -1.2205   -10.8590    -4.9532  C.ar    1  <O>11       0.0007
   9 C6       -0.7568    -9.6008    -5.3553  C.ar    1  <O>11       0.0316
  10 N1       -1.6793    -8.6703    -5.9544  N.pl3   1  <O>11      -0.3396
  11 C7       -2.7776    -8.1206    -5.1640  C.3     1  <O>11       0.0344
  12 C8       -3.7465    -9.2013    -4.8452  C.ar    1  <O>11      -0.0283
  13 C9       -4.6901    -9.6115    -5.8039  C.ar    1  <O>11      -0.0569
  14 C10      -5.6111   -10.6199    -5.4980  C.ar    1  <O>11      -0.0593
  15 C11      -5.5968   -11.2289    -4.2407  C.ar    1  <O>11      -0.0316
  16 C12      -4.6520   -10.8245    -3.2907  C.ar    1  <O>11       0.1219
  17 N2       -4.6403   -11.4564    -1.9954  N.4     1  <O>11       0.0060
  18 O4       -4.5427   -12.8923    -2.1598  O.2     1  <O>11      -0.1300
  19 O5       -5.8649   -11.1322    -1.2877  O.2     1  <O>11      -0.3961
  20 C13      -3.7296    -9.8209    -3.5845  C.ar    1  <O>11      -0.0270
  21 C14       0.5801    -9.2441    -5.1802  C.ar    1  <O>11      -0.0266
  22 H1        2.9041   -10.6687    -2.7201  H       1  <O>11       0.2954
  23 H2       -1.6953   -13.0131    -4.1849  H       1  <O>11       0.2921
  24 H3       -1.5658    -8.3943    -6.9298  H       1  <O>11       0.1464
  25 H4       -3.2794    -7.3391    -5.7349  H       1  <O>11       0.0511
  26 H5       -2.3844    -7.6990    -4.2391  H       1  <O>11       0.0511
  27 H6        1.6693   -12.0865    -3.7596  H       1  <O>11       0.0662
  28 H7       -2.2113   -11.1153    -5.0861  H       1  <O>11       0.0672
  29 H8       -4.7035    -9.1676    -6.7355  H       1  <O>11       0.0621
  30 H9       -6.3036   -10.9148    -6.2040  H       1  <O>11       0.0618
  31 H10      -6.2773   -11.9709    -4.0143  H       1  <O>11       0.0640
  32 H11      -6.0758   -10.2384    -1.1016  H       1  <O>11       0.3292
  33 H12      -3.0354    -9.5338    -2.8770  H       1  <O>11       0.0643
  34 H13       0.9141    -8.3127    -5.4733  H       1  <O>11       0.0644
@<TRIPOS>BOND
     1     1     2    2
     2     2     3    1
     3     2     4    1
     4     4     5   ar
     5     5     6   ar
     6     6     7    1
     7     6     8   ar
     8     8     9   ar
     9     9    10    1
    10    10    11    1
    11    11    12    1
    12    12    13   ar
    13    13    14   ar
    14    14    15   ar
    15    15    16   ar
    16    16    17    1
    17    17    18    2
    18    17    19    1
    19    16    20   ar
    20    12    20   ar
    21     9    21   ar
    22     4    21   ar
    23     3    22    1
    24     7    23    1
    25    10    24    1
    26    11    25    1
    27    11    26    1
    28     5    27    1
    29     8    28    1
    30    13    29    1
    31    14    30    1
    32    15    31    1
    33    19    32    1
    34    20    33    1
    35    21    34    1
@<TRIPOS>MOLECULE
mol49_1_15
 34 35 0 0 0
SMALL
USER_CHARGES
****
VDW energy = 110.37
@<TRIPOS>ATOM
   1 O1        3.4420    -9.1855    -5.2979  O.2     1  <O>11      -0.2451
   2 C1        2.8552    -9.8129    -4.4288  C.2     1  <O>11       0.3370
   3 O2        3.5096   -10.1823    -3.3012  O.3     1  <O>11      -0.4771
   4 C2        1.4620   -10.1610    -4.6040  C.ar    1  <O>11       0.0640
   5 C3        0.4750    -9.2817    -4.1546  C.ar    1  <O>11      -0.0061
   6 C4       -0.8745    -9.6183    -4.3101  C.ar    1  <O>11       0.1194
   7 O3       -1.7906    -8.8055    -3.8909  O.3     1  <O>11      -0.5067
   8 C5       -1.2337   -10.8255    -4.9148  C.ar    1  <O>11       0.0007
   9 C6       -0.2326   -11.6941    -5.3653  C.ar    1  <O>11       0.0316
  10 N1       -0.6088   -12.9371    -5.9892  N.pl3   1  <O>11      -0.3396
  11 C7       -1.3119   -12.9274    -7.2693  C.3     1  <O>11       0.0344
  12 C8       -2.6561   -12.3196    -7.0907  C.ar    1  <O>11      -0.0283
  13 C9       -3.5812   -12.8961    -6.2020  C.ar    1  <O>11      -0.0569
  14 C10      -4.8518   -12.3310    -6.0446  C.ar    1  <O>11      -0.0593
  15 C11      -5.2084   -11.1884    -6.7650  C.ar    1  <O>11      -0.0316
  16 C12      -4.2837   -10.6117    -7.6432  C.ar    1  <O>11       0.1219
  17 N2       -4.6558    -9.4324    -8.3834  N.4     1  <O>11       0.0060
  18 O4       -3.6026    -9.0985    -9.3204  O.2     1  <O>11      -0.1300
  19 O5       -4.8549    -8.3271    -7.4647  O.2     1  <O>11      -0.3961
  20 C13      -3.0149   -11.1662    -7.8079  C.ar    1  <O>11      -0.0270
  21 C14       1.1151   -11.3668    -5.2172  C.ar    1  <O>11      -0.0266
  22 H1        2.9041   -10.6687    -2.7201  H       1  <O>11       0.2954
  23 H2       -2.6661    -9.1840    -4.0725  H       1  <O>11       0.2921
  24 H3       -0.3841   -13.8240    -5.5382  H       1  <O>11       0.1464
  25 H4       -1.4203   -13.9500    -7.6311  H       1  <O>11       0.0511
  26 H5       -0.7417   -12.3448    -7.9928  H       1  <O>11       0.0511
  27 H6        0.7391    -8.3884    -3.7103  H       1  <O>11       0.0662
  28 H7       -2.2287   -11.0748    -5.0282  H       1  <O>11       0.0672
  29 H8       -3.3223   -13.7383    -5.6646  H       1  <O>11       0.0621
  30 H9       -5.5279   -12.7600    -5.3937  H       1  <O>11       0.0618
  31 H10      -6.1461   -10.7729    -6.6507  H       1  <O>11       0.0640
  32 H11      -5.5056    -8.3875    -6.7932  H       1  <O>11       0.3292
  33 H12      -2.3404   -10.7299    -8.4557  H       1  <O>11       0.0643
  34 H13       1.8481   -12.0089    -5.5570  H       1  <O>11       0.0644
@<TRIPOS>BOND
     1     1     2    2
     2     2     3    1
     3     2     4    1
     4     4     5   ar
     5     5     6   ar
     6     6     7    1
     7     6     8   ar
     8     8     9   ar
     9     9    10    1
    10    10    11    1
    11    11    12    1
    12    12    13   ar
    13    13    14   ar
    14    14    15   ar
    15    15    16   ar
    16    16    17    1
    17    17    18    2
    18    17    19    1
    19    16    20   ar
    20    12    20   ar
    21     9    21   ar
    22     4    21   ar
    23     3    22    1
    24     7    23    1
    25    10    24    1
    26    11    25    1
    27    11    26    1
    28     5    27    1
    29     8    28    1
    30    13    29    1
    31    14    30    1
    32    15    31    1
    33    19    32    1
    34    20    33    1
    35    21    34    1
@<TRIPOS>MOLECULE
mol49_1_16
 34 35 0 0 0
SMALL
USER_CHARGES
****
VDW energy = 110.71
@<TRIPOS>ATOM
   1 O1        3.4420    -9.1855    -5.2979  O.2     1  <O>11      -0.2451
   2 C1        2.8552    -9.8129    -4.4288  C.2     1  <O>11       0.3370
   3 O2        3.5096   -10.1823    -3.3012  O.3     1  <O>11      -0.4771
   4 C2        1.4620   -10.1610    -4.6040  C.ar    1  <O>11       0.0640
   5 C3        1.0134   -11.4175    -4.1926  C.ar    1  <O>11      -0.0061
   6 C4       -0.3305   -11.7649    -4.3706  C.ar    1  <O>11       0.1194
   7 O3       -0.7471   -12.9308    -3.9927  O.3     1  <O>11      -0.5067
   8 C5       -1.2205   -10.8590    -4.9532  C.ar    1  <O>11       0.0007
   9 C6       -0.7568    -9.6008    -5.3553  C.ar    1  <O>11       0.0316
  10 N1       -1.6793    -8.6703    -5.9544  N.pl3   1  <O>11      -0.3396
  11 C7       -2.7776    -8.1206    -5.1640  C.3     1  <O>11       0.0344
  12 C8       -3.7465    -9.2013    -4.8452  C.ar    1  <O>11      -0.0283
  13 C9       -4.6901    -9.6115    -5.8039  C.ar    1  <O>11      -0.0569
  14 C10      -5.6111   -10.6199    -5.4980  C.ar    1  <O>11      -0.0593
  15 C11      -5.5968   -11.2289    -4.2407  C.ar    1  <O>11      -0.0316
  16 C12      -4.6520   -10.8245    -3.2907  C.ar    1  <O>11       0.1219
  17 N2       -4.6403   -11.4564    -1.9954  N.4     1  <O>11       0.0060
  18 O4       -5.4191   -10.6647    -1.0652  O.2     1  <O>11      -0.1300
  19 O5       -3.2736   -11.5581    -1.5188  O.2     1  <O>11      -0.3961
  20 C13      -3.7296    -9.8209    -3.5845  C.ar    1  <O>11      -0.0270
  21 C14       0.5801    -9.2441    -5.1802  C.ar    1  <O>11      -0.0266
  22 H1        2.9041   -10.6687    -2.7201  H       1  <O>11       0.2954
  23 H2       -1.6953   -13.0131    -4.1849  H       1  <O>11       0.2921
  24 H3       -1.5658    -8.3943    -6.9298  H       1  <O>11       0.1464
  25 H4       -3.2794    -7.3391    -5.7349  H       1  <O>11       0.0511
  26 H5       -2.3844    -7.6990    -4.2391  H       1  <O>11       0.0511
  27 H6        1.6693   -12.0865    -3.7596  H       1  <O>11       0.0662
  28 H7       -2.2113   -11.1153    -5.0861  H       1  <O>11       0.0672
  29 H8       -4.7035    -9.1676    -6.7355  H       1  <O>11       0.0621
  30 H9       -6.3036   -10.9148    -6.2040  H       1  <O>11       0.0618
  31 H10      -6.2773   -11.9709    -4.0143  H       1  <O>11       0.0640
  32 H11      -2.6402   -12.0413    -2.0120  H       1  <O>11       0.3292
  33 H12      -3.0354    -9.5338    -2.8770  H       1  <O>11       0.0643
  34 H13       0.9141    -8.3127    -5.4733  H       1  <O>11       0.0644
@<TRIPOS>BOND
     1     1     2    2
     2     2     3    1
     3     2     4    1
     4     4     5   ar
     5     5     6   ar
     6     6     7    1
     7     6     8   ar
     8     8     9   ar
     9     9    10    1
    10    10    11    1
    11    11    12    1
    12    12    13   ar
    13    13    14   ar
    14    14    15   ar
    15    15    16   ar
    16    16    17    1
    17    17    18    2
    18    17    19    1
    19    16    20   ar
    20    12    20   ar
    21     9    21   ar
    22     4    21   ar
    23     3    22    1
    24     7    23    1
    25    10    24    1
    26    11    25    1
    27    11    26    1
    28     5    27    1
    29     8    28    1
    30    13    29    1
    31    14    30    1
    32    15    31    1
    33    19    32    1
    34    20    33    1
    35    21    34    1
@<TRIPOS>MOLECULE
mol49_1_17
 34 35 0 0 0
SMALL
USER_CHARGES
****
VDW energy = 111.37
@<TRIPOS>ATOM
   1 O1        3.4420    -9.1855    -5.2979  O.2     1  <O>11      -0.2451
   2 C1        2.8552    -9.8129    -4.4288  C.2     1  <O>11       0.3370
   3 O2        3.5096   -10.1823    -3.3012  O.3     1  <O>11      -0.4771
   4 C2        1.4620   -10.1610    -4.6040  C.ar    1  <O>11       0.0640
   5 C3        1.0134   -11.4175    -4.1926  C.ar    1  <O>11      -0.0061
   6 C4       -0.3305   -11.7649    -4.3706  C.ar    1  <O>11       0.1194
   7 O3       -0.7471   -12.9308    -3.9927  O.3     1  <O>11      -0.5067
   8 C5       -1.2205   -10.8590    -4.9532  C.ar    1  <O>11       0.0007
   9 C6       -0.7568    -9.6008    -5.3553  C.ar    1  <O>11       0.0316
  10 N1       -1.6793    -8.6703    -5.9544  N.pl3   1  <O>11      -0.3396
  11 C7       -1.3942    -7.2382    -5.9234  C.3     1  <O>11       0.0344
  12 C8       -1.4798    -6.7472    -4.5234  C.ar    1  <O>11      -0.0283
  13 C9       -2.7319    -6.4733    -3.9446  C.ar    1  <O>11      -0.0569
  14 C10      -2.8108    -5.9980    -2.6306  C.ar    1  <O>11      -0.0593
  15 C11      -1.6475    -5.7966    -1.8836  C.ar    1  <O>11      -0.0316
  16 C12      -0.4028    -6.0770    -2.4589  C.ar    1  <O>11       0.1219
  17 N2        0.7944    -5.8687    -1.6841  N.4     1  <O>11       0.0060
  18 O4        1.3333    -4.5552    -1.9721  O.2     1  <O>11      -0.1300
  19 O5        1.7757    -6.8807    -2.0280  O.2     1  <O>11      -0.3961
  20 C13      -0.3123    -6.5510    -3.7671  C.ar    1  <O>11      -0.0270
  21 C14       0.5801    -9.2441    -5.1802  C.ar    1  <O>11      -0.0266
  22 H1        2.9041   -10.6687    -2.7201  H       1  <O>11       0.2954
  23 H2       -1.6953   -13.0131    -4.1849  H       1  <O>11       0.2921
  24 H3       -2.5310    -9.0105    -6.4009  H       1  <O>11       0.1464
  25 H4       -2.1226    -6.7101    -6.5390  H       1  <O>11       0.0511
  26 H5       -0.3919    -7.0585    -6.3120  H       1  <O>11       0.0511
  27 H6        1.6693   -12.0865    -3.7596  H       1  <O>11       0.0662
  28 H7       -2.2113   -11.1153    -5.0861  H       1  <O>11       0.0672
  29 H8       -3.5949    -6.6233    -4.4903  H       1  <O>11       0.0621
  30 H9       -3.7319    -5.7955    -2.2118  H       1  <O>11       0.0618
  31 H10      -1.7055    -5.4440    -0.9155  H       1  <O>11       0.0640
  32 H11       1.5781    -7.7876    -1.8997  H       1  <O>11       0.3292
  33 H12       0.6110    -6.7575    -4.1792  H       1  <O>11       0.0643
  34 H13       0.9141    -8.3127    -5.4733  H       1  <O>11       0.0644
@<TRIPOS>BOND
     1     1     2    2
     2     2     3    1
     3     2     4    1
     4     4     5   ar
     5     5     6   ar
     6     6     7    1
     7     6     8   ar
     8     8     9   ar
     9     9    10    1
    10    10    11    1
    11    11    12    1
    12    12    13   ar
    13    13    14   ar
    14    14    15   ar
    15    15    16   ar
    16    16    17    1
    17    17    18    2
    18    17    19    1
    19    16    20   ar
    20    12    20   ar
    21     9    21   ar
    22     4    21   ar
    23     3    22    1
    24     7    23    1
    25    10    24    1
    26    11    25    1
    27    11    26    1
    28     5    27    1
    29     8    28    1
    30    13    29    1
    31    14    30    1
    32    15    31    1
    33    19    32    1
    34    20    33    1
    35    21    34    1
@<TRIPOS>MOLECULE
mol49_1_18
 34 35 0 0 0
SMALL
USER_CHARGES
****
VDW energy = 111.94
@<TRIPOS>ATOM
   1 O1        3.4420    -9.1855    -5.2979  O.2     1  <O>11      -0.2451
   2 C1        2.8552    -9.8129    -4.4288  C.2     1  <O>11       0.3370
   3 O2        3.5096   -10.1823    -3.3012  O.3     1  <O>11      -0.4771
   4 C2        1.4620   -10.1610    -4.6040  C.ar    1  <O>11       0.0640
   5 C3        1.0134   -11.4175    -4.1926  C.ar    1  <O>11      -0.0061
   6 C4       -0.3305   -11.7649    -4.3706  C.ar    1  <O>11       0.1194
   7 O3       -0.7471   -12.9308    -3.9927  O.3     1  <O>11      -0.5067
   8 C5       -1.2205   -10.8590    -4.9532  C.ar    1  <O>11       0.0007
   9 C6       -0.7568    -9.6008    -5.3553  C.ar    1  <O>11       0.0316
  10 N1       -1.6793    -8.6703    -5.9544  N.pl3   1  <O>11      -0.3396
  11 C7       -1.3942    -7.2382    -5.9234  C.3     1  <O>11       0.0344
  12 C8       -1.4798    -6.7472    -4.5234  C.ar    1  <O>11      -0.0283
  13 C9       -2.7319    -6.4733    -3.9446  C.ar    1  <O>11      -0.0569
  14 C10      -2.8108    -5.9980    -2.6306  C.ar    1  <O>11      -0.0593
  15 C11      -1.6475    -5.7966    -1.8836  C.ar    1  <O>11      -0.0316
  16 C12      -0.4028    -6.0770    -2.4589  C.ar    1  <O>11       0.1219
  17 N2        0.7944    -5.8687    -1.6841  N.4     1  <O>11       0.0060
  18 O4        1.9557    -6.0906    -2.5211  O.2     1  <O>11      -0.1300
  19 O5        0.8168    -6.7967    -0.5689  O.2     1  <O>11      -0.3961
  20 C13      -0.3123    -6.5510    -3.7671  C.ar    1  <O>11      -0.0270
  21 C14       0.5801    -9.2441    -5.1802  C.ar    1  <O>11      -0.0266
  22 H1        2.9041   -10.6687    -2.7201  H       1  <O>11       0.2954
  23 H2       -1.6953   -13.0131    -4.1849  H       1  <O>11       0.2921
  24 H3       -2.5310    -9.0105    -6.4009  H       1  <O>11       0.1464
  25 H4       -2.1226    -6.7101    -6.5390  H       1  <O>11       0.0511
  26 H5       -0.3919    -7.0585    -6.3120  H       1  <O>11       0.0511
  27 H6        1.6693   -12.0865    -3.7596  H       1  <O>11       0.0662
  28 H7       -2.2113   -11.1153    -5.0861  H       1  <O>11       0.0672
  29 H8       -3.5949    -6.6233    -4.4903  H       1  <O>11       0.0621
  30 H9       -3.7319    -5.7955    -2.2118  H       1  <O>11       0.0618
  31 H10      -1.7055    -5.4440    -0.9155  H       1  <O>11       0.0640
  32 H11       0.1295    -6.7807     0.0678  H       1  <O>11       0.3292
  33 H12       0.6110    -6.7575    -4.1792  H       1  <O>11       0.0643
  34 H13       0.9141    -8.3127    -5.4733  H       1  <O>11       0.0644
@<TRIPOS>BOND
     1     1     2    2
     2     2     3    1
     3     2     4    1
     4     4     5   ar
     5     5     6   ar
     6     6     7    1
     7     6     8   ar
     8     8     9   ar
     9     9    10    1
    10    10    11    1
    11    11    12    1
    12    12    13   ar
    13    13    14   ar
    14    14    15   ar
    15    15    16   ar
    16    16    17    1
    17    17    18    2
    18    17    19    1
    19    16    20   ar
    20    12    20   ar
    21     9    21   ar
    22     4    21   ar
    23     3    22    1
    24     7    23    1
    25    10    24    1
    26    11    25    1
    27    11    26    1
    28     5    27    1
    29     8    28    1
    30    13    29    1
    31    14    30    1
    32    15    31    1
    33    19    32    1
    34    20    33    1
    35    21    34    1
@<TRIPOS>MOLECULE
mol49_1_19
 34 35 0 0 0
SMALL
USER_CHARGES
****
VDW energy = 112.07
@<TRIPOS>ATOM
   1 O1        3.4420    -9.1855    -5.2979  O.2     1  <O>11      -0.2451
   2 C1        2.8552    -9.8129    -4.4288  C.2     1  <O>11       0.3370
   3 O2        3.5096   -10.1823    -3.3012  O.3     1  <O>11      -0.4771
   4 C2        1.4620   -10.1610    -4.6040  C.ar    1  <O>11       0.0640
   5 C3        0.4750    -9.2817    -4.1546  C.ar    1  <O>11      -0.0061
   6 C4       -0.8745    -9.6183    -4.3101  C.ar    1  <O>11       0.1194
   7 O3       -1.7906    -8.8055    -3.8909  O.3     1  <O>11      -0.5067
   8 C5       -1.2337   -10.8255    -4.9148  C.ar    1  <O>11       0.0007
   9 C6       -0.2326   -11.6941    -5.3653  C.ar    1  <O>11       0.0316
  10 N1       -0.6088   -12.9371    -5.9892  N.pl3   1  <O>11      -0.3396
  11 C7        0.3198   -13.6098    -6.8938  C.3     1  <O>11       0.0344
  12 C8        0.4850   -12.7972    -8.1269  C.ar    1  <O>11      -0.0283
  13 C9        1.4927   -11.8189    -8.2003  C.ar    1  <O>11      -0.0569
  14 C10       1.6388   -11.0448    -9.3570  C.ar    1  <O>11      -0.0593
  15 C11       0.7883   -11.2411   -10.4478  C.ar    1  <O>11      -0.0316
  16 C12      -0.2090   -12.2204   -10.3757  C.ar    1  <O>11       0.1219
  17 N2       -1.0832   -12.4201   -11.5039  N.4     1  <O>11       0.0060
  18 O4       -2.2957   -11.6496   -11.3172  O.2     1  <O>11      -0.1300
  19 O5       -1.4164   -13.8280   -11.6148  O.2     1  <O>11      -0.3961
  20 C13      -0.3636   -12.9976    -9.2283  C.ar    1  <O>11      -0.0270
  21 C14       1.1151   -11.3668    -5.2172  C.ar    1  <O>11      -0.0266
  22 H1        2.9041   -10.6687    -2.7201  H       1  <O>11       0.2954
  23 H2       -2.6661    -9.1840    -4.0725  H       1  <O>11       0.2921
  24 H3       -1.5228   -13.3482    -5.7993  H       1  <O>11       0.1464
  25 H4       -0.0759   -14.5913    -7.1554  H       1  <O>11       0.0511
  26 H5        1.2856   -13.7269    -6.4023  H       1  <O>11       0.0511
  27 H6        0.7391    -8.3884    -3.7103  H       1  <O>11       0.0662
  28 H7       -2.2287   -11.0748    -5.0282  H       1  <O>11       0.0672
  29 H8        2.1261   -11.6715    -7.3990  H       1  <O>11       0.0621
  30 H9        2.3777   -10.3260    -9.4043  H       1  <O>11       0.0618
  31 H10       0.8946   -10.6687   -11.2999  H       1  <O>11       0.0640
  32 H11      -0.7375   -14.4616   -11.7396  H       1  <O>11       0.3292
  33 H12      -1.1004   -13.7190    -9.1883  H       1  <O>11       0.0643
  34 H13       1.8481   -12.0089    -5.5570  H       1  <O>11       0.0644
@<TRIPOS>BOND
     1     1     2    2
     2     2     3    1
     3     2     4    1
     4     4     5   ar
     5     5     6   ar
     6     6     7    1
     7     6     8   ar
     8     8     9   ar
     9     9    10    1
    10    10    11    1
    11    11    12    1
    12    12    13   ar
    13    13    14   ar
    14    14    15   ar
    15    15    16   ar
    16    16    17    1
    17    17    18    2
    18    17    19    1
    19    16    20   ar
    20    12    20   ar
    21     9    21   ar
    22     4    21   ar
    23     3    22    1
    24     7    23    1
    25    10    24    1
    26    11    25    1
    27    11    26    1
    28     5    27    1
    29     8    28    1
    30    13    29    1
    31    14    30    1
    32    15    31    1
    33    19    32    1
    34    20    33    1
    35    21    34    1
@<TRIPOS>MOLECULE
mol49_1_20
 34 35 0 0 0
SMALL
USER_CHARGES
****
VDW energy = 112.31
@<TRIPOS>ATOM
   1 O1        3.4420    -9.1855    -5.2979  O.2     1  <O>11      -0.2451
   2 C1        2.8552    -9.8129    -4.4288  C.2     1  <O>11       0.3370
   3 O2        3.5096   -10.1823    -3.3012  O.3     1  <O>11      -0.4771
   4 C2        1.4620   -10.1610    -4.6040  C.ar    1  <O>11       0.0640
   5 C3        0.5946   -10.0837    -3.5126  C.ar    1  <O>11      -0.0061
   6 C4       -0.7516   -10.4309    -3.6727  C.ar    1  <O>11       0.1194
   7 O3       -1.5561   -10.3630    -2.6610  O.3     1  <O>11      -0.5067
   8 C5       -1.2274   -10.8492    -4.9180  C.ar    1  <O>11       0.0007
   9 C6       -0.3466   -10.9160    -6.0041  C.ar    1  <O>11       0.0316
  10 N1       -0.8430   -11.3468    -7.2862  N.pl3   1  <O>11      -0.3396
  11 C7       -1.8187   -10.5297    -8.0029  C.3     1  <O>11       0.0344
  12 C8       -3.1083   -10.5380    -7.2645  C.ar    1  <O>11      -0.0283
  13 C9       -3.9869   -11.6293    -7.3868  C.ar    1  <O>11      -0.0569
  14 C10      -5.2073   -11.6301    -6.7017  C.ar    1  <O>11      -0.0593
  15 C11      -5.5592   -10.5499    -5.8887  C.ar    1  <O>11      -0.0316
  16 C12      -4.6800    -9.4683    -5.7623  C.ar    1  <O>11       0.1219
  17 N2       -5.0468    -8.3567    -4.9216  N.4     1  <O>11       0.0060
  18 O4       -5.8912    -8.8261    -3.8421  O.2     1  <O>11      -0.1300
  19 O5       -5.7678    -7.3728    -5.7075  O.2     1  <O>11      -0.3961
  20 C13      -3.4615    -9.4568    -6.4401  C.ar    1  <O>11      -0.0270
  21 C14       0.9963   -10.5699    -5.8555  C.ar    1  <O>11      -0.0266
  22 H1        2.9041   -10.6687    -2.7201  H       1  <O>11       0.2954
  23 H2       -2.4464   -10.6349    -2.9371  H       1  <O>11       0.2921
  24 H3       -0.5133   -12.2216    -7.6943  H       1  <O>11       0.1464
  25 H4       -1.9693   -10.9382    -9.0023  H       1  <O>11       0.0511
  26 H5       -1.4496    -9.5071    -8.0803  H       1  <O>11       0.0511
  27 H6        0.9443    -9.7723    -2.5929  H       1  <O>11       0.0662
  28 H7       -2.2197   -11.1068    -5.0362  H       1  <O>11       0.0672
  29 H8       -3.7310   -12.4316    -7.9833  H       1  <O>11       0.0621
  30 H9       -5.8498   -12.4319    -6.7976  H       1  <O>11       0.0618
  31 H10      -6.4601   -10.5495    -5.3853  H       1  <O>11       0.0640
  32 H11      -5.3561    -6.9710    -6.4470  H       1  <O>11       0.3292
  33 H12      -2.8199    -8.6552    -6.3362  H       1  <O>11       0.0643
  34 H13       1.6389   -10.6156    -6.6617  H       1  <O>11       0.0644
@<TRIPOS>BOND
     1     1     2    2
     2     2     3    1
     3     2     4    1
     4     4     5   ar
     5     5     6   ar
     6     6     7    1
     7     6     8   ar
     8     8     9   ar
     9     9    10    1
    10    10    11    1
    11    11    12    1
    12    12    13   ar
    13    13    14   ar
    14    14    15   ar
    15    15    16   ar
    16    16    17    1
    17    17    18    2
    18    17    19    1
    19    16    20   ar
    20    12    20   ar
    21     9    21   ar
    22     4    21   ar
    23     3    22    1
    24     7    23    1
    25    10    24    1
    26    11    25    1
    27    11    26    1
    28     5    27    1
    29     8    28    1
    30    13    29    1
    31    14    30    1
    32    15    31    1
    33    19    32    1
    34    20    33    1
    35    21    34    1
@<TRIPOS>MOLECULE
mol49_1_21
 34 35 0 0 0
SMALL
USER_CHARGES
****
VDW energy = 112.46
@<TRIPOS>ATOM
   1 O1        3.4420    -9.1855    -5.2979  O.2     1  <O>11      -0.2451
   2 C1        2.8552    -9.8129    -4.4288  C.2     1  <O>11       0.3370
   3 O2        3.5096   -10.1823    -3.3012  O.3     1  <O>11      -0.4771
   4 C2        1.4620   -10.1610    -4.6040  C.ar    1  <O>11       0.0640
   5 C3        1.0134   -11.4175    -4.1926  C.ar    1  <O>11      -0.0061
   6 C4       -0.3305   -11.7649    -4.3706  C.ar    1  <O>11       0.1194
   7 O3       -0.7471   -12.9308    -3.9927  O.3     1  <O>11      -0.5067
   8 C5       -1.2205   -10.8590    -4.9532  C.ar    1  <O>11       0.0007
   9 C6       -0.7568    -9.6008    -5.3553  C.ar    1  <O>11       0.0316
  10 N1       -1.6793    -8.6703    -5.9544  N.pl3   1  <O>11      -0.3396
  11 C7       -2.7776    -8.1206    -5.1640  C.3     1  <O>11       0.0344
  12 C8       -3.7465    -9.2013    -4.8452  C.ar    1  <O>11      -0.0283
  13 C9       -4.6901    -9.6115    -5.8039  C.ar    1  <O>11      -0.0569
  14 C10      -5.6111   -10.6199    -5.4980  C.ar    1  <O>11      -0.0593
  15 C11      -5.5968   -11.2289    -4.2407  C.ar    1  <O>11      -0.0316
  16 C12      -4.6520   -10.8245    -3.2907  C.ar    1  <O>11       0.1219
  17 N2       -4.6403   -11.4564    -1.9954  N.4     1  <O>11       0.0060
  18 O4       -5.1095   -12.8213    -2.1201  O.2     1  <O>11      -0.1300
  19 O5       -5.5103   -10.7258    -1.0927  O.2     1  <O>11      -0.3961
  20 C13      -3.7296    -9.8209    -3.5845  C.ar    1  <O>11      -0.0270
  21 C14       0.5801    -9.2441    -5.1802  C.ar    1  <O>11      -0.0266
  22 H1        2.9041   -10.6687    -2.7201  H       1  <O>11       0.2954
  23 H2       -1.6953   -13.0131    -4.1849  H       1  <O>11       0.2921
  24 H3       -1.5658    -8.3943    -6.9298  H       1  <O>11       0.1464
  25 H4       -3.2794    -7.3391    -5.7349  H       1  <O>11       0.0511
  26 H5       -2.3844    -7.6990    -4.2391  H       1  <O>11       0.0511
  27 H6        1.6693   -12.0865    -3.7596  H       1  <O>11       0.0662
  28 H7       -2.2113   -11.1153    -5.0861  H       1  <O>11       0.0672
  29 H8       -4.7035    -9.1676    -6.7355  H       1  <O>11       0.0621
  30 H9       -6.3036   -10.9148    -6.2040  H       1  <O>11       0.0618
  31 H10      -6.2773   -11.9709    -4.0143  H       1  <O>11       0.0640
  32 H11      -5.3401    -9.8236    -0.9059  H       1  <O>11       0.3292
  33 H12      -3.0354    -9.5338    -2.8770  H       1  <O>11       0.0643
  34 H13       0.9141    -8.3127    -5.4733  H       1  <O>11       0.0644
@<TRIPOS>BOND
     1     1     2    2
     2     2     3    1
     3     2     4    1
     4     4     5   ar
     5     5     6   ar
     6     6     7    1
     7     6     8   ar
     8     8     9   ar
     9     9    10    1
    10    10    11    1
    11    11    12    1
    12    12    13   ar
    13    13    14   ar
    14    14    15   ar
    15    15    16   ar
    16    16    17    1
    17    17    18    2
    18    17    19    1
    19    16    20   ar
    20    12    20   ar
    21     9    21   ar
    22     4    21   ar
    23     3    22    1
    24     7    23    1
    25    10    24    1
    26    11    25    1
    27    11    26    1
    28     5    27    1
    29     8    28    1
    30    13    29    1
    31    14    30    1
    32    15    31    1
    33    19    32    1
    34    20    33    1
    35    21    34    1
@<TRIPOS>MOLECULE
mol49_1_22
 34 35 0 0 0
SMALL
USER_CHARGES
****
VDW energy = 112.60
@<TRIPOS>ATOM
   1 O1        3.4420    -9.1855    -5.2979  O.2     1  <O>11      -0.2451
   2 C1        2.8552    -9.8129    -4.4288  C.2     1  <O>11       0.3370
   3 O2        3.5096   -10.1823    -3.3012  O.3     1  <O>11      -0.4771
   4 C2        1.4620   -10.1610    -4.6040  C.ar    1  <O>11       0.0640
   5 C3        0.4750    -9.2817    -4.1546  C.ar    1  <O>11      -0.0061
   6 C4       -0.8745    -9.6183    -4.3101  C.ar    1  <O>11       0.1194
   7 O3       -1.7906    -8.8055    -3.8909  O.3     1  <O>11      -0.5067
   8 C5       -1.2337   -10.8255    -4.9148  C.ar    1  <O>11       0.0007
   9 C6       -0.2326   -11.6941    -5.3653  C.ar    1  <O>11       0.0316
  10 N1       -0.6088   -12.9371    -5.9892  N.pl3   1  <O>11      -0.3396
  11 C7       -1.3119   -12.9274    -7.2693  C.3     1  <O>11       0.0344
  12 C8       -0.4162   -12.3800    -8.3213  C.ar    1  <O>11      -0.0283
  13 C9        0.0947   -11.0748    -8.2070  C.ar    1  <O>11      -0.0569
  14 C10       0.9272   -10.5552    -9.2049  C.ar    1  <O>11      -0.0593
  15 C11       1.2600   -11.3304   -10.3184  C.ar    1  <O>11      -0.0316
  16 C12       0.7566   -12.6319   -10.4265  C.ar    1  <O>11       0.1219
  17 N2        1.1035   -13.4282   -11.5766  N.4     1  <O>11       0.0060
  18 O4        0.3650   -14.6739   -11.5416  O.2     1  <O>11      -0.1300
  19 O5        2.5271   -13.7086   -11.5595  O.2     1  <O>11      -0.3961
  20 C13      -0.0735   -13.1598    -9.4383  C.ar    1  <O>11      -0.0270
  21 C14       1.1151   -11.3668    -5.2172  C.ar    1  <O>11      -0.0266
  22 H1        2.9041   -10.6687    -2.7201  H       1  <O>11       0.2954
  23 H2       -2.6661    -9.1840    -4.0725  H       1  <O>11       0.2921
  24 H3       -0.3841   -13.8240    -5.5382  H       1  <O>11       0.1464
  25 H4       -2.2023   -12.3035    -7.1892  H       1  <O>11       0.0511
  26 H5       -1.6033   -13.9443    -7.5317  H       1  <O>11       0.0511
  27 H6        0.7391    -8.3884    -3.7103  H       1  <O>11       0.0662
  28 H7       -2.2287   -11.0748    -5.0282  H       1  <O>11       0.0672
  29 H8       -0.1449   -10.4985    -7.3851  H       1  <O>11       0.0621
  30 H9        1.2967    -9.5957    -9.1177  H       1  <O>11       0.0618
  31 H10       1.8720   -10.9466   -11.0554  H       1  <O>11       0.0640
  32 H11       3.1437   -13.0034   -11.5782  H       1  <O>11       0.3292
  33 H12      -0.4356   -14.1220    -9.5274  H       1  <O>11       0.0643
  34 H13       1.8481   -12.0089    -5.5570  H       1  <O>11       0.0644
@<TRIPOS>BOND
     1     1     2    2
     2     2     3    1
     3     2     4    1
     4     4     5   ar
     5     5     6   ar
     6     6     7    1
     7     6     8   ar
     8     8     9   ar
     9     9    10    1
    10    10    11    1
    11    11    12    1
    12    12    13   ar
    13    13    14   ar
    14    14    15   ar
    15    15    16   ar
    16    16    17    1
    17    17    18    2
    18    17    19    1
    19    16    20   ar
    20    12    20   ar
    21     9    21   ar
    22     4    21   ar
    23     3    22    1
    24     7    23    1
    25    10    24    1
    26    11    25    1
    27    11    26    1
    28     5    27    1
    29     8    28    1
    30    13    29    1
    31    14    30    1
    32    15    31    1
    33    19    32    1
    34    20    33    1
    35    21    34    1
@<TRIPOS>MOLECULE
mol49_1_23
 34 35 0 0 0
SMALL
USER_CHARGES
****
VDW energy = 113.49
@<TRIPOS>ATOM
   1 O1        3.4420    -9.1855    -5.2979  O.2     1  <O>11      -0.2451
   2 C1        2.8552    -9.8129    -4.4288  C.2     1  <O>11       0.3370
   3 O2        3.5096   -10.1823    -3.3012  O.3     1  <O>11      -0.4771
   4 C2        1.4620   -10.1610    -4.6040  C.ar    1  <O>11       0.0640
   5 C3        0.4750    -9.2817    -4.1546  C.ar    1  <O>11      -0.0061
   6 C4       -0.8745    -9.6183    -4.3101  C.ar    1  <O>11       0.1194
   7 O3       -1.7906    -8.8055    -3.8909  O.3     1  <O>11      -0.5067
   8 C5       -1.2337   -10.8255    -4.9148  C.ar    1  <O>11       0.0007
   9 C6       -0.2326   -11.6941    -5.3653  C.ar    1  <O>11       0.0316
  10 N1       -0.6088   -12.9371    -5.9892  N.pl3   1  <O>11      -0.3396
  11 C7       -1.3119   -12.9274    -7.2693  C.3     1  <O>11       0.0344
  12 C8       -2.6747   -12.3658    -7.0808  C.ar    1  <O>11      -0.0283
  13 C9       -2.8960   -10.9837    -7.2176  C.ar    1  <O>11      -0.0569
  14 C10      -4.1772   -10.4540    -7.0264  C.ar    1  <O>11      -0.0593
  15 C11      -5.2455   -11.2942    -6.7031  C.ar    1  <O>11      -0.0316
  16 C12      -5.0248   -12.6703    -6.5750  C.ar    1  <O>11       0.1219
  17 N2       -6.1301   -13.5332    -6.2424  N.4     1  <O>11       0.0060
  18 O4       -6.1628   -13.7452    -4.8098  O.2     1  <O>11      -0.1300
  19 O5       -5.9691   -14.8077    -6.9170  O.2     1  <O>11      -0.3961
  20 C13      -3.7525   -13.2090    -6.7633  C.ar    1  <O>11      -0.0270
  21 C14       1.1151   -11.3668    -5.2172  C.ar    1  <O>11      -0.0266
  22 H1        2.9041   -10.6687    -2.7201  H       1  <O>11       0.2954
  23 H2       -2.6661    -9.1840    -4.0725  H       1  <O>11       0.2921
  24 H3       -0.3841   -13.8240    -5.5382  H       1  <O>11       0.1464
  25 H4       -1.3878   -13.9465    -7.6489  H       1  <O>11       0.0511
  26 H5       -0.7605   -12.3145    -7.9823  H       1  <O>11       0.0511
  27 H6        0.7391    -8.3884    -3.7103  H       1  <O>11       0.0662
  28 H7       -2.2287   -11.0748    -5.0282  H       1  <O>11       0.0672
  29 H8       -2.1114   -10.3585    -7.4595  H       1  <O>11       0.0621
  30 H9       -4.3334    -9.4387    -7.1247  H       1  <O>11       0.0618
  31 H10      -6.1898   -10.9033    -6.5600  H       1  <O>11       0.0640
  32 H11      -5.9297   -14.8409    -7.8526  H       1  <O>11       0.3292
  33 H12      -3.6028   -14.2258    -6.6696  H       1  <O>11       0.0643
  34 H13       1.8481   -12.0089    -5.5570  H       1  <O>11       0.0644
@<TRIPOS>BOND
     1     1     2    2
     2     2     3    1
     3     2     4    1
     4     4     5   ar
     5     5     6   ar
     6     6     7    1
     7     6     8   ar
     8     8     9   ar
     9     9    10    1
    10    10    11    1
    11    11    12    1
    12    12    13   ar
    13    13    14   ar
    14    14    15   ar
    15    15    16   ar
    16    16    17    1
    17    17    18    2
    18    17    19    1
    19    16    20   ar
    20    12    20   ar
    21     9    21   ar
    22     4    21   ar
    23     3    22    1
    24     7    23    1
    25    10    24    1
    26    11    25    1
    27    11    26    1
    28     5    27    1
    29     8    28    1
    30    13    29    1
    31    14    30    1
    32    15    31    1
    33    19    32    1
    34    20    33    1
    35    21    34    1
@<TRIPOS>MOLECULE
mol49_1_24
 34 35 0 0 0
SMALL
USER_CHARGES
****
VDW energy = 113.60
@<TRIPOS>ATOM
   1 O1        3.4420    -9.1855    -5.2979  O.2     1  <O>11      -0.2451
   2 C1        2.8552    -9.8129    -4.4288  C.2     1  <O>11       0.3370
   3 O2        3.5096   -10.1823    -3.3012  O.3     1  <O>11      -0.4771
   4 C2        1.4620   -10.1610    -4.6040  C.ar    1  <O>11       0.0640
   5 C3        1.1306   -11.3698    -5.2192  C.ar    1  <O>11      -0.0061
   6 C4       -0.2153   -11.7066    -5.4026  C.ar    1  <O>11       0.1194
   7 O3       -0.5240   -12.8254    -5.9759  O.3     1  <O>11      -0.5067
   8 C5       -1.2229   -10.8409    -4.9699  C.ar    1  <O>11       0.0007
   9 C6       -0.8747    -9.6351    -4.3496  C.ar    1  <O>11       0.0316
  10 N1       -1.9179    -8.7469    -3.9043  N.pl3   1  <O>11      -0.3396
  11 C7       -1.6469    -7.7744    -2.8488  C.3     1  <O>11       0.0344
  12 C8       -1.4167    -8.4882    -1.5659  C.ar    1  <O>11      -0.0283
  13 C9       -0.1190    -8.8904    -1.2027  C.ar    1  <O>11      -0.0569
  14 C10       0.0949    -9.5747    -0.0007  C.ar    1  <O>11      -0.0593
  15 C11      -0.9776    -9.8588     0.8483  C.ar    1  <O>11      -0.0316
  16 C12      -2.2672    -9.4509     0.4886  C.ar    1  <O>11       0.1219
  17 N2       -3.3703    -9.7452     1.3681  N.4     1  <O>11       0.0060
  18 O4       -4.0061   -10.9775     0.9490  O.2     1  <O>11      -0.1300
  19 O5       -4.3334    -8.6612     1.3160  O.2     1  <O>11      -0.3961
  20 C13      -2.4919    -8.7685    -0.7065  C.ar    1  <O>11      -0.0270
  21 C14       0.4636    -9.2913    -4.1600  C.ar    1  <O>11      -0.0266
  22 H1        2.9041   -10.6687    -2.7201  H       1  <O>11       0.2954
  23 H2       -1.4903   -12.9071    -6.0259  H       1  <O>11       0.2921
  24 H3       -2.8456    -8.7958    -4.3257  H       1  <O>11       0.1464
  25 H4       -2.5011    -7.1052    -2.7444  H       1  <O>11       0.0511
  26 H5       -0.7609    -7.1946    -3.1075  H       1  <O>11       0.0511
  27 H6        1.8739   -12.0113    -5.5368  H       1  <O>11       0.0662
  28 H7       -2.2155   -11.0882    -5.1063  H       1  <O>11       0.0672
  29 H8        0.6777    -8.6805    -1.8241  H       1  <O>11       0.0621
  30 H9        1.0487    -9.8705     0.2595  H       1  <O>11       0.0618
  31 H10      -0.8203   -10.3653     1.7336  H       1  <O>11       0.0640
  32 H11      -4.0759    -7.7936     1.5586  H       1  <O>11       0.3292
  33 H12      -3.4468    -8.4697    -0.9592  H       1  <O>11       0.0643
  34 H13       0.7134    -8.4037    -3.6966  H       1  <O>11       0.0644
@<TRIPOS>BOND
     1     1     2    2
     2     2     3    1
     3     2     4    1
     4     4     5   ar
     5     5     6   ar
     6     6     7    1
     7     6     8   ar
     8     8     9   ar
     9     9    10    1
    10    10    11    1
    11    11    12    1
    12    12    13   ar
    13    13    14   ar
    14    14    15   ar
    15    15    16   ar
    16    16    17    1
    17    17    18    2
    18    17    19    1
    19    16    20   ar
    20    12    20   ar
    21     9    21   ar
    22     4    21   ar
    23     3    22    1
    24     7    23    1
    25    10    24    1
    26    11    25    1
    27    11    26    1
    28     5    27    1
    29     8    28    1
    30    13    29    1
    31    14    30    1
    32    15    31    1
    33    19    32    1
    34    20    33    1
    35    21    34    1
@<TRIPOS>MOLECULE
mol49_1_25
 34 35 0 0 0
SMALL
USER_CHARGES
****
VDW energy = 115.23
@<TRIPOS>ATOM
   1 O1        3.4420    -9.1855    -5.2979  O.2     1  <O>11      -0.2451
   2 C1        2.8552    -9.8129    -4.4288  C.2     1  <O>11       0.3370
   3 O2        3.5096   -10.1823    -3.3012  O.3     1  <O>11      -0.4771
   4 C2        1.4620   -10.1610    -4.6040  C.ar    1  <O>11       0.0640
   5 C3        1.0134   -11.4175    -4.1926  C.ar    1  <O>11      -0.0061
   6 C4       -0.3305   -11.7649    -4.3706  C.ar    1  <O>11       0.1194
   7 O3       -0.7471   -12.9308    -3.9927  O.3     1  <O>11      -0.5067
   8 C5       -1.2205   -10.8590    -4.9532  C.ar    1  <O>11       0.0007
   9 C6       -0.7568    -9.6008    -5.3553  C.ar    1  <O>11       0.0316
  10 N1       -1.6793    -8.6703    -5.9544  N.pl3   1  <O>11      -0.3396
  11 C7       -2.7776    -8.1206    -5.1640  C.3     1  <O>11       0.0344
  12 C8       -2.2274    -7.2655    -4.0803  C.ar    1  <O>11      -0.0283
  13 C9       -1.3602    -7.8130    -3.1180  C.ar    1  <O>11      -0.0569
  14 C10      -0.8533    -7.0101    -2.0898  C.ar    1  <O>11      -0.0593
  15 C11      -1.2012    -5.6592    -2.0147  C.ar    1  <O>11      -0.0316
  16 C12      -2.0584    -5.1145    -2.9777  C.ar    1  <O>11       0.1219
  17 N2       -2.4136    -3.7201    -2.8968  N.4     1  <O>11       0.0060
  18 O4       -3.4081    -3.4161    -3.9052  O.2     1  <O>11      -0.1300
  19 O5       -1.2333    -2.9062    -3.1198  O.2     1  <O>11      -0.3961
  20 C13      -2.5692    -5.9050    -4.0066  C.ar    1  <O>11      -0.0270
  21 C14       0.5801    -9.2441    -5.1802  C.ar    1  <O>11      -0.0266
  22 H1        2.9041   -10.6687    -2.7201  H       1  <O>11       0.2954
  23 H2       -1.6953   -13.0131    -4.1849  H       1  <O>11       0.2921
  24 H3       -1.5658    -8.3943    -6.9298  H       1  <O>11       0.1464
  25 H4       -3.3532    -8.9366    -4.7266  H       1  <O>11       0.0511
  26 H5       -3.4246    -7.5235    -5.8065  H       1  <O>11       0.0511
  27 H6        1.6693   -12.0865    -3.7596  H       1  <O>11       0.0662
  28 H7       -2.2113   -11.1153    -5.0861  H       1  <O>11       0.0672
  29 H8       -1.0969    -8.8095    -3.1702  H       1  <O>11       0.0621
  30 H9       -0.2200    -7.4177    -1.3844  H       1  <O>11       0.0618
  31 H10      -0.8293    -5.0677    -1.2553  H       1  <O>11       0.0640
  32 H11      -0.4949    -2.9852    -2.5484  H       1  <O>11       0.3292
  33 H12      -3.1976    -5.4911    -4.7129  H       1  <O>11       0.0643
  34 H13       0.9141    -8.3127    -5.4733  H       1  <O>11       0.0644
@<TRIPOS>BOND
     1     1     2    2
     2     2     3    1
     3     2     4    1
     4     4     5   ar
     5     5     6   ar
     6     6     7    1
     7     6     8   ar
     8     8     9   ar
     9     9    10    1
    10    10    11    1
    11    11    12    1
    12    12    13   ar
    13    13    14   ar
    14    14    15   ar
    15    15    16   ar
    16    16    17    1
    17    17    18    2
    18    17    19    1
    19    16    20   ar
    20    12    20   ar
    21     9    21   ar
    22     4    21   ar
    23     3    22    1
    24     7    23    1
    25    10    24    1
    26    11    25    1
    27    11    26    1
    28     5    27    1
    29     8    28    1
    30    13    29    1
    31    14    30    1
    32    15    31    1
    33    19    32    1
    34    20    33    1
    35    21    34    1
@<TRIPOS>MOLECULE
mol49_1_26
 34 35 0 0 0
SMALL
USER_CHARGES
****
VDW energy = 115.43
@<TRIPOS>ATOM
   1 O1        3.4420    -9.1855    -5.2979  O.2     1  <O>11      -0.2451
   2 C1        2.8552    -9.8129    -4.4288  C.2     1  <O>11       0.3370
   3 O2        3.5096   -10.1823    -3.3012  O.3     1  <O>11      -0.4771
   4 C2        1.4620   -10.1610    -4.6040  C.ar    1  <O>11       0.0640
   5 C3        1.0134   -11.4175    -4.1926  C.ar    1  <O>11      -0.0061
   6 C4       -0.3305   -11.7649    -4.3706  C.ar    1  <O>11       0.1194
   7 O3       -0.7471   -12.9308    -3.9927  O.3     1  <O>11      -0.5067
   8 C5       -1.2205   -10.8590    -4.9532  C.ar    1  <O>11       0.0007
   9 C6       -0.7568    -9.6008    -5.3553  C.ar    1  <O>11       0.0316
  10 N1       -1.6793    -8.6703    -5.9544  N.pl3   1  <O>11      -0.3396
  11 C7       -1.3942    -7.2382    -5.9234  C.3     1  <O>11       0.0344
  12 C8       -1.4798    -6.7472    -4.5234  C.ar    1  <O>11      -0.0283
  13 C9       -0.3392    -6.7518    -3.7007  C.ar    1  <O>11      -0.0569
  14 C10      -0.4239    -6.3019    -2.3781  C.ar    1  <O>11      -0.0593
  15 C11      -1.6399    -5.8412    -1.8675  C.ar    1  <O>11      -0.0316
  16 C12      -2.7721    -5.8302    -2.6902  C.ar    1  <O>11       0.1219
  17 N2       -4.0241    -5.3530    -2.1594  N.4     1  <O>11       0.0060
  18 O4       -4.8013    -6.4748    -1.6738  O.2     1  <O>11      -0.1300
  19 O5       -4.7628    -4.6679    -3.2037  O.2     1  <O>11      -0.3961
  20 C13      -2.6993    -6.2760    -4.0095  C.ar    1  <O>11      -0.0270
  21 C14       0.5801    -9.2441    -5.1802  C.ar    1  <O>11      -0.0266
  22 H1        2.9041   -10.6687    -2.7201  H       1  <O>11       0.2954
  23 H2       -1.6953   -13.0131    -4.1849  H       1  <O>11       0.2921
  24 H3       -2.5310    -9.0105    -6.4009  H       1  <O>11       0.1464
  25 H4       -2.1226    -6.7101    -6.5390  H       1  <O>11       0.0511
  26 H5       -0.3919    -7.0585    -6.3120  H       1  <O>11       0.0511
  27 H6        1.6693   -12.0865    -3.7596  H       1  <O>11       0.0662
  28 H7       -2.2113   -11.1153    -5.0861  H       1  <O>11       0.0672
  29 H8        0.5626    -7.0879    -4.0732  H       1  <O>11       0.0621
  30 H9        0.4154    -6.3106    -1.7777  H       1  <O>11       0.0618
  31 H10      -1.7029    -5.5116    -0.8917  H       1  <O>11       0.0640
  32 H11      -4.3932    -3.9157    -3.6226  H       1  <O>11       0.3292
  33 H12      -3.5402    -6.2598    -4.6075  H       1  <O>11       0.0643
  34 H13       0.9141    -8.3127    -5.4733  H       1  <O>11       0.0644
@<TRIPOS>BOND
     1     1     2    2
     2     2     3    1
     3     2     4    1
     4     4     5   ar
     5     5     6   ar
     6     6     7    1
     7     6     8   ar
     8     8     9   ar
     9     9    10    1
    10    10    11    1
    11    11    12    1
    12    12    13   ar
    13    13    14   ar
    14    14    15   ar
    15    15    16   ar
    16    16    17    1
    17    17    18    2
    18    17    19    1
    19    16    20   ar
    20    12    20   ar
    21     9    21   ar
    22     4    21   ar
    23     3    22    1
    24     7    23    1
    25    10    24    1
    26    11    25    1
    27    11    26    1
    28     5    27    1
    29     8    28    1
    30    13    29    1
    31    14    30    1
    32    15    31    1
    33    19    32    1
    34    20    33    1
    35    21    34    1
@<TRIPOS>MOLECULE
mol49_1_27
 34 35 0 0 0
SMALL
USER_CHARGES
****
VDW energy = 121.57
@<TRIPOS>ATOM
   1 O1        3.4420    -9.1855    -5.2979  O.2     1  <O>11      -0.2451
   2 C1        2.8552    -9.8129    -4.4288  C.2     1  <O>11       0.3370
   3 O2        3.5096   -10.1823    -3.3012  O.3     1  <O>11      -0.4771
   4 C2        1.4620   -10.1610    -4.6040  C.ar    1  <O>11       0.0640
   5 C3        0.8011    -9.7734    -5.7712  C.ar    1  <O>11      -0.0061
   6 C4       -0.5499   -10.0964    -5.9412  C.ar    1  <O>11       0.1194
   7 O3       -1.1647    -9.7348    -7.0214  O.3     1  <O>11      -0.5067
   8 C5       -1.2340   -10.8060    -4.9510  C.ar    1  <O>11       0.0007
   9 C6       -0.5561   -11.1926    -3.7888  C.ar    1  <O>11       0.0316
  10 N1       -1.2663   -11.9251    -2.7716  N.pl3   1  <O>11      -0.3396
  11 C7       -0.5302   -12.7589    -1.8248  C.3     1  <O>11       0.0344
  12 C8        0.0626   -13.9171    -2.5428  C.ar    1  <O>11      -0.0283
  13 C9        1.3514   -13.8218    -3.0975  C.ar    1  <O>11      -0.0569
  14 C10       1.9035   -14.9084    -3.7852  C.ar    1  <O>11      -0.0593
  15 C11       1.1807   -16.0962    -3.9217  C.ar    1  <O>11      -0.0316
  16 C12      -0.0987   -16.1916    -3.3623  C.ar    1  <O>11       0.1219
  17 N2       -0.8401   -17.4192    -3.5047  N.4     1  <O>11       0.0060
  18 O4       -1.7159   -17.3235    -4.6547  O.2     1  <O>11      -0.1300
  19 O5       -1.6320   -17.6476    -2.3106  O.2     1  <O>11      -0.3961
  20 C13      -0.6586   -15.1153    -2.6749  C.ar    1  <O>11      -0.0270
  21 C14       0.7909   -10.8776    -3.6108  C.ar    1  <O>11      -0.0266
  22 H1        2.9041   -10.6687    -2.7201  H       1  <O>11       0.2954
  23 H2       -2.0878   -10.0338    -6.9834  H       1  <O>11       0.2921
  24 H3       -2.2826   -11.8617    -2.7113  H       1  <O>11       0.1464
  25 H4       -1.2111   -13.1191    -1.0534  H       1  <O>11       0.0511
  26 H5        0.2632   -12.1712    -1.3633  H       1  <O>11       0.0511
  27 H6        1.3061    -9.2516    -6.5046  H       1  <O>11       0.0662
  28 H7       -2.2307   -11.0431    -5.0753  H       1  <O>11       0.0672
  29 H8        1.8915   -12.9481    -2.9971  H       1  <O>11       0.0621
  30 H9        2.8483   -14.8320    -4.1932  H       1  <O>11       0.0618
  31 H10       1.5868   -16.8967    -4.4307  H       1  <O>11       0.0640
  32 H11      -1.2105   -17.7331    -1.4781  H       1  <O>11       0.3292
  33 H12      -1.6014   -15.1989    -2.2638  H       1  <O>11       0.0643
  34 H13       1.2863   -11.1709    -2.7543  H       1  <O>11       0.0644
@<TRIPOS>BOND
     1     1     2    2
     2     2     3    1
     3     2     4    1
     4     4     5   ar
     5     5     6   ar
     6     6     7    1
     7     6     8   ar
     8     8     9   ar
     9     9    10    1
    10    10    11    1
    11    11    12    1
    12    12    13   ar
    13    13    14   ar
    14    14    15   ar
    15    15    16   ar
    16    16    17    1
    17    17    18    2
    18    17    19    1
    19    16    20   ar
    20    12    20   ar
    21     9    21   ar
    22     4    21   ar
    23     3    22    1
    24     7    23    1
    25    10    24    1
    26    11    25    1
    27    11    26    1
    28     5    27    1
    29     8    28    1
    30    13    29    1
    31    14    30    1
    32    15    31    1
    33    19    32    1
    34    20    33    1
    35    21    34    1
@<TRIPOS>MOLECULE
mol49_1_28
 34 35 0 0 0
SMALL
USER_CHARGES
****
VDW energy = 130.76
@<TRIPOS>ATOM
   1 O1        3.4420    -9.1855    -5.2979  O.2     1  <O>11      -0.2451
   2 C1        2.8552    -9.8129    -4.4288  C.2     1  <O>11       0.3370
   3 O2        3.5096   -10.1823    -3.3012  O.3     1  <O>11      -0.4771
   4 C2        1.4620   -10.1610    -4.6040  C.ar    1  <O>11       0.0640
   5 C3        1.0134   -11.4175    -4.1926  C.ar    1  <O>11      -0.0061
   6 C4       -0.3305   -11.7649    -4.3706  C.ar    1  <O>11       0.1194
   7 O3       -0.7471   -12.9308    -3.9927  O.3     1  <O>11      -0.5067
   8 C5       -1.2205   -10.8590    -4.9532  C.ar    1  <O>11       0.0007
   9 C6       -0.7568    -9.6008    -5.3553  C.ar    1  <O>11       0.0316
  10 N1       -1.6793    -8.6703    -5.9544  N.pl3   1  <O>11      -0.3396
  11 C7       -1.3942    -7.2382    -5.9234  C.3     1  <O>11       0.0344
  12 C8       -1.4798    -6.7472    -4.5234  C.ar    1  <O>11      -0.0283
  13 C9       -0.6356    -7.2808    -3.5333  C.ar    1  <O>11      -0.0569
  14 C10      -0.7263    -6.8274    -2.2123  C.ar    1  <O>11      -0.0593
  15 C11      -1.6521    -5.8392    -1.8690  C.ar    1  <O>11      -0.0316
  16 C12      -2.4861    -5.3040    -2.8573  C.ar    1  <O>11       0.1219
  17 N2       -3.4389    -4.2839    -2.4986  N.4     1  <O>11       0.0060
  18 O4       -4.7217    -4.8975    -2.2221  O.2     1  <O>11      -0.1300
  19 O5       -3.5779    -3.3442    -3.5955  O.2     1  <O>11      -0.3961
  20 C13      -2.4044    -5.7480    -4.1766  C.ar    1  <O>11      -0.0270
  21 C14       0.5801    -9.2441    -5.1802  C.ar    1  <O>11      -0.0266
  22 H1        2.9041   -10.6687    -2.7201  H       1  <O>11       0.2954
  23 H2       -1.6953   -13.0131    -4.1849  H       1  <O>11       0.2921
  24 H3       -2.5310    -9.0105    -6.4009  H       1  <O>11       0.1464
  25 H4       -2.1226    -6.7101    -6.5390  H       1  <O>11       0.0511
  26 H5       -0.3919    -7.0585    -6.3120  H       1  <O>11       0.0511
  27 H6        1.6693   -12.0865    -3.7596  H       1  <O>11       0.0662
  28 H7       -2.2113   -11.1153    -5.0861  H       1  <O>11       0.0672
  29 H8        0.0526    -8.0087    -3.7815  H       1  <O>11       0.0621
  30 H9       -0.1067    -7.2248    -1.4890  H       1  <O>11       0.0618
  31 H10      -1.7206    -5.5065    -0.8945  H       1  <O>11       0.0640
  32 H11      -2.8330    -2.8623    -3.8967  H       1  <O>11       0.3292
  33 H12      -3.0222    -5.3432    -4.8973  H       1  <O>11       0.0643
  34 H13       0.9141    -8.3127    -5.4733  H       1  <O>11       0.0644
@<TRIPOS>BOND
     1     1     2    2
     2     2     3    1
     3     2     4    1
     4     4     5   ar
     5     5     6   ar
     6     6     7    1
     7     6     8   ar
     8     8     9   ar
     9     9    10    1
    10    10    11    1
    11    11    12    1
    12    12    13   ar
    13    13    14   ar
    14    14    15   ar
    15    15    16   ar
    16    16    17    1
    17    17    18    2
    18    17    19    1
    19    16    20   ar
    20    12    20   ar
    21     9    21   ar
    22     4    21   ar
    23     3    22    1
    24     7    23    1
    25    10    24    1
    26    11    25    1
    27    11    26    1
    28     5    27    1
    29     8    28    1
    30    13    29    1
    31    14    30    1
    32    15    31    1
    33    19    32    1
    34    20    33    1
    35    21    34    1
@<TRIPOS>MOLECULE
mol49_1_29
 34 35 0 0 0
SMALL
USER_CHARGES
****
VDW energy = 139.24
@<TRIPOS>ATOM
   1 O1        3.4420    -9.1855    -5.2979  O.2     1  <O>11      -0.2451
   2 C1        2.8552    -9.8129    -4.4288  C.2     1  <O>11       0.3370
   3 O2        3.5096   -10.1823    -3.3012  O.3     1  <O>11      -0.4771
   4 C2        1.4620   -10.1610    -4.6040  C.ar    1  <O>11       0.0640
   5 C3        1.0134   -11.4175    -4.1926  C.ar    1  <O>11      -0.0061
   6 C4       -0.3305   -11.7649    -4.3706  C.ar    1  <O>11       0.1194
   7 O3       -0.7471   -12.9308    -3.9927  O.3     1  <O>11      -0.5067
   8 C5       -1.2205   -10.8590    -4.9532  C.ar    1  <O>11       0.0007
   9 C6       -0.7568    -9.6008    -5.3553  C.ar    1  <O>11       0.0316
  10 N1       -1.6793    -8.6703    -5.9544  N.pl3   1  <O>11      -0.3396
  11 C7       -2.7776    -8.1206    -5.1640  C.3     1  <O>11       0.0344
  12 C8       -2.2274    -7.2655    -4.0803  C.ar    1  <O>11      -0.0283
  13 C9       -3.0931    -6.6200    -3.1794  C.ar    1  <O>11      -0.0569
  14 C10      -2.5746    -5.8041    -2.1675  C.ar    1  <O>11      -0.0593
  15 C11      -1.1943    -5.6287    -2.0423  C.ar    1  <O>11      -0.0316
  16 C12      -0.3341    -6.2781    -2.9351  C.ar    1  <O>11       0.1219
  17 N2        1.0892    -6.0950    -2.8013  N.4     1  <O>11       0.0060
  18 O4        1.5236    -5.0299    -3.6818  O.2     1  <O>11      -0.1300
  19 O5        1.7709    -7.3256    -3.1568  O.2     1  <O>11      -0.3961
  20 C13      -0.8396    -7.0935    -3.9470  C.ar    1  <O>11      -0.0270
  21 C14       0.5801    -9.2441    -5.1802  C.ar    1  <O>11      -0.0266
  22 H1        2.9041   -10.6687    -2.7201  H       1  <O>11       0.2954
  23 H2       -1.6953   -13.0131    -4.1849  H       1  <O>11       0.2921
  24 H3       -1.5658    -8.3943    -6.9298  H       1  <O>11       0.1464
  25 H4       -3.3532    -8.9366    -4.7266  H       1  <O>11       0.0511
  26 H5       -3.4246    -7.5235    -5.8065  H       1  <O>11       0.0511
  27 H6        1.6693   -12.0865    -3.7596  H       1  <O>11       0.0662
  28 H7       -2.2113   -11.1153    -5.0861  H       1  <O>11       0.0672
  29 H8       -4.1136    -6.7484    -3.2649  H       1  <O>11       0.0621
  30 H9       -3.2146    -5.3301    -1.5112  H       1  <O>11       0.0618
  31 H10      -0.8121    -5.0252    -1.2975  H       1  <O>11       0.0640
  32 H11       1.5980    -8.1121    -2.6780  H       1  <O>11       0.3292
  33 H12      -0.1951    -7.5699    -4.5971  H       1  <O>11       0.0643
  34 H13       0.9141    -8.3127    -5.4733  H       1  <O>11       0.0644
@<TRIPOS>BOND
     1     1     2    2
     2     2     3    1
     3     2     4    1
     4     4     5   ar
     5     5     6   ar
     6     6     7    1
     7     6     8   ar
     8     8     9   ar
     9     9    10    1
    10    10    11    1
    11    11    12    1
    12    12    13   ar
    13    13    14   ar
    14    14    15   ar
    15    15    16   ar
    16    16    17    1
    17    17    18    2
    18    17    19    1
    19    16    20   ar
    20    12    20   ar
    21     9    21   ar
    22     4    21   ar
    23     3    22    1
    24     7    23    1
    25    10    24    1
    26    11    25    1
    27    11    26    1
    28     5    27    1
    29     8    28    1
    30    13    29    1
    31    14    30    1
    32    15    31    1
    33    19    32    1
    34    20    33    1
    35    21    34    1
@<TRIPOS>MOLECULE
mol49_1_30
 34 35 0 0 0
SMALL
USER_CHARGES
****
VDW energy = 146.96
@<TRIPOS>ATOM
   1 O1        3.4420    -9.1855    -5.2979  O.2     1  <O>11      -0.2451
   2 C1        2.8552    -9.8129    -4.4288  C.2     1  <O>11       0.3370
   3 O2        3.5096   -10.1823    -3.3012  O.3     1  <O>11      -0.4771
   4 C2        1.4620   -10.1610    -4.6040  C.ar    1  <O>11       0.0640
   5 C3        1.1306   -11.3698    -5.2192  C.ar    1  <O>11      -0.0061
   6 C4       -0.2153   -11.7066    -5.4026  C.ar    1  <O>11       0.1194
   7 O3       -0.5240   -12.8254    -5.9759  O.3     1  <O>11      -0.5067
   8 C5       -1.2229   -10.8409    -4.9699  C.ar    1  <O>11       0.0007
   9 C6       -0.8747    -9.6351    -4.3496  C.ar    1  <O>11       0.0316
  10 N1       -1.9179    -8.7469    -3.9043  N.pl3   1  <O>11      -0.3396
  11 C7       -2.8131    -9.1559    -2.8251  C.3     1  <O>11       0.0344
  12 C8       -2.0391    -9.2861    -1.5632  C.ar    1  <O>11      -0.0283
  13 C9       -2.6835    -9.6714    -0.3741  C.ar    1  <O>11      -0.0569
  14 C10      -1.9564    -9.7805     0.8167  C.ar    1  <O>11      -0.0593
  15 C11      -0.5854    -9.5121     0.8317  C.ar    1  <O>11      -0.0316
  16 C12       0.0555    -9.1362    -0.3543  C.ar    1  <O>11       0.1219
  17 N2        1.4701    -8.8614    -0.3341  N.4     1  <O>11       0.0060
  18 O4        1.6830    -7.4388    -0.1629  O.2     1  <O>11      -0.1300
  19 O5        2.0649    -9.2929    -1.5853  O.2     1  <O>11      -0.3961
  20 C13      -0.6590    -9.0244    -1.5465  C.ar    1  <O>11      -0.0270
  21 C14       0.4636    -9.2913    -4.1600  C.ar    1  <O>11      -0.0266
  22 H1        2.9041   -10.6687    -2.7201  H       1  <O>11       0.2954
  23 H2       -1.4903   -12.9071    -6.0259  H       1  <O>11       0.2921
  24 H3       -2.0317    -7.8322    -4.3414  H       1  <O>11       0.1464
  25 H4       -3.2665   -10.1155    -3.0742  H       1  <O>11       0.0511
  26 H5       -3.5948    -8.4071    -2.6977  H       1  <O>11       0.0511
  27 H6        1.8739   -12.0113    -5.5368  H       1  <O>11       0.0662
  28 H7       -2.2155   -11.0882    -5.1063  H       1  <O>11       0.0672
  29 H8       -3.6954    -9.8741    -0.3797  H       1  <O>11       0.0621
  30 H9       -2.4348   -10.0604     1.6871  H       1  <O>11       0.0618
  31 H10      -0.0497    -9.5904     1.7102  H       1  <O>11       0.0640
  32 H11       2.0127   -10.1922    -1.8433  H       1  <O>11       0.3292
  33 H12      -0.1746    -8.7498    -2.4154  H       1  <O>11       0.0643
  34 H13       0.7134    -8.4037    -3.6966  H       1  <O>11       0.0644
@<TRIPOS>BOND
     1     1     2    2
     2     2     3    1
     3     2     4    1
     4     4     5   ar
     5     5     6   ar
     6     6     7    1
     7     6     8   ar
     8     8     9   ar
     9     9    10    1
    10    10    11    1
    11    11    12    1
    12    12    13   ar
    13    13    14   ar
    14    14    15   ar
    15    15    16   ar
    16    16    17    1
    17    17    18    2
    18    17    19    1
    19    16    20   ar
    20    12    20   ar
    21     9    21   ar
    22     4    21   ar
    23     3    22    1
    24     7    23    1
    25    10    24    1
    26    11    25    1
    27    11    26    1
    28     5    27    1
    29     8    28    1
    30    13    29    1
    31    14    30    1
    32    15    31    1
    33    19    32    1
    34    20    33    1
    35    21    34    1
@<TRIPOS>MOLECULE
mol49_2_1
 34 35 0 0 0
SMALL
USER_CHARGES
****
VDW energy = 99.77
@<TRIPOS>ATOM
   1 O1        3.4420    -9.1855    -5.2979  O.2     1  <O>11      -0.2451
   2 C1        2.8552    -9.8129    -4.4288  C.2     1  <O>11       0.3370
   3 O2        3.5096   -10.1823    -3.3012  O.3     1  <O>11      -0.4771
   4 C2        1.4620   -10.1610    -4.6040  C.ar    1  <O>11       0.0640
   5 C3        1.1306   -11.3698    -5.2192  C.ar    1  <O>11      -0.0061
   6 C4       -0.2153   -11.7066    -5.4026  C.ar    1  <O>11       0.1194
   7 O3       -0.5240   -12.8254    -5.9759  O.3     1  <O>11      -0.5067
   8 C5       -1.2229   -10.8409    -4.9699  C.ar    1  <O>11       0.0007
   9 C6       -0.8747    -9.6351    -4.3496  C.ar    1  <O>11       0.0316
  10 N1       -1.9179    -8.7469    -3.9043  N.pl3   1  <O>11      -0.3396
  11 C7       -2.3974    -8.8151    -2.5263  C.3     1  <O>11       0.0344
  12 C8       -3.8825    -8.8450    -2.5201  C.ar    1  <O>11      -0.0283
  13 C9       -4.6134    -7.6634    -2.3167  C.ar    1  <O>11      -0.0569
  14 C10      -6.0136    -7.6941    -2.2984  C.ar    1  <O>11      -0.0593
  15 C11      -6.6929    -8.9004    -2.4854  C.ar    1  <O>11      -0.0316
  16 C12      -5.9636   -10.0768    -2.6930  C.ar    1  <O>11       0.1219
  17 N2       -6.6693   -11.3187    -2.8857  N.4     1  <O>11       0.0060
  18 O4       -6.1872   -12.3005    -1.9369  O.2     1  <O>11      -0.1300
  19 O5       -6.4437   -11.7975    -4.2353  O.2     1  <O>11      -0.3961
  20 C13      -4.5686   -10.0565    -2.7157  C.ar    1  <O>11      -0.0270
  21 C14       0.4636    -9.2913    -4.1600  C.ar    1  <O>11      -0.0266
  22 H1        2.9041   -10.6687    -2.7201  H       1  <O>11       0.2954
  23 H2       -1.4903   -12.9071    -6.0259  H       1  <O>11       0.2921
  24 H3       -2.3230    -8.0698    -4.5528  H       1  <O>11       0.1464
  25 H4       -2.0497    -7.9408    -1.9770  H       1  <O>11       0.0511
  26 H5       -2.0121    -9.7187    -2.0531  H       1  <O>11       0.0511
  27 H6        1.8739   -12.0113    -5.5368  H       1  <O>11       0.0662
  28 H7       -2.2155   -11.0882    -5.1063  H       1  <O>11       0.0672
  29 H8       -4.1170    -6.7690    -2.1802  H       1  <O>11       0.0621
  30 H9       -6.5452    -6.8227    -2.1461  H       1  <O>11       0.0618
  31 H10      -7.7246    -8.9239    -2.4708  H       1  <O>11       0.0640
  32 H11      -6.7022   -11.2735    -4.9678  H       1  <O>11       0.3292
  33 H12      -4.0414   -10.9292    -2.8757  H       1  <O>11       0.0643
  34 H13       0.7134    -8.4037    -3.6966  H       1  <O>11       0.0644
@<TRIPOS>BOND
     1     1     2    2
     2     2     3    1
     3     2     4    1
     4     4     5   ar
     5     5     6   ar
     6     6     7    1
     7     6     8   ar
     8     8     9   ar
     9     9    10    1
    10    10    11    1
    11    11    12    1
    12    12    13   ar
    13    13    14   ar
    14    14    15   ar
    15    15    16   ar
    16    16    17    1
    17    17    18    2
    18    17    19    1
    19    16    20   ar
    20    12    20   ar
    21     9    21   ar
    22     4    21   ar
    23     3    22    1
    24     7    23    1
    25    10    24    1
    26    11    25    1
    27    11    26    1
    28     5    27    1
    29     8    28    1
    30    13    29    1
    31    14    30    1
    32    15    31    1
    33    19    32    1
    34    20    33    1
    35    21    34    1
@<TRIPOS>MOLECULE
mol49_2_2
 34 35 0 0 0
SMALL
USER_CHARGES
****
VDW energy = 99.92
@<TRIPOS>ATOM
   1 O1        3.4420    -9.1855    -5.2979  O.2     1  <O>11      -0.2451
   2 C1        2.8552    -9.8129    -4.4288  C.2     1  <O>11       0.3370
   3 O2        3.5096   -10.1823    -3.3012  O.3     1  <O>11      -0.4771
   4 C2        1.4620   -10.1610    -4.6040  C.ar    1  <O>11       0.0640
   5 C3        0.4923    -9.1588    -4.5362  C.ar    1  <O>11      -0.0061
   6 C4       -0.8582    -9.4910    -4.6926  C.ar    1  <O>11       0.1194
   7 O3       -1.7586    -8.5633    -4.6266  O.3     1  <O>11      -0.5067
   8 C5       -1.2352   -10.8171    -4.9191  C.ar    1  <O>11       0.0007
   9 C6       -0.2508   -11.8098    -4.9902  C.ar    1  <O>11       0.0316
  10 N1       -0.6453   -13.1754    -5.2252  N.pl3   1  <O>11      -0.3396
  11 C7       -0.6647   -13.7070    -6.5855  C.3     1  <O>11       0.0344
  12 C8       -1.9505   -14.4118    -6.8231  C.ar    1  <O>11      -0.0283
  13 C9       -2.0299   -15.8065    -6.6813  C.ar    1  <O>11      -0.0569
  14 C10      -3.2395   -16.4721    -6.9176  C.ar    1  <O>11      -0.0593
  15 C11      -4.3763   -15.7523    -7.2932  C.ar    1  <O>11      -0.0316
  16 C12      -4.2974   -14.3615    -7.4295  C.ar    1  <O>11       0.1219
  17 N2       -5.4733   -13.6236    -7.8170  N.4     1  <O>11       0.0060
  18 O4       -5.1737   -12.8128    -8.9786  O.2     1  <O>11      -0.1300
  19 O5       -5.8884   -12.7680    -6.7227  O.2     1  <O>11      -0.3961
  20 C13      -3.0979   -13.6887    -7.1938  C.ar    1  <O>11      -0.0270
  21 C14       1.0979   -11.4888    -4.8380  C.ar    1  <O>11      -0.0266
  22 H1        2.9041   -10.6687    -2.7201  H       1  <O>11       0.2954
  23 H2       -2.6373    -8.9562    -4.7546  H       1  <O>11       0.2921
  24 H3       -0.9125   -13.7717    -4.4403  H       1  <O>11       0.1464
  25 H4        0.1613   -14.4058    -6.7142  H       1  <O>11       0.0511
  26 H5       -0.5612   -12.8868    -7.2964  H       1  <O>11       0.0511
  27 H6        0.7698    -8.1785    -4.3716  H       1  <O>11       0.0662
  28 H7       -2.2311   -11.0627    -5.0330  H       1  <O>11       0.0672
  29 H8       -1.1939   -16.3432    -6.4018  H       1  <O>11       0.0621
  30 H9       -3.2910   -17.4976    -6.8139  H       1  <O>11       0.0618
  31 H10      -5.2675   -16.2422    -7.4687  H       1  <O>11       0.0640
  32 H11      -6.1183   -13.1434    -5.8956  H       1  <O>11       0.3292
  33 H12      -3.0531   -12.6623    -7.2914  H       1  <O>11       0.0643
  34 H13       1.8191   -12.2246    -4.8976  H       1  <O>11       0.0644
@<TRIPOS>BOND
     1     1     2    2
     2     2     3    1
     3     2     4    1
     4     4     5   ar
     5     5     6   ar
     6     6     7    1
     7     6     8   ar
     8     8     9   ar
     9     9    10    1
    10    10    11    1
    11    11    12    1
    12    12    13   ar
    13    13    14   ar
    14    14    15   ar
    15    15    16   ar
    16    16    17    1
    17    17    18    2
    18    17    19    1
    19    16    20   ar
    20    12    20   ar
    21     9    21   ar
    22     4    21   ar
    23     3    22    1
    24     7    23    1
    25    10    24    1
    26    11    25    1
    27    11    26    1
    28     5    27    1
    29     8    28    1
    30    13    29    1
    31    14    30    1
    32    15    31    1
    33    19    32    1
    34    20    33    1
    35    21    34    1
@<TRIPOS>MOLECULE
mol49_2_3
 34 35 0 0 0
SMALL
USER_CHARGES
****
VDW energy = 101.16
@<TRIPOS>ATOM
   1 O1        3.4420    -9.1855    -5.2979  O.2     1  <O>11      -0.2451
   2 C1        2.8552    -9.8129    -4.4288  C.2     1  <O>11       0.3370
   3 O2        3.5096   -10.1823    -3.3012  O.3     1  <O>11      -0.4771
   4 C2        1.4620   -10.1610    -4.6040  C.ar    1  <O>11       0.0640
   5 C3        0.4923    -9.1588    -4.5362  C.ar    1  <O>11      -0.0061
   6 C4       -0.8582    -9.4910    -4.6926  C.ar    1  <O>11       0.1194
   7 O3       -1.7586    -8.5633    -4.6266  O.3     1  <O>11      -0.5067
   8 C5       -1.2352   -10.8171    -4.9191  C.ar    1  <O>11       0.0007
   9 C6       -0.2508   -11.8098    -4.9902  C.ar    1  <O>11       0.0316
  10 N1       -0.6453   -13.1754    -5.2252  N.pl3   1  <O>11      -0.3396
  11 C7       -0.6647   -13.7070    -6.5855  C.3     1  <O>11       0.0344
  12 C8       -1.9505   -14.4118    -6.8231  C.ar    1  <O>11      -0.0283
  13 C9       -2.0299   -15.8065    -6.6813  C.ar    1  <O>11      -0.0569
  14 C10      -3.2395   -16.4721    -6.9176  C.ar    1  <O>11      -0.0593
  15 C11      -4.3763   -15.7523    -7.2932  C.ar    1  <O>11      -0.0316
  16 C12      -4.2974   -14.3615    -7.4295  C.ar    1  <O>11       0.1219
  17 N2       -5.4733   -13.6236    -7.8170  N.4     1  <O>11       0.0060
  18 O4       -6.5594   -13.9357    -6.9118  O.2     1  <O>11      -0.1300
  19 O5       -5.8488   -13.9894    -9.1687  O.2     1  <O>11      -0.3961
  20 C13      -3.0979   -13.6887    -7.1938  C.ar    1  <O>11      -0.0270
  21 C14       1.0979   -11.4888    -4.8380  C.ar    1  <O>11      -0.0266
  22 H1        2.9041   -10.6687    -2.7201  H       1  <O>11       0.2954
  23 H2       -2.6373    -8.9562    -4.7546  H       1  <O>11       0.2921
  24 H3       -0.9125   -13.7717    -4.4403  H       1  <O>11       0.1464
  25 H4        0.1613   -14.4058    -6.7142  H       1  <O>11       0.0511
  26 H5       -0.5612   -12.8868    -7.2964  H       1  <O>11       0.0511
  27 H6        0.7698    -8.1785    -4.3716  H       1  <O>11       0.0662
  28 H7       -2.2311   -11.0627    -5.0330  H       1  <O>11       0.0672
  29 H8       -1.1939   -16.3432    -6.4018  H       1  <O>11       0.0621
  30 H9       -3.2910   -17.4976    -6.8139  H       1  <O>11       0.0618
  31 H10      -5.2675   -16.2422    -7.4687  H       1  <O>11       0.0640
  32 H11      -5.2498   -13.8495    -9.8755  H       1  <O>11       0.3292
  33 H12      -3.0531   -12.6623    -7.2914  H       1  <O>11       0.0643
  34 H13       1.8191   -12.2246    -4.8976  H       1  <O>11       0.0644
@<TRIPOS>BOND
     1     1     2    2
     2     2     3    1
     3     2     4    1
     4     4     5   ar
     5     5     6   ar
     6     6     7    1
     7     6     8   ar
     8     8     9   ar
     9     9    10    1
    10    10    11    1
    11    11    12    1
    12    12    13   ar
    13    13    14   ar
    14    14    15   ar
    15    15    16   ar
    16    16    17    1
    17    17    18    2
    18    17    19    1
    19    16    20   ar
    20    12    20   ar
    21     9    21   ar
    22     4    21   ar
    23     3    22    1
    24     7    23    1
    25    10    24    1
    26    11    25    1
    27    11    26    1
    28     5    27    1
    29     8    28    1
    30    13    29    1
    31    14    30    1
    32    15    31    1
    33    19    32    1
    34    20    33    1
    35    21    34    1
@<TRIPOS>MOLECULE
mol49_2_4
 34 35 0 0 0
SMALL
USER_CHARGES
****
VDW energy = 101.31
@<TRIPOS>ATOM
   1 O1        3.4420    -9.1855    -5.2979  O.2     1  <O>11      -0.2451
   2 C1        2.8552    -9.8129    -4.4288  C.2     1  <O>11       0.3370
   3 O2        3.5096   -10.1823    -3.3012  O.3     1  <O>11      -0.4771
   4 C2        1.4620   -10.1610    -4.6040  C.ar    1  <O>11       0.0640
   5 C3        0.4923    -9.1588    -4.5362  C.ar    1  <O>11      -0.0061
   6 C4       -0.8582    -9.4910    -4.6926  C.ar    1  <O>11       0.1194
   7 O3       -1.7586    -8.5633    -4.6266  O.3     1  <O>11      -0.5067
   8 C5       -1.2352   -10.8171    -4.9191  C.ar    1  <O>11       0.0007
   9 C6       -0.2508   -11.8098    -4.9902  C.ar    1  <O>11       0.0316
  10 N1       -0.6453   -13.1754    -5.2252  N.pl3   1  <O>11      -0.3396
  11 C7       -0.6647   -13.7070    -6.5855  C.3     1  <O>11       0.0344
  12 C8       -1.9505   -14.4118    -6.8231  C.ar    1  <O>11      -0.0283
  13 C9       -3.0566   -13.7135    -7.3334  C.ar    1  <O>11      -0.0569
  14 C10      -4.2726   -14.3755    -7.5454  C.ar    1  <O>11      -0.0593
  15 C11      -4.3924   -15.7364    -7.2534  C.ar    1  <O>11      -0.0316
  16 C12      -3.2878   -16.4327    -6.7493  C.ar    1  <O>11       0.1219
  17 N2       -3.4167   -17.8367    -6.4499  N.4     1  <O>11       0.0060
  18 O4       -3.0075   -18.0784    -5.0822  O.2     1  <O>11      -0.1300
  19 O5       -2.5754   -18.6012    -7.3497  O.2     1  <O>11      -0.3961
  20 C13      -2.0713   -15.7831    -6.5371  C.ar    1  <O>11      -0.0270
  21 C14       1.0979   -11.4888    -4.8380  C.ar    1  <O>11      -0.0266
  22 H1        2.9041   -10.6687    -2.7201  H       1  <O>11       0.2954
  23 H2       -2.6373    -8.9562    -4.7546  H       1  <O>11       0.2921
  24 H3       -0.9125   -13.7717    -4.4403  H       1  <O>11       0.1464
  25 H4        0.1613   -14.4058    -6.7142  H       1  <O>11       0.0511
  26 H5       -0.5612   -12.8868    -7.2964  H       1  <O>11       0.0511
  27 H6        0.7698    -8.1785    -4.3716  H       1  <O>11       0.0662
  28 H7       -2.2311   -11.0627    -5.0330  H       1  <O>11       0.0672
  29 H8       -2.9733   -12.7086    -7.5531  H       1  <O>11       0.0621
  30 H9       -5.0827   -13.8563    -7.9185  H       1  <O>11       0.0618
  31 H10      -5.2884   -16.2246    -7.4081  H       1  <O>11       0.0640
  32 H11      -2.7139   -18.5529    -8.2751  H       1  <O>11       0.3292
  33 H12      -1.2619   -16.3082    -6.1709  H       1  <O>11       0.0643
  34 H13       1.8191   -12.2246    -4.8976  H       1  <O>11       0.0644
@<TRIPOS>BOND
     1     1     2    2
     2     2     3    1
     3     2     4    1
     4     4     5   ar
     5     5     6   ar
     6     6     7    1
     7     6     8   ar
     8     8     9   ar
     9     9    10    1
    10    10    11    1
    11    11    12    1
    12    12    13   ar
    13    13    14   ar
    14    14    15   ar
    15    15    16   ar
    16    16    17    1
    17    17    18    2
    18    17    19    1
    19    16    20   ar
    20    12    20   ar
    21     9    21   ar
    22     4    21   ar
    23     3    22    1
    24     7    23    1
    25    10    24    1
    26    11    25    1
    27    11    26    1
    28     5    27    1
    29     8    28    1
    30    13    29    1
    31    14    30    1
    32    15    31    1
    33    19    32    1
    34    20    33    1
    35    21    34    1
@<TRIPOS>MOLECULE
mol49_2_5
 34 35 0 0 0
SMALL
USER_CHARGES
****
VDW energy = 101.67
@<TRIPOS>ATOM
   1 O1        3.4420    -9.1855    -5.2979  O.2     1  <O>11      -0.2451
   2 C1        2.8552    -9.8129    -4.4288  C.2     1  <O>11       0.3370
   3 O2        3.5096   -10.1823    -3.3012  O.3     1  <O>11      -0.4771
   4 C2        1.4620   -10.1610    -4.6040  C.ar    1  <O>11       0.0640
   5 C3        1.0134   -11.4175    -4.1926  C.ar    1  <O>11      -0.0061
   6 C4       -0.3305   -11.7649    -4.3706  C.ar    1  <O>11       0.1194
   7 O3       -0.7471   -12.9308    -3.9927  O.3     1  <O>11      -0.5067
   8 C5       -1.2205   -10.8590    -4.9532  C.ar    1  <O>11       0.0007
   9 C6       -0.7568    -9.6008    -5.3553  C.ar    1  <O>11       0.0316
  10 N1       -1.6793    -8.6703    -5.9544  N.pl3   1  <O>11      -0.3396
  11 C7       -2.3553    -7.6752    -5.1260  C.3     1  <O>11       0.0344
  12 C8       -3.8076    -7.6762    -5.4377  C.ar    1  <O>11      -0.0283
  13 C9       -4.3394    -6.7370    -6.3358  C.ar    1  <O>11      -0.0569
  14 C10      -5.7110    -6.7302    -6.6198  C.ar    1  <O>11      -0.0593
  15 C11      -6.5591    -7.6601    -6.0136  C.ar    1  <O>11      -0.0316
  16 C12      -6.0273    -8.5990    -5.1222  C.ar    1  <O>11       0.1219
  17 N2       -6.9067    -9.5564    -4.4996  N.4     1  <O>11       0.0060
  18 O4       -6.7466    -9.4956    -3.0619  O.2     1  <O>11      -0.1300
  19 O5       -6.5786   -10.8887    -4.9679  O.2     1  <O>11      -0.3961
  20 C13      -4.6620    -8.6159    -4.8346  C.ar    1  <O>11      -0.0270
  21 C14       0.5801    -9.2441    -5.1802  C.ar    1  <O>11      -0.0266
  22 H1        2.9041   -10.6687    -2.7201  H       1  <O>11       0.2954
  23 H2       -1.6953   -13.0131    -4.1849  H       1  <O>11       0.2921
  24 H3       -1.8612    -8.7071    -6.9587  H       1  <O>11       0.1464
  25 H4       -1.9406    -6.6889    -5.3318  H       1  <O>11       0.0511
  26 H5       -2.2076    -7.9193    -4.0736  H       1  <O>11       0.0511
  27 H6        1.6693   -12.0865    -3.7596  H       1  <O>11       0.0662
  28 H7       -2.2113   -11.1153    -5.0861  H       1  <O>11       0.0672
  29 H8       -3.7174    -6.0491    -6.7884  H       1  <O>11       0.0621
  30 H9       -6.0963    -6.0359    -7.2791  H       1  <O>11       0.0618
  31 H10      -7.5700    -7.6548    -6.2214  H       1  <O>11       0.0640
  32 H11      -6.6330   -11.0909    -5.8811  H       1  <O>11       0.3292
  33 H12      -4.2802    -9.3169    -4.1805  H       1  <O>11       0.0643
  34 H13       0.9141    -8.3127    -5.4733  H       1  <O>11       0.0644
@<TRIPOS>BOND
     1     1     2    2
     2     2     3    1
     3     2     4    1
     4     4     5   ar
     5     5     6   ar
     6     6     7    1
     7     6     8   ar
     8     8     9   ar
     9     9    10    1
    10    10    11    1
    11    11    12    1
    12    12    13   ar
    13    13    14   ar
    14    14    15   ar
    15    15    16   ar
    16    16    17    1
    17    17    18    2
    18    17    19    1
    19    16    20   ar
    20    12    20   ar
    21     9    21   ar
    22     4    21   ar
    23     3    22    1
    24     7    23    1
    25    10    24    1
    26    11    25    1
    27    11    26    1
    28     5    27    1
    29     8    28    1
    30    13    29    1
    31    14    30    1
    32    15    31    1
    33    19    32    1
    34    20    33    1
    35    21    34    1
@<TRIPOS>MOLECULE
mol49_2_6
 34 35 0 0 0
SMALL
USER_CHARGES
****
VDW energy = 101.75
@<TRIPOS>ATOM
   1 O1        3.4420    -9.1855    -5.2979  O.2     1  <O>11      -0.2451
   2 C1        2.8552    -9.8129    -4.4288  C.2     1  <O>11       0.3370
   3 O2        3.5096   -10.1823    -3.3012  O.3     1  <O>11      -0.4771
   4 C2        1.4620   -10.1610    -4.6040  C.ar    1  <O>11       0.0640
   5 C3        0.4923    -9.1588    -4.5362  C.ar    1  <O>11      -0.0061
   6 C4       -0.8582    -9.4910    -4.6926  C.ar    1  <O>11       0.1194
   7 O3       -1.7586    -8.5633    -4.6266  O.3     1  <O>11      -0.5067
   8 C5       -1.2352   -10.8171    -4.9191  C.ar    1  <O>11       0.0007
   9 C6       -0.2508   -11.8098    -4.9902  C.ar    1  <O>11       0.0316
  10 N1       -0.6453   -13.1754    -5.2252  N.pl3   1  <O>11      -0.3396
  11 C7       -1.4317   -13.8918    -4.2243  C.3     1  <O>11       0.0344
  12 C8       -0.8255   -15.2259    -3.9809  C.ar    1  <O>11      -0.0283
  13 C9        0.1516   -15.3885    -2.9857  C.ar    1  <O>11      -0.0569
  14 C10       0.7320   -16.6439    -2.7650  C.ar    1  <O>11      -0.0593
  15 C11       0.3405   -17.7441    -3.5318  C.ar    1  <O>11      -0.0316
  16 C12      -0.6371   -17.5821    -4.5203  C.ar    1  <O>11       0.1219
  17 N2       -1.0376   -18.7205    -5.3085  N.4     1  <O>11       0.0060
  18 O4       -1.4463   -19.7964    -4.4300  O.2     1  <O>11      -0.1300
  19 O5        0.0775   -19.1585    -6.1248  O.2     1  <O>11      -0.3961
  20 C13      -1.2234   -16.3362    -4.7462  C.ar    1  <O>11      -0.0270
  21 C14       1.0979   -11.4888    -4.8380  C.ar    1  <O>11      -0.0266
  22 H1        2.9041   -10.6687    -2.7201  H       1  <O>11       0.2954
  23 H2       -2.6373    -8.9562    -4.7546  H       1  <O>11       0.2921
  24 H3       -0.3742   -13.6430    -6.0917  H       1  <O>11       0.1464
  25 H4       -2.4519   -14.0172    -4.5854  H       1  <O>11       0.0511
  26 H5       -1.4423   -13.3207    -3.2954  H       1  <O>11       0.0511
  27 H6        0.7698    -8.1785    -4.3716  H       1  <O>11       0.0662
  28 H7       -2.2311   -11.0627    -5.0330  H       1  <O>11       0.0672
  29 H8        0.4432   -14.5798    -2.4146  H       1  <O>11       0.0621
  30 H9        1.4513   -16.7567    -2.0336  H       1  <O>11       0.0618
  31 H10       0.7687   -18.6692    -3.3706  H       1  <O>11       0.0640
  32 H11       0.4596   -18.5734    -6.7490  H       1  <O>11       0.3292
  33 H12      -1.9477   -16.2300    -5.4736  H       1  <O>11       0.0643
  34 H13       1.8191   -12.2246    -4.8976  H       1  <O>11       0.0644
@<TRIPOS>BOND
     1     1     2    2
     2     2     3    1
     3     2     4    1
     4     4     5   ar
     5     5     6   ar
     6     6     7    1
     7     6     8   ar
     8     8     9   ar
     9     9    10    1
    10    10    11    1
    11    11    12    1
    12    12    13   ar
    13    13    14   ar
    14    14    15   ar
    15    15    16   ar
    16    16    17    1
    17    17    18    2
    18    17    19    1
    19    16    20   ar
    20    12    20   ar
    21     9    21   ar
    22     4    21   ar
    23     3    22    1
    24     7    23    1
    25    10    24    1
    26    11    25    1
    27    11    26    1
    28     5    27    1
    29     8    28    1
    30    13    29    1
    31    14    30    1
    32    15    31    1
    33    19    32    1
    34    20    33    1
    35    21    34    1
@<TRIPOS>MOLECULE
mol49_2_7
 34 35 0 0 0
SMALL
USER_CHARGES
****
VDW energy = 101.82
@<TRIPOS>ATOM
   1 O1        3.4420    -9.1855    -5.2979  O.2     1  <O>11      -0.2451
   2 C1        2.8552    -9.8129    -4.4288  C.2     1  <O>11       0.3370
   3 O2        3.5096   -10.1823    -3.3012  O.3     1  <O>11      -0.4771
   4 C2        1.4620   -10.1610    -4.6040  C.ar    1  <O>11       0.0640
   5 C3        0.4923    -9.1588    -4.5362  C.ar    1  <O>11      -0.0061
   6 C4       -0.8582    -9.4910    -4.6926  C.ar    1  <O>11       0.1194
   7 O3       -1.7586    -8.5633    -4.6266  O.3     1  <O>11      -0.5067
   8 C5       -1.2352   -10.8171    -4.9191  C.ar    1  <O>11       0.0007
   9 C6       -0.2508   -11.8098    -4.9902  C.ar    1  <O>11       0.0316
  10 N1       -0.6453   -13.1754    -5.2252  N.pl3   1  <O>11      -0.3396
  11 C7       -0.6647   -13.7070    -6.5855  C.3     1  <O>11       0.0344
  12 C8       -1.7090   -13.0062    -7.3758  C.ar    1  <O>11      -0.0283
  13 C9       -2.9796   -13.5816    -7.5373  C.ar    1  <O>11      -0.0569
  14 C10      -3.9601   -12.9264    -8.2930  C.ar    1  <O>11      -0.0593
  15 C11      -3.6815   -11.6940    -8.8891  C.ar    1  <O>11      -0.0316
  16 C12      -2.4163   -11.1189    -8.7235  C.ar    1  <O>11       0.1219
  17 N2       -2.1341    -9.8472    -9.3403  N.4     1  <O>11       0.0060
  18 O4       -3.1342    -8.8815    -8.9357  O.2     1  <O>11      -0.1300
  19 O5       -2.1583    -9.9945   -10.7824  O.2     1  <O>11      -0.3961
  20 C13      -1.4335   -11.7622    -7.9703  C.ar    1  <O>11      -0.0270
  21 C14       1.0979   -11.4888    -4.8380  C.ar    1  <O>11      -0.0266
  22 H1        2.9041   -10.6687    -2.7201  H       1  <O>11       0.2954
  23 H2       -2.6373    -8.9562    -4.7546  H       1  <O>11       0.2921
  24 H3       -0.9125   -13.7717    -4.4403  H       1  <O>11       0.1464
  25 H4       -0.8866   -14.7733    -6.5557  H       1  <O>11       0.0511
  26 H5        0.3099   -13.5513    -7.0491  H       1  <O>11       0.0511
  27 H6        0.7698    -8.1785    -4.3716  H       1  <O>11       0.0662
  28 H7       -2.2311   -11.0627    -5.0330  H       1  <O>11       0.0672
  29 H8       -3.1919   -14.4907    -7.0974  H       1  <O>11       0.0621
  30 H9       -4.8914   -13.3554    -8.4100  H       1  <O>11       0.0618
  31 H10      -4.4031   -11.2113    -9.4471  H       1  <O>11       0.0640
  32 H11      -1.5666   -10.5870   -11.2029  H       1  <O>11       0.3292
  33 H12      -0.5061   -11.3257    -7.8499  H       1  <O>11       0.0643
  34 H13       1.8191   -12.2246    -4.8976  H       1  <O>11       0.0644
@<TRIPOS>BOND
     1     1     2    2
     2     2     3    1
     3     2     4    1
     4     4     5   ar
     5     5     6   ar
     6     6     7    1
     7     6     8   ar
     8     8     9   ar
     9     9    10    1
    10    10    11    1
    11    11    12    1
    12    12    13   ar
    13    13    14   ar
    14    14    15   ar
    15    15    16   ar
    16    16    17    1
    17    17    18    2
    18    17    19    1
    19    16    20   ar
    20    12    20   ar
    21     9    21   ar
    22     4    21   ar
    23     3    22    1
    24     7    23    1
    25    10    24    1
    26    11    25    1
    27    11    26    1
    28     5    27    1
    29     8    28    1
    30    13    29    1
    31    14    30    1
    32    15    31    1
    33    19    32    1
    34    20    33    1
    35    21    34    1
@<TRIPOS>MOLECULE
mol49_2_8
 34 35 0 0 0
SMALL
USER_CHARGES
****
VDW energy = 101.89
@<TRIPOS>ATOM
   1 O1        3.4420    -9.1855    -5.2979  O.2     1  <O>11      -0.2451
   2 C1        2.8552    -9.8129    -4.4288  C.2     1  <O>11       0.3370
   3 O2        3.5096   -10.1823    -3.3012  O.3     1  <O>11      -0.4771
   4 C2        1.4620   -10.1610    -4.6040  C.ar    1  <O>11       0.0640
   5 C3        0.4923    -9.1588    -4.5362  C.ar    1  <O>11      -0.0061
   6 C4       -0.8582    -9.4910    -4.6926  C.ar    1  <O>11       0.1194
   7 O3       -1.7586    -8.5633    -4.6266  O.3     1  <O>11      -0.5067
   8 C5       -1.2352   -10.8171    -4.9191  C.ar    1  <O>11       0.0007
   9 C6       -0.2508   -11.8098    -4.9902  C.ar    1  <O>11       0.0316
  10 N1       -0.6453   -13.1754    -5.2252  N.pl3   1  <O>11      -0.3396
  11 C7       -0.6647   -13.7070    -6.5855  C.3     1  <O>11       0.0344
  12 C8       -1.9505   -14.4118    -6.8231  C.ar    1  <O>11      -0.0283
  13 C9       -3.1674   -13.7196    -6.7155  C.ar    1  <O>11      -0.0569
  14 C10      -4.3802   -14.3874    -6.9272  C.ar    1  <O>11      -0.0593
  15 C11      -4.3874   -15.7467    -7.2500  C.ar    1  <O>11      -0.0316
  16 C12      -3.1737   -16.4346    -7.3618  C.ar    1  <O>11       0.1219
  17 N2       -3.1866   -17.8368    -7.6951  N.4     1  <O>11       0.0060
  18 O4       -3.9419   -18.0365    -8.9142  O.2     1  <O>11      -0.1300
  19 O5       -3.8023   -18.5837    -6.6159  O.2     1  <O>11      -0.3961
  20 C13      -1.9599   -15.7779    -7.1554  C.ar    1  <O>11      -0.0270
  21 C14       1.0979   -11.4888    -4.8380  C.ar    1  <O>11      -0.0266
  22 H1        2.9041   -10.6687    -2.7201  H       1  <O>11       0.2954
  23 H2       -2.6373    -8.9562    -4.7546  H       1  <O>11       0.2921
  24 H3       -0.9125   -13.7717    -4.4403  H       1  <O>11       0.1464
  25 H4        0.1613   -14.4058    -6.7142  H       1  <O>11       0.0511
  26 H5       -0.5612   -12.8868    -7.2964  H       1  <O>11       0.0511
  27 H6        0.7698    -8.1785    -4.3716  H       1  <O>11       0.0662
  28 H7       -2.2311   -11.0627    -5.0330  H       1  <O>11       0.0672
  29 H8       -3.1682   -12.7149    -6.4796  H       1  <O>11       0.0621
  30 H9       -5.2715   -13.8738    -6.8445  H       1  <O>11       0.0618
  31 H10      -5.2807   -16.2396    -7.4048  H       1  <O>11       0.0640
  32 H11      -3.4300   -18.5582    -5.7564  H       1  <O>11       0.3292
  33 H12      -1.0709   -16.2940    -7.2466  H       1  <O>11       0.0643
  34 H13       1.8191   -12.2246    -4.8976  H       1  <O>11       0.0644
@<TRIPOS>BOND
     1     1     2    2
     2     2     3    1
     3     2     4    1
     4     4     5   ar
     5     5     6   ar
     6     6     7    1
     7     6     8   ar
     8     8     9   ar
     9     9    10    1
    10    10    11    1
    11    11    12    1
    12    12    13   ar
    13    13    14   ar
    14    14    15   ar
    15    15    16   ar
    16    16    17    1
    17    17    18    2
    18    17    19    1
    19    16    20   ar
    20    12    20   ar
    21     9    21   ar
    22     4    21   ar
    23     3    22    1
    24     7    23    1
    25    10    24    1
    26    11    25    1
    27    11    26    1
    28     5    27    1
    29     8    28    1
    30    13    29    1
    31    14    30    1
    32    15    31    1
    33    19    32    1
    34    20    33    1
    35    21    34    1
@<TRIPOS>MOLECULE
mol49_2_9
 34 35 0 0 0
SMALL
USER_CHARGES
****
VDW energy = 102.68
@<TRIPOS>ATOM
   1 O1        3.4420    -9.1855    -5.2979  O.2     1  <O>11      -0.2451
   2 C1        2.8552    -9.8129    -4.4288  C.2     1  <O>11       0.3370
   3 O2        3.5096   -10.1823    -3.3012  O.3     1  <O>11      -0.4771
   4 C2        1.4620   -10.1610    -4.6040  C.ar    1  <O>11       0.0640
   5 C3        0.4923    -9.1588    -4.5362  C.ar    1  <O>11      -0.0061
   6 C4       -0.8582    -9.4910    -4.6926  C.ar    1  <O>11       0.1194
   7 O3       -1.7586    -8.5633    -4.6266  O.3     1  <O>11      -0.5067
   8 C5       -1.2352   -10.8171    -4.9191  C.ar    1  <O>11       0.0007
   9 C6       -0.2508   -11.8098    -4.9902  C.ar    1  <O>11       0.0316
  10 N1       -0.6453   -13.1754    -5.2252  N.pl3   1  <O>11      -0.3396
  11 C7       -0.6647   -13.7070    -6.5855  C.3     1  <O>11       0.0344
  12 C8       -1.9505   -14.4118    -6.8231  C.ar    1  <O>11      -0.0283
  13 C9       -3.1674   -13.7196    -6.7155  C.ar    1  <O>11      -0.0569
  14 C10      -4.3802   -14.3874    -6.9272  C.ar    1  <O>11      -0.0593
  15 C11      -4.3874   -15.7467    -7.2500  C.ar    1  <O>11      -0.0316
  16 C12      -3.1737   -16.4346    -7.3618  C.ar    1  <O>11       0.1219
  17 N2       -3.1866   -17.8368    -7.6951  N.4     1  <O>11       0.0060
  18 O4       -2.4353   -18.5762    -6.7025  O.2     1  <O>11      -0.1300
  19 O5       -2.5847   -18.0281    -9.0001  O.2     1  <O>11      -0.3961
  20 C13      -1.9599   -15.7779    -7.1554  C.ar    1  <O>11      -0.0270
  21 C14       1.0979   -11.4888    -4.8380  C.ar    1  <O>11      -0.0266
  22 H1        2.9041   -10.6687    -2.7201  H       1  <O>11       0.2954
  23 H2       -2.6373    -8.9562    -4.7546  H       1  <O>11       0.2921
  24 H3       -0.9125   -13.7717    -4.4403  H       1  <O>11       0.1464
  25 H4        0.1613   -14.4058    -6.7142  H       1  <O>11       0.0511
  26 H5       -0.5612   -12.8868    -7.2964  H       1  <O>11       0.0511
  27 H6        0.7698    -8.1785    -4.3716  H       1  <O>11       0.0662
  28 H7       -2.2311   -11.0627    -5.0330  H       1  <O>11       0.0672
  29 H8       -3.1682   -12.7149    -6.4796  H       1  <O>11       0.0621
  30 H9       -5.2715   -13.8738    -6.8445  H       1  <O>11       0.0618
  31 H10      -5.2807   -16.2396    -7.4048  H       1  <O>11       0.0640
  32 H11      -2.9564   -17.6123    -9.7530  H       1  <O>11       0.3292
  33 H12      -1.0709   -16.2940    -7.2466  H       1  <O>11       0.0643
  34 H13       1.8191   -12.2246    -4.8976  H       1  <O>11       0.0644
@<TRIPOS>BOND
     1     1     2    2
     2     2     3    1
     3     2     4    1
     4     4     5   ar
     5     5     6   ar
     6     6     7    1
     7     6     8   ar
     8     8     9   ar
     9     9    10    1
    10    10    11    1
    11    11    12    1
    12    12    13   ar
    13    13    14   ar
    14    14    15   ar
    15    15    16   ar
    16    16    17    1
    17    17    18    2
    18    17    19    1
    19    16    20   ar
    20    12    20   ar
    21     9    21   ar
    22     4    21   ar
    23     3    22    1
    24     7    23    1
    25    10    24    1
    26    11    25    1
    27    11    26    1
    28     5    27    1
    29     8    28    1
    30    13    29    1
    31    14    30    1
    32    15    31    1
    33    19    32    1
    34    20    33    1
    35    21    34    1
@<TRIPOS>MOLECULE
mol49_2_10
 34 35 0 0 0
SMALL
USER_CHARGES
****
VDW energy = 102.84
@<TRIPOS>ATOM
   1 O1        3.4420    -9.1855    -5.2979  O.2     1  <O>11      -0.2451
   2 C1        2.8552    -9.8129    -4.4288  C.2     1  <O>11       0.3370
   3 O2        3.5096   -10.1823    -3.3012  O.3     1  <O>11      -0.4771
   4 C2        1.4620   -10.1610    -4.6040  C.ar    1  <O>11       0.0640
   5 C3        0.4923    -9.1588    -4.5362  C.ar    1  <O>11      -0.0061
   6 C4       -0.8582    -9.4910    -4.6926  C.ar    1  <O>11       0.1194
   7 O3       -1.7586    -8.5633    -4.6266  O.3     1  <O>11      -0.5067
   8 C5       -1.2352   -10.8171    -4.9191  C.ar    1  <O>11       0.0007
   9 C6       -0.2508   -11.8098    -4.9902  C.ar    1  <O>11       0.0316
  10 N1       -0.6453   -13.1754    -5.2252  N.pl3   1  <O>11      -0.3396
  11 C7       -1.4317   -13.8918    -4.2243  C.3     1  <O>11       0.0344
  12 C8       -0.8255   -15.2259    -3.9809  C.ar    1  <O>11      -0.0283
  13 C9        0.4930   -15.3288    -3.5091  C.ar    1  <O>11      -0.0569
  14 C10       1.0685   -16.5871    -3.2917  C.ar    1  <O>11      -0.0593
  15 C11       0.3334   -17.7489    -3.5400  C.ar    1  <O>11      -0.0316
  16 C12      -0.9825   -17.6452    -4.0057  C.ar    1  <O>11       0.1219
  17 N2       -1.7366   -18.8468    -4.2601  N.4     1  <O>11       0.0060
  18 O4       -1.7327   -19.6795    -3.0755  O.2     1  <O>11      -0.1300
  19 O5       -1.1343   -19.5701    -5.3628  O.2     1  <O>11      -0.3961
  20 C13      -1.5659   -16.3964    -4.2229  C.ar    1  <O>11      -0.0270
  21 C14       1.0979   -11.4888    -4.8380  C.ar    1  <O>11      -0.0266
  22 H1        2.9041   -10.6687    -2.7201  H       1  <O>11       0.2954
  23 H2       -2.6373    -8.9562    -4.7546  H       1  <O>11       0.2921
  24 H3       -0.3742   -13.6430    -6.0917  H       1  <O>11       0.1464
  25 H4       -2.4519   -14.0172    -4.5854  H       1  <O>11       0.0511
  26 H5       -1.4423   -13.3207    -3.2954  H       1  <O>11       0.0511
  27 H6        0.7698    -8.1785    -4.3716  H       1  <O>11       0.0662
  28 H7       -2.2311   -11.0627    -5.0330  H       1  <O>11       0.0672
  29 H8        1.0401   -14.4741    -3.3217  H       1  <O>11       0.0621
  30 H9        2.0388   -16.6563    -2.9470  H       1  <O>11       0.0618
  31 H10       0.7572   -18.6763    -3.3813  H       1  <O>11       0.0640
  32 H11      -1.0615   -19.1652    -6.2046  H       1  <O>11       0.3292
  33 H12      -2.5390   -16.3322    -4.5604  H       1  <O>11       0.0643
  34 H13       1.8191   -12.2246    -4.8976  H       1  <O>11       0.0644
@<TRIPOS>BOND
     1     1     2    2
     2     2     3    1
     3     2     4    1
     4     4     5   ar
     5     5     6   ar
     6     6     7    1
     7     6     8   ar
     8     8     9   ar
     9     9    10    1
    10    10    11    1
    11    11    12    1
    12    12    13   ar
    13    13    14   ar
    14    14    15   ar
    15    15    16   ar
    16    16    17    1
    17    17    18    2
    18    17    19    1
    19    16    20   ar
    20    12    20   ar
    21     9    21   ar
    22     4    21   ar
    23     3    22    1
    24     7    23    1
    25    10    24    1
    26    11    25    1
    27    11    26    1
    28     5    27    1
    29     8    28    1
    30    13    29    1
    31    14    30    1
    32    15    31    1
    33    19    32    1
    34    20    33    1
    35    21    34    1
@<TRIPOS>MOLECULE
mol49_2_11
 34 35 0 0 0
SMALL
USER_CHARGES
****
VDW energy = 102.88
@<TRIPOS>ATOM
   1 O1        3.4420    -9.1855    -5.2979  O.2     1  <O>11      -0.2451
   2 C1        2.8552    -9.8129    -4.4288  C.2     1  <O>11       0.3370
   3 O2        3.5096   -10.1823    -3.3012  O.3     1  <O>11      -0.4771
   4 C2        1.4620   -10.1610    -4.6040  C.ar    1  <O>11       0.0640
   5 C3        0.4923    -9.1588    -4.5362  C.ar    1  <O>11      -0.0061
   6 C4       -0.8582    -9.4910    -4.6926  C.ar    1  <O>11       0.1194
   7 O3       -1.7586    -8.5633    -4.6266  O.3     1  <O>11      -0.5067
   8 C5       -1.2352   -10.8171    -4.9191  C.ar    1  <O>11       0.0007
   9 C6       -0.2508   -11.8098    -4.9902  C.ar    1  <O>11       0.0316
  10 N1       -0.6453   -13.1754    -5.2252  N.pl3   1  <O>11      -0.3396
  11 C7       -0.6647   -13.7070    -6.5855  C.3     1  <O>11       0.0344
  12 C8       -1.9505   -14.4118    -6.8231  C.ar    1  <O>11      -0.0283
  13 C9       -2.0299   -15.8065    -6.6813  C.ar    1  <O>11      -0.0569
  14 C10      -3.2395   -16.4721    -6.9176  C.ar    1  <O>11      -0.0593
  15 C11      -4.3763   -15.7523    -7.2932  C.ar    1  <O>11      -0.0316
  16 C12      -4.2974   -14.3615    -7.4295  C.ar    1  <O>11       0.1219
  17 N2       -5.4733   -13.6236    -7.8170  N.4     1  <O>11       0.0060
  18 O4       -6.6542   -14.3090    -7.3350  O.2     1  <O>11      -0.1300
  19 O5       -5.5264   -13.5249    -9.2624  O.2     1  <O>11      -0.3961
  20 C13      -3.0979   -13.6887    -7.1938  C.ar    1  <O>11      -0.0270
  21 C14       1.0979   -11.4888    -4.8380  C.ar    1  <O>11      -0.0266
  22 H1        2.9041   -10.6687    -2.7201  H       1  <O>11       0.2954
  23 H2       -2.6373    -8.9562    -4.7546  H       1  <O>11       0.2921
  24 H3       -0.9125   -13.7717    -4.4403  H       1  <O>11       0.1464
  25 H4        0.1613   -14.4058    -6.7142  H       1  <O>11       0.0511
  26 H5       -0.5612   -12.8868    -7.2964  H       1  <O>11       0.0511
  27 H6        0.7698    -8.1785    -4.3716  H       1  <O>11       0.0662
  28 H7       -2.2311   -11.0627    -5.0330  H       1  <O>11       0.0672
  29 H8       -1.1939   -16.3432    -6.4018  H       1  <O>11       0.0621
  30 H9       -3.2910   -17.4976    -6.8139  H       1  <O>11       0.0618
  31 H10      -5.2675   -16.2422    -7.4687  H       1  <O>11       0.0640
  32 H11      -4.8309   -13.1051    -9.7293  H       1  <O>11       0.3292
  33 H12      -3.0531   -12.6623    -7.2914  H       1  <O>11       0.0643
  34 H13       1.8191   -12.2246    -4.8976  H       1  <O>11       0.0644
@<TRIPOS>BOND
     1     1     2    2
     2     2     3    1
     3     2     4    1
     4     4     5   ar
     5     5     6   ar
     6     6     7    1
     7     6     8   ar
     8     8     9   ar
     9     9    10    1
    10    10    11    1
    11    11    12    1
    12    12    13   ar
    13    13    14   ar
    14    14    15   ar
    15    15    16   ar
    16    16    17    1
    17    17    18    2
    18    17    19    1
    19    16    20   ar
    20    12    20   ar
    21     9    21   ar
    22     4    21   ar
    23     3    22    1
    24     7    23    1
    25    10    24    1
    26    11    25    1
    27    11    26    1
    28     5    27    1
    29     8    28    1
    30    13    29    1
    31    14    30    1
    32    15    31    1
    33    19    32    1
    34    20    33    1
    35    21    34    1
@<TRIPOS>MOLECULE
mol49_2_12
 34 35 0 0 0
SMALL
USER_CHARGES
****
VDW energy = 103.20
@<TRIPOS>ATOM
   1 O1        3.4420    -9.1855    -5.2979  O.2     1  <O>11      -0.2451
   2 C1        2.8552    -9.8129    -4.4288  C.2     1  <O>11       0.3370
   3 O2        3.5096   -10.1823    -3.3012  O.3     1  <O>11      -0.4771
   4 C2        1.4620   -10.1610    -4.6040  C.ar    1  <O>11       0.0640
   5 C3        0.4923    -9.1588    -4.5362  C.ar    1  <O>11      -0.0061
   6 C4       -0.8582    -9.4910    -4.6926  C.ar    1  <O>11       0.1194
   7 O3       -1.7586    -8.5633    -4.6266  O.3     1  <O>11      -0.5067
   8 C5       -1.2352   -10.8171    -4.9191  C.ar    1  <O>11       0.0007
   9 C6       -0.2508   -11.8098    -4.9902  C.ar    1  <O>11       0.0316
  10 N1       -0.6453   -13.1754    -5.2252  N.pl3   1  <O>11      -0.3396
  11 C7       -1.2532   -13.5519    -6.4988  C.3     1  <O>11       0.0344
  12 C8       -2.4733   -14.3602    -6.2450  C.ar    1  <O>11      -0.0283
  13 C9       -3.5405   -13.8192    -5.5102  C.ar    1  <O>11      -0.0569
  14 C10      -4.6857   -14.5861    -5.2603  C.ar    1  <O>11      -0.0593
  15 C11      -4.7751   -15.8940    -5.7431  C.ar    1  <O>11      -0.0316
  16 C12      -3.7128   -16.4307    -6.4795  C.ar    1  <O>11       0.1219
  17 N2       -3.8103   -17.7805    -6.9756  N.4     1  <O>11       0.0060
  18 O4       -5.0252   -17.9238    -7.7502  O.2     1  <O>11      -0.1300
  19 O5       -3.8360   -18.7043    -5.8585  O.2     1  <O>11      -0.3961
  20 C13      -2.5688   -15.6741    -6.7363  C.ar    1  <O>11      -0.0270
  21 C14       1.0979   -11.4888    -4.8380  C.ar    1  <O>11      -0.0266
  22 H1        2.9041   -10.6687    -2.7201  H       1  <O>11       0.2954
  23 H2       -2.6373    -8.9562    -4.7546  H       1  <O>11       0.2921
  24 H3       -0.5007   -13.8803    -4.5005  H       1  <O>11       0.1464
  25 H4       -0.5434   -14.1391    -7.0806  H       1  <O>11       0.0511
  26 H5       -1.5205   -12.6515    -7.0528  H       1  <O>11       0.0511
  27 H6        0.7698    -8.1785    -4.3716  H       1  <O>11       0.0662
  28 H7       -2.2311   -11.0627    -5.0330  H       1  <O>11       0.0672
  29 H8       -3.4810   -12.8528    -5.1530  H       1  <O>11       0.0621
  30 H9       -5.4658   -14.1836    -4.7177  H       1  <O>11       0.0618
  31 H10      -5.6180   -16.4600    -5.5582  H       1  <O>11       0.0640
  32 H11      -3.1169   -18.7343    -5.2587  H       1  <O>11       0.3292
  33 H12      -1.7944   -16.0782    -7.2858  H       1  <O>11       0.0643
  34 H13       1.8191   -12.2246    -4.8976  H       1  <O>11       0.0644
@<TRIPOS>BOND
     1     1     2    2
     2     2     3    1
     3     2     4    1
     4     4     5   ar
     5     5     6   ar
     6     6     7    1
     7     6     8   ar
     8     8     9   ar
     9     9    10    1
    10    10    11    1
    11    11    12    1
    12    12    13   ar
    13    13    14   ar
    14    14    15   ar
    15    15    16   ar
    16    16    17    1
    17    17    18    2
    18    17    19    1
    19    16    20   ar
    20    12    20   ar
    21     9    21   ar
    22     4    21   ar
    23     3    22    1
    24     7    23    1
    25    10    24    1
    26    11    25    1
    27    11    26    1
    28     5    27    1
    29     8    28    1
    30    13    29    1
    31    14    30    1
    32    15    31    1
    33    19    32    1
    34    20    33    1
    35    21    34    1
@<TRIPOS>MOLECULE
mol49_2_13
 34 35 0 0 0
SMALL
USER_CHARGES
****
VDW energy = 103.22
@<TRIPOS>ATOM
   1 O1        3.4420    -9.1855    -5.2979  O.2     1  <O>11      -0.2451
   2 C1        2.8552    -9.8129    -4.4288  C.2     1  <O>11       0.3370
   3 O2        3.5096   -10.1823    -3.3012  O.3     1  <O>11      -0.4771
   4 C2        1.4620   -10.1610    -4.6040  C.ar    1  <O>11       0.0640
   5 C3        1.0134   -11.4175    -4.1926  C.ar    1  <O>11      -0.0061
   6 C4       -0.3305   -11.7649    -4.3706  C.ar    1  <O>11       0.1194
   7 O3       -0.7471   -12.9308    -3.9927  O.3     1  <O>11      -0.5067
   8 C5       -1.2205   -10.8590    -4.9532  C.ar    1  <O>11       0.0007
   9 C6       -0.7568    -9.6008    -5.3553  C.ar    1  <O>11       0.0316
  10 N1       -1.6793    -8.6703    -5.9544  N.pl3   1  <O>11      -0.3396
  11 C7       -2.3553    -7.6752    -5.1260  C.3     1  <O>11       0.0344
  12 C8       -3.8076    -7.6762    -5.4377  C.ar    1  <O>11      -0.0283
  13 C9       -4.2526    -7.3891    -6.7381  C.ar    1  <O>11      -0.0569
  14 C10      -5.6228    -7.3777    -7.0287  C.ar    1  <O>11      -0.0593
  15 C11      -6.5563    -7.6551    -6.0270  C.ar    1  <O>11      -0.0316
  16 C12      -6.1115    -7.9460    -4.7322  C.ar    1  <O>11       0.1219
  17 N2       -7.0787    -8.2317    -3.7025  N.4     1  <O>11       0.0060
  18 O4       -6.8532    -7.3559    -2.5717  O.2     1  <O>11      -0.1300
  19 O5       -6.9415    -9.6121    -3.2812  O.2     1  <O>11      -0.3961
  20 C13      -4.7487    -7.9625    -4.4330  C.ar    1  <O>11      -0.0270
  21 C14       0.5801    -9.2441    -5.1802  C.ar    1  <O>11      -0.0266
  22 H1        2.9041   -10.6687    -2.7201  H       1  <O>11       0.2954
  23 H2       -1.6953   -13.0131    -4.1849  H       1  <O>11       0.2921
  24 H3       -1.8612    -8.7071    -6.9587  H       1  <O>11       0.1464
  25 H4       -1.9406    -6.6889    -5.3318  H       1  <O>11       0.0511
  26 H5       -2.2076    -7.9193    -4.0736  H       1  <O>11       0.0511
  27 H6        1.6693   -12.0865    -3.7596  H       1  <O>11       0.0662
  28 H7       -2.2113   -11.1153    -5.0861  H       1  <O>11       0.0672
  29 H8       -3.5676    -7.1856    -7.4826  H       1  <O>11       0.0621
  30 H9       -5.9438    -7.1638    -7.9859  H       1  <O>11       0.0618
  31 H10      -7.5660    -7.6457    -6.2401  H       1  <O>11       0.0640
  32 H11      -7.0584   -10.3050    -3.9010  H       1  <O>11       0.3292
  33 H12      -4.4321    -8.1844    -3.4762  H       1  <O>11       0.0643
  34 H13       0.9141    -8.3127    -5.4733  H       1  <O>11       0.0644
@<TRIPOS>BOND
     1     1     2    2
     2     2     3    1
     3     2     4    1
     4     4     5   ar
     5     5     6   ar
     6     6     7    1
     7     6     8   ar
     8     8     9   ar
     9     9    10    1
    10    10    11    1
    11    11    12    1
    12    12    13   ar
    13    13    14   ar
    14    14    15   ar
    15    15    16   ar
    16    16    17    1
    17    17    18    2
    18    17    19    1
    19    16    20   ar
    20    12    20   ar
    21     9    21   ar
    22     4    21   ar
    23     3    22    1
    24     7    23    1
    25    10    24    1
    26    11    25    1
    27    11    26    1
    28     5    27    1
    29     8    28    1
    30    13    29    1
    31    14    30    1
    32    15    31    1
    33    19    32    1
    34    20    33    1
    35    21    34    1
@<TRIPOS>MOLECULE
mol49_2_14
 34 35 0 0 0
SMALL
USER_CHARGES
****
VDW energy = 103.58
@<TRIPOS>ATOM
   1 O1        3.4420    -9.1855    -5.2979  O.2     1  <O>11      -0.2451
   2 C1        2.8552    -9.8129    -4.4288  C.2     1  <O>11       0.3370
   3 O2        3.5096   -10.1823    -3.3012  O.3     1  <O>11      -0.4771
   4 C2        1.4620   -10.1610    -4.6040  C.ar    1  <O>11       0.0640
   5 C3        0.5946   -10.0837    -3.5126  C.ar    1  <O>11      -0.0061
   6 C4       -0.7516   -10.4309    -3.6727  C.ar    1  <O>11       0.1194
   7 O3       -1.5561   -10.3630    -2.6610  O.3     1  <O>11      -0.5067
   8 C5       -1.2274   -10.8492    -4.9180  C.ar    1  <O>11       0.0007
   9 C6       -0.3466   -10.9160    -6.0041  C.ar    1  <O>11       0.0316
  10 N1       -0.8430   -11.3468    -7.2862  N.pl3   1  <O>11      -0.3396
  11 C7       -1.2895   -10.3603    -8.2664  C.3     1  <O>11       0.0344
  12 C8       -2.6121   -10.7647    -8.8082  C.ar    1  <O>11      -0.0283
  13 C9       -3.7144   -10.9087    -7.9505  C.ar    1  <O>11      -0.0569
  14 C10      -4.9583   -11.3023    -8.4600  C.ar    1  <O>11      -0.0593
  15 C11      -5.1117   -11.5514    -9.8261  C.ar    1  <O>11      -0.0316
  16 C12      -4.0135   -11.4028   -10.6810  C.ar    1  <O>11       0.1219
  17 N2       -4.1771   -11.6608   -12.0896  N.4     1  <O>11       0.0060
  18 O4       -5.2705   -10.8625   -12.6030  O.2     1  <O>11      -0.1300
  19 O5       -4.4670   -13.0668   -12.2921  O.2     1  <O>11      -0.3961
  20 C13      -2.7707   -11.0086   -10.1838  C.ar    1  <O>11      -0.0270
  21 C14       0.9963   -10.5699    -5.8555  C.ar    1  <O>11      -0.0266
  22 H1        2.9041   -10.6687    -2.7201  H       1  <O>11       0.2954
  23 H2       -2.4464   -10.6349    -2.9371  H       1  <O>11       0.2921
  24 H3       -0.8836   -12.3426    -7.5093  H       1  <O>11       0.1464
  25 H4       -0.5664   -10.3029    -9.0793  H       1  <O>11       0.0511
  26 H5       -1.3745    -9.3851    -7.7859  H       1  <O>11       0.0511
  27 H6        0.9443    -9.7723    -2.5929  H       1  <O>11       0.0662
  28 H7       -2.2197   -11.1068    -5.0362  H       1  <O>11       0.0672
  29 H8       -3.6076   -10.7239    -6.9408  H       1  <O>11       0.0621
  30 H9       -5.7642   -11.4087    -7.8242  H       1  <O>11       0.0618
  31 H10      -6.0276   -11.8427   -10.2019  H       1  <O>11       0.0640
  32 H11      -3.8530   -13.7169   -12.0120  H       1  <O>11       0.3292
  33 H12      -1.9696   -10.8963   -10.8246  H       1  <O>11       0.0643
  34 H13       1.6389   -10.6156    -6.6617  H       1  <O>11       0.0644
@<TRIPOS>BOND
     1     1     2    2
     2     2     3    1
     3     2     4    1
     4     4     5   ar
     5     5     6   ar
     6     6     7    1
     7     6     8   ar
     8     8     9   ar
     9     9    10    1
    10    10    11    1
    11    11    12    1
    12    12    13   ar
    13    13    14   ar
    14    14    15   ar
    15    15    16   ar
    16    16    17    1
    17    17    18    2
    18    17    19    1
    19    16    20   ar
    20    12    20   ar
    21     9    21   ar
    22     4    21   ar
    23     3    22    1
    24     7    23    1
    25    10    24    1
    26    11    25    1
    27    11    26    1
    28     5    27    1
    29     8    28    1
    30    13    29    1
    31    14    30    1
    32    15    31    1
    33    19    32    1
    34    20    33    1
    35    21    34    1
@<TRIPOS>MOLECULE
mol49_2_15
 34 35 0 0 0
SMALL
USER_CHARGES
****
VDW energy = 103.99
@<TRIPOS>ATOM
   1 O1        3.4420    -9.1855    -5.2979  O.2     1  <O>11      -0.2451
   2 C1        2.8552    -9.8129    -4.4288  C.2     1  <O>11       0.3370
   3 O2        3.5096   -10.1823    -3.3012  O.3     1  <O>11      -0.4771
   4 C2        1.4620   -10.1610    -4.6040  C.ar    1  <O>11       0.0640
   5 C3        0.4923    -9.1588    -4.5362  C.ar    1  <O>11      -0.0061
   6 C4       -0.8582    -9.4910    -4.6926  C.ar    1  <O>11       0.1194
   7 O3       -1.7586    -8.5633    -4.6266  O.3     1  <O>11      -0.5067
   8 C5       -1.2352   -10.8171    -4.9191  C.ar    1  <O>11       0.0007
   9 C6       -0.2508   -11.8098    -4.9902  C.ar    1  <O>11       0.0316
  10 N1       -0.6453   -13.1754    -5.2252  N.pl3   1  <O>11      -0.3396
  11 C7       -0.6647   -13.7070    -6.5855  C.3     1  <O>11       0.0344
  12 C8       -1.7090   -13.0062    -7.3758  C.ar    1  <O>11      -0.0283
  13 C9       -2.9796   -13.5816    -7.5373  C.ar    1  <O>11      -0.0569
  14 C10      -3.9601   -12.9264    -8.2930  C.ar    1  <O>11      -0.0593
  15 C11      -3.6815   -11.6940    -8.8891  C.ar    1  <O>11      -0.0316
  16 C12      -2.4163   -11.1189    -8.7235  C.ar    1  <O>11       0.1219
  17 N2       -2.1341    -9.8472    -9.3403  N.4     1  <O>11       0.0060
  18 O4       -3.3538    -9.0719    -9.4286  O.2     1  <O>11      -0.1300
  19 O5       -1.6004   -10.0641   -10.6708  O.2     1  <O>11      -0.3961
  20 C13      -1.4335   -11.7622    -7.9703  C.ar    1  <O>11      -0.0270
  21 C14       1.0979   -11.4888    -4.8380  C.ar    1  <O>11      -0.0266
  22 H1        2.9041   -10.6687    -2.7201  H       1  <O>11       0.2954
  23 H2       -2.6373    -8.9562    -4.7546  H       1  <O>11       0.2921
  24 H3       -0.9125   -13.7717    -4.4403  H       1  <O>11       0.1464
  25 H4       -0.8866   -14.7733    -6.5557  H       1  <O>11       0.0511
  26 H5        0.3099   -13.5513    -7.0491  H       1  <O>11       0.0511
  27 H6        0.7698    -8.1785    -4.3716  H       1  <O>11       0.0662
  28 H7       -2.2311   -11.0627    -5.0330  H       1  <O>11       0.0672
  29 H8       -3.1919   -14.4907    -7.0974  H       1  <O>11       0.0621
  30 H9       -4.8914   -13.3554    -8.4100  H       1  <O>11       0.0618
  31 H10      -4.4031   -11.2113    -9.4471  H       1  <O>11       0.0640
  32 H11      -0.8086   -10.5521   -10.7842  H       1  <O>11       0.3292
  33 H12      -0.5061   -11.3257    -7.8499  H       1  <O>11       0.0643
  34 H13       1.8191   -12.2246    -4.8976  H       1  <O>11       0.0644
@<TRIPOS>BOND
     1     1     2    2
     2     2     3    1
     3     2     4    1
     4     4     5   ar
     5     5     6   ar
     6     6     7    1
     7     6     8   ar
     8     8     9   ar
     9     9    10    1
    10    10    11    1
    11    11    12    1
    12    12    13   ar
    13    13    14   ar
    14    14    15   ar
    15    15    16   ar
    16    16    17    1
    17    17    18    2
    18    17    19    1
    19    16    20   ar
    20    12    20   ar
    21     9    21   ar
    22     4    21   ar
    23     3    22    1
    24     7    23    1
    25    10    24    1
    26    11    25    1
    27    11    26    1
    28     5    27    1
    29     8    28    1
    30    13    29    1
    31    14    30    1
    32    15    31    1
    33    19    32    1
    34    20    33    1
    35    21    34    1
@<TRIPOS>MOLECULE
mol49_2_16
 34 35 0 0 0
SMALL
USER_CHARGES
****
VDW energy = 104.32
@<TRIPOS>ATOM
   1 O1        3.4420    -9.1855    -5.2979  O.2     1  <O>11      -0.2451
   2 C1        2.8552    -9.8129    -4.4288  C.2     1  <O>11       0.3370
   3 O2        3.5096   -10.1823    -3.3012  O.3     1  <O>11      -0.4771
   4 C2        1.4620   -10.1610    -4.6040  C.ar    1  <O>11       0.0640
   5 C3        1.0134   -11.4175    -4.1926  C.ar    1  <O>11      -0.0061
   6 C4       -0.3305   -11.7649    -4.3706  C.ar    1  <O>11       0.1194
   7 O3       -0.7471   -12.9308    -3.9927  O.3     1  <O>11      -0.5067
   8 C5       -1.2205   -10.8590    -4.9532  C.ar    1  <O>11       0.0007
   9 C6       -0.7568    -9.6008    -5.3553  C.ar    1  <O>11       0.0316
  10 N1       -1.6793    -8.6703    -5.9544  N.pl3   1  <O>11      -0.3396
  11 C7       -2.3553    -7.6752    -5.1260  C.3     1  <O>11       0.0344
  12 C8       -3.8076    -7.6762    -5.4377  C.ar    1  <O>11      -0.0283
  13 C9       -4.3394    -6.7370    -6.3358  C.ar    1  <O>11      -0.0569
  14 C10      -5.7110    -6.7302    -6.6198  C.ar    1  <O>11      -0.0593
  15 C11      -6.5591    -7.6601    -6.0136  C.ar    1  <O>11      -0.0316
  16 C12      -6.0273    -8.5990    -5.1222  C.ar    1  <O>11       0.1219
  17 N2       -6.9067    -9.5564    -4.4996  N.4     1  <O>11       0.0060
  18 O4       -8.0155    -9.8415    -5.3861  O.2     1  <O>11      -0.1300
  19 O5       -7.4099    -9.0107    -3.2543  O.2     1  <O>11      -0.3961
  20 C13      -4.6620    -8.6159    -4.8346  C.ar    1  <O>11      -0.0270
  21 C14       0.5801    -9.2441    -5.1802  C.ar    1  <O>11      -0.0266
  22 H1        2.9041   -10.6687    -2.7201  H       1  <O>11       0.2954
  23 H2       -1.6953   -13.0131    -4.1849  H       1  <O>11       0.2921
  24 H3       -1.8612    -8.7071    -6.9587  H       1  <O>11       0.1464
  25 H4       -1.9406    -6.6889    -5.3318  H       1  <O>11       0.0511
  26 H5       -2.2076    -7.9193    -4.0736  H       1  <O>11       0.0511
  27 H6        1.6693   -12.0865    -3.7596  H       1  <O>11       0.0662
  28 H7       -2.2113   -11.1153    -5.0861  H       1  <O>11       0.0672
  29 H8       -3.7174    -6.0491    -6.7884  H       1  <O>11       0.0621
  30 H9       -6.0963    -6.0359    -7.2791  H       1  <O>11       0.0618
  31 H10      -7.5700    -7.6548    -6.2214  H       1  <O>11       0.0640
  32 H11      -6.8133    -8.7732    -2.5719  H       1  <O>11       0.3292
  33 H12      -4.2802    -9.3169    -4.1805  H       1  <O>11       0.0643
  34 H13       0.9141    -8.3127    -5.4733  H       1  <O>11       0.0644
@<TRIPOS>BOND
     1     1     2    2
     2     2     3    1
     3     2     4    1
     4     4     5   ar
     5     5     6   ar
     6     6     7    1
     7     6     8   ar
     8     8     9   ar
     9     9    10    1
    10    10    11    1
    11    11    12    1
    12    12    13   ar
    13    13    14   ar
    14    14    15   ar
    15    15    16   ar
    16    16    17    1
    17    17    18    2
    18    17    19    1
    19    16    20   ar
    20    12    20   ar
    21     9    21   ar
    22     4    21   ar
    23     3    22    1
    24     7    23    1
    25    10    24    1
    26    11    25    1
    27    11    26    1
    28     5    27    1
    29     8    28    1
    30    13    29    1
    31    14    30    1
    32    15    31    1
    33    19    32    1
    34    20    33    1
    35    21    34    1
@<TRIPOS>MOLECULE
mol49_2_17
 34 35 0 0 0
SMALL
USER_CHARGES
****
VDW energy = 104.74
@<TRIPOS>ATOM
   1 O1        3.4420    -9.1855    -5.2979  O.2     1  <O>11      -0.2451
   2 C1        2.8552    -9.8129    -4.4288  C.2     1  <O>11       0.3370
   3 O2        3.5096   -10.1823    -3.3012  O.3     1  <O>11      -0.4771
   4 C2        1.4620   -10.1610    -4.6040  C.ar    1  <O>11       0.0640
   5 C3        1.0134   -11.4175    -4.1926  C.ar    1  <O>11      -0.0061
   6 C4       -0.3305   -11.7649    -4.3706  C.ar    1  <O>11       0.1194
   7 O3       -0.7471   -12.9308    -3.9927  O.3     1  <O>11      -0.5067
   8 C5       -1.2205   -10.8590    -4.9532  C.ar    1  <O>11       0.0007
   9 C6       -0.7568    -9.6008    -5.3553  C.ar    1  <O>11       0.0316
  10 N1       -1.6793    -8.6703    -5.9544  N.pl3   1  <O>11      -0.3396
  11 C7       -2.3553    -7.6752    -5.1260  C.3     1  <O>11       0.0344
  12 C8       -3.2719    -8.3602    -4.1789  C.ar    1  <O>11      -0.0283
  13 C9       -4.3183    -9.1623    -4.6617  C.ar    1  <O>11      -0.0569
  14 C10      -5.1901    -9.7979    -3.7684  C.ar    1  <O>11      -0.0593
  15 C11      -5.0226    -9.6406    -2.3905  C.ar    1  <O>11      -0.0316
  16 C12      -3.9762    -8.8447    -1.9101  C.ar    1  <O>11       0.1219
  17 N2       -3.8076    -8.6858    -0.4875  N.4     1  <O>11       0.0060
  18 O4       -3.7175    -9.9892     0.1368  O.2     1  <O>11      -0.1300
  19 O5       -4.9429    -7.9659     0.0555  O.2     1  <O>11      -0.3961
  20 C13      -3.1007    -8.2094    -2.7915  C.ar    1  <O>11      -0.0270
  21 C14       0.5801    -9.2441    -5.1802  C.ar    1  <O>11      -0.0266
  22 H1        2.9041   -10.6687    -2.7201  H       1  <O>11       0.2954
  23 H2       -1.6953   -13.0131    -4.1849  H       1  <O>11       0.2921
  24 H3       -1.8612    -8.7071    -6.9587  H       1  <O>11       0.1464
  25 H4       -2.9282    -7.0014    -5.7623  H       1  <O>11       0.0511
  26 H5       -1.6130    -7.1043    -4.5674  H       1  <O>11       0.0511
  27 H6        1.6693   -12.0865    -3.7596  H       1  <O>11       0.0662
  28 H7       -2.2113   -11.1153    -5.0861  H       1  <O>11       0.0672
  29 H8       -4.4456    -9.2840    -5.6785  H       1  <O>11       0.0621
  30 H9       -5.9588   -10.3844    -4.1294  H       1  <O>11       0.0618
  31 H10      -5.6653   -10.1075    -1.7318  H       1  <O>11       0.0640
  32 H11      -5.1380    -7.1012    -0.2480  H       1  <O>11       0.3292
  33 H12      -2.3290    -7.6301    -2.4257  H       1  <O>11       0.0643
  34 H13       0.9141    -8.3127    -5.4733  H       1  <O>11       0.0644
@<TRIPOS>BOND
     1     1     2    2
     2     2     3    1
     3     2     4    1
     4     4     5   ar
     5     5     6   ar
     6     6     7    1
     7     6     8   ar
     8     8     9   ar
     9     9    10    1
    10    10    11    1
    11    11    12    1
    12    12    13   ar
    13    13    14   ar
    14    14    15   ar
    15    15    16   ar
    16    16    17    1
    17    17    18    2
    18    17    19    1
    19    16    20   ar
    20    12    20   ar
    21     9    21   ar
    22     4    21   ar
    23     3    22    1
    24     7    23    1
    25    10    24    1
    26    11    25    1
    27    11    26    1
    28     5    27    1
    29     8    28    1
    30    13    29    1
    31    14    30    1
    32    15    31    1
    33    19    32    1
    34    20    33    1
    35    21    34    1
@<TRIPOS>MOLECULE
mol49_2_18
 34 35 0 0 0
SMALL
USER_CHARGES
****
VDW energy = 105.05
@<TRIPOS>ATOM
   1 O1        3.4420    -9.1855    -5.2979  O.2     1  <O>11      -0.2451
   2 C1        2.8552    -9.8129    -4.4288  C.2     1  <O>11       0.3370
   3 O2        3.5096   -10.1823    -3.3012  O.3     1  <O>11      -0.4771
   4 C2        1.4620   -10.1610    -4.6040  C.ar    1  <O>11       0.0640
   5 C3        1.0134   -11.4175    -4.1926  C.ar    1  <O>11      -0.0061
   6 C4       -0.3305   -11.7649    -4.3706  C.ar    1  <O>11       0.1194
   7 O3       -0.7471   -12.9308    -3.9927  O.3     1  <O>11      -0.5067
   8 C5       -1.2205   -10.8590    -4.9532  C.ar    1  <O>11       0.0007
   9 C6       -0.7568    -9.6008    -5.3553  C.ar    1  <O>11       0.0316
  10 N1       -1.6793    -8.6703    -5.9544  N.pl3   1  <O>11      -0.3396
  11 C7       -2.3553    -7.6752    -5.1260  C.3     1  <O>11       0.0344
  12 C8       -3.2719    -8.3602    -4.1789  C.ar    1  <O>11      -0.0283
  13 C9       -4.6376    -8.4843    -4.4803  C.ar    1  <O>11      -0.0569
  14 C10      -5.5039    -9.1191    -3.5812  C.ar    1  <O>11      -0.0593
  15 C11      -5.0143    -9.6361    -2.3793  C.ar    1  <O>11      -0.0316
  16 C12      -3.6519    -9.5163    -2.0819  C.ar    1  <O>11       0.1219
  17 N2       -3.1519   -10.0516    -0.8406  N.4     1  <O>11       0.0060
  18 O4       -3.5252   -11.4462    -0.7308  O.2     1  <O>11      -0.1300
  19 O5       -3.7191    -9.3094     0.2682  O.2     1  <O>11      -0.3961
  20 C13      -2.7802    -8.8880    -2.9721  C.ar    1  <O>11      -0.0270
  21 C14       0.5801    -9.2441    -5.1802  C.ar    1  <O>11      -0.0266
  22 H1        2.9041   -10.6687    -2.7201  H       1  <O>11       0.2954
  23 H2       -1.6953   -13.0131    -4.1849  H       1  <O>11       0.2921
  24 H3       -1.8612    -8.7071    -6.9587  H       1  <O>11       0.1464
  25 H4       -2.9282    -7.0014    -5.7623  H       1  <O>11       0.0511
  26 H5       -1.6130    -7.1043    -4.5674  H       1  <O>11       0.0511
  27 H6        1.6693   -12.0865    -3.7596  H       1  <O>11       0.0662
  28 H7       -2.2113   -11.1153    -5.0861  H       1  <O>11       0.0672
  29 H8       -5.0046    -8.1063    -5.3677  H       1  <O>11       0.0621
  30 H9       -6.5072    -9.2052    -3.8074  H       1  <O>11       0.0618
  31 H10      -5.6523   -10.1029    -1.7158  H       1  <O>11       0.0640
  32 H11      -3.5678    -8.3876     0.3412  H       1  <O>11       0.3292
  33 H12      -1.7764    -8.8109    -2.7450  H       1  <O>11       0.0643
  34 H13       0.9141    -8.3127    -5.4733  H       1  <O>11       0.0644
@<TRIPOS>BOND
     1     1     2    2
     2     2     3    1
     3     2     4    1
     4     4     5   ar
     5     5     6   ar
     6     6     7    1
     7     6     8   ar
     8     8     9   ar
     9     9    10    1
    10    10    11    1
    11    11    12    1
    12    12    13   ar
    13    13    14   ar
    14    14    15   ar
    15    15    16   ar
    16    16    17    1
    17    17    18    2
    18    17    19    1
    19    16    20   ar
    20    12    20   ar
    21     9    21   ar
    22     4    21   ar
    23     3    22    1
    24     7    23    1
    25    10    24    1
    26    11    25    1
    27    11    26    1
    28     5    27    1
    29     8    28    1
    30    13    29    1
    31    14    30    1
    32    15    31    1
    33    19    32    1
    34    20    33    1
    35    21    34    1
@<TRIPOS>MOLECULE
mol49_2_19
 34 35 0 0 0
SMALL
USER_CHARGES
****
VDW energy = 106.23
@<TRIPOS>ATOM
   1 O1        3.4420    -9.1855    -5.2979  O.2     1  <O>11      -0.2451
   2 C1        2.8552    -9.8129    -4.4288  C.2     1  <O>11       0.3370
   3 O2        3.5096   -10.1823    -3.3012  O.3     1  <O>11      -0.4771
   4 C2        1.4620   -10.1610    -4.6040  C.ar    1  <O>11       0.0640
   5 C3        0.4923    -9.1588    -4.5362  C.ar    1  <O>11      -0.0061
   6 C4       -0.8582    -9.4910    -4.6926  C.ar    1  <O>11       0.1194
   7 O3       -1.7586    -8.5633    -4.6266  O.3     1  <O>11      -0.5067
   8 C5       -1.2352   -10.8171    -4.9191  C.ar    1  <O>11       0.0007
   9 C6       -0.2508   -11.8098    -4.9902  C.ar    1  <O>11       0.0316
  10 N1       -0.6453   -13.1754    -5.2252  N.pl3   1  <O>11      -0.3396
  11 C7       -0.6647   -13.7070    -6.5855  C.3     1  <O>11       0.0344
  12 C8        0.7210   -13.7525    -7.1187  C.ar    1  <O>11      -0.0283
  13 C9        1.7034   -14.5195    -6.4722  C.ar    1  <O>11      -0.0569
  14 C10       3.0129   -14.5521    -6.9680  C.ar    1  <O>11      -0.0593
  15 C11       3.3501   -13.8238    -8.1115  C.ar    1  <O>11      -0.0316
  16 C12       2.3690   -13.0633    -8.7581  C.ar    1  <O>11       0.1219
  17 N2        2.7220   -12.3139    -9.9376  N.4     1  <O>11       0.0060
  18 O4        3.3309   -13.1992   -10.9081  O.2     1  <O>11      -0.1300
  19 O5        3.6596   -11.2670    -9.5814  O.2     1  <O>11      -0.3961
  20 C13       1.0609   -13.0263    -8.2737  C.ar    1  <O>11      -0.0270
  21 C14       1.0979   -11.4888    -4.8380  C.ar    1  <O>11      -0.0266
  22 H1        2.9041   -10.6687    -2.7201  H       1  <O>11       0.2954
  23 H2       -2.6373    -8.9562    -4.7546  H       1  <O>11       0.2921
  24 H3       -0.9125   -13.7717    -4.4403  H       1  <O>11       0.1464
  25 H4       -1.2760   -13.0643    -7.2181  H       1  <O>11       0.0511
  26 H5       -1.0851   -14.7131    -6.5752  H       1  <O>11       0.0511
  27 H6        0.7698    -8.1785    -4.3716  H       1  <O>11       0.0662
  28 H7       -2.2311   -11.0627    -5.0330  H       1  <O>11       0.0672
  29 H8        1.4596   -15.0614    -5.6284  H       1  <O>11       0.0621
  30 H9        3.7311   -15.1160    -6.4871  H       1  <O>11       0.0618
  31 H10       4.3151   -13.8463    -8.4766  H       1  <O>11       0.0640
  32 H11       3.4144   -10.6101    -8.9599  H       1  <O>11       0.3292
  33 H12       0.3444   -12.4670    -8.7624  H       1  <O>11       0.0643
  34 H13       1.8191   -12.2246    -4.8976  H       1  <O>11       0.0644
@<TRIPOS>BOND
     1     1     2    2
     2     2     3    1
     3     2     4    1
     4     4     5   ar
     5     5     6   ar
     6     6     7    1
     7     6     8   ar
     8     8     9   ar
     9     9    10    1
    10    10    11    1
    11    11    12    1
    12    12    13   ar
    13    13    14   ar
    14    14    15   ar
    15    15    16   ar
    16    16    17    1
    17    17    18    2
    18    17    19    1
    19    16    20   ar
    20    12    20   ar
    21     9    21   ar
    22     4    21   ar
    23     3    22    1
    24     7    23    1
    25    10    24    1
    26    11    25    1
    27    11    26    1
    28     5    27    1
    29     8    28    1
    30    13    29    1
    31    14    30    1
    32    15    31    1
    33    19    32    1
    34    20    33    1
    35    21    34    1
@<TRIPOS>MOLECULE
mol49_2_20
 34 35 0 0 0
SMALL
USER_CHARGES
****
VDW energy = 107.68
@<TRIPOS>ATOM
   1 O1        3.4420    -9.1855    -5.2979  O.2     1  <O>11      -0.2451
   2 C1        2.8552    -9.8129    -4.4288  C.2     1  <O>11       0.3370
   3 O2        3.5096   -10.1823    -3.3012  O.3     1  <O>11      -0.4771
   4 C2        1.4620   -10.1610    -4.6040  C.ar    1  <O>11       0.0640
   5 C3        0.4923    -9.1588    -4.5362  C.ar    1  <O>11      -0.0061
   6 C4       -0.8582    -9.4910    -4.6926  C.ar    1  <O>11       0.1194
   7 O3       -1.7586    -8.5633    -4.6266  O.3     1  <O>11      -0.5067
   8 C5       -1.2352   -10.8171    -4.9191  C.ar    1  <O>11       0.0007
   9 C6       -0.2508   -11.8098    -4.9902  C.ar    1  <O>11       0.0316
  10 N1       -0.6453   -13.1754    -5.2252  N.pl3   1  <O>11      -0.3396
  11 C7       -1.4317   -13.8918    -4.2243  C.3     1  <O>11       0.0344
  12 C8       -0.6186   -14.0752    -2.9948  C.ar    1  <O>11      -0.0283
  13 C9       -0.1256   -12.9595    -2.2993  C.ar    1  <O>11      -0.0569
  14 C10       0.6516   -13.1330    -1.1470  C.ar    1  <O>11      -0.0593
  15 C11       0.9393   -14.4178    -0.6799  C.ar    1  <O>11      -0.0316
  16 C12       0.4434   -15.5292    -1.3711  C.ar    1  <O>11       0.1219
  17 N2        0.7429   -16.8526    -0.8849  N.4     1  <O>11       0.0060
  18 O4        0.3440   -16.9590     0.5029  O.2     1  <O>11      -0.1300
  19 O5        2.1672   -17.0980    -0.9998  O.2     1  <O>11      -0.3961
  20 C13      -0.3341   -15.3671    -2.5184  C.ar    1  <O>11      -0.0270
  21 C14       1.0979   -11.4888    -4.8380  C.ar    1  <O>11      -0.0266
  22 H1        2.9041   -10.6687    -2.7201  H       1  <O>11       0.2954
  23 H2       -2.6373    -8.9562    -4.7546  H       1  <O>11       0.2921
  24 H3       -0.3742   -13.6430    -6.0917  H       1  <O>11       0.1464
  25 H4       -1.7195   -14.8662    -4.6177  H       1  <O>11       0.0511
  26 H5       -2.3271   -13.3164    -3.9874  H       1  <O>11       0.0511
  27 H6        0.7698    -8.1785    -4.3716  H       1  <O>11       0.0662
  28 H7       -2.2311   -11.0627    -5.0330  H       1  <O>11       0.0672
  29 H8       -0.3368   -12.0079    -2.6383  H       1  <O>11       0.0621
  30 H9        1.0130   -12.3091    -0.6414  H       1  <O>11       0.0618
  31 H10       1.5130   -14.5464     0.1682  H       1  <O>11       0.0640
  32 H11       2.5820   -17.0653    -1.8394  H       1  <O>11       0.3292
  33 H12      -0.6995   -16.1938    -3.0164  H       1  <O>11       0.0643
  34 H13       1.8191   -12.2246    -4.8976  H       1  <O>11       0.0644
@<TRIPOS>BOND
     1     1     2    2
     2     2     3    1
     3     2     4    1
     4     4     5   ar
     5     5     6   ar
     6     6     7    1
     7     6     8   ar
     8     8     9   ar
     9     9    10    1
    10    10    11    1
    11    11    12    1
    12    12    13   ar
    13    13    14   ar
    14    14    15   ar
    15    15    16   ar
    16    16    17    1
    17    17    18    2
    18    17    19    1
    19    16    20   ar
    20    12    20   ar
    21     9    21   ar
    22     4    21   ar
    23     3    22    1
    24     7    23    1
    25    10    24    1
    26    11    25    1
    27    11    26    1
    28     5    27    1
    29     8    28    1
    30    13    29    1
    31    14    30    1
    32    15    31    1
    33    19    32    1
    34    20    33    1
    35    21    34    1
@<TRIPOS>MOLECULE
mol49_2_21
 34 35 0 0 0
SMALL
USER_CHARGES
****
VDW energy = 108.13
@<TRIPOS>ATOM
   1 O1        3.4420    -9.1855    -5.2979  O.2     1  <O>11      -0.2451
   2 C1        2.8552    -9.8129    -4.4288  C.2     1  <O>11       0.3370
   3 O2        3.5096   -10.1823    -3.3012  O.3     1  <O>11      -0.4771
   4 C2        1.4620   -10.1610    -4.6040  C.ar    1  <O>11       0.0640
   5 C3        1.0134   -11.4175    -4.1926  C.ar    1  <O>11      -0.0061
   6 C4       -0.3305   -11.7649    -4.3706  C.ar    1  <O>11       0.1194
   7 O3       -0.7471   -12.9308    -3.9927  O.3     1  <O>11      -0.5067
   8 C5       -1.2205   -10.8590    -4.9532  C.ar    1  <O>11       0.0007
   9 C6       -0.7568    -9.6008    -5.3553  C.ar    1  <O>11       0.0316
  10 N1       -1.6793    -8.6703    -5.9544  N.pl3   1  <O>11      -0.3396
  11 C7       -2.2808    -8.9696    -7.2513  C.3     1  <O>11       0.0344
  12 C8       -1.2247    -8.9812    -8.2957  C.ar    1  <O>11      -0.0283
  13 C9       -0.9993    -7.8435    -9.0871  C.ar    1  <O>11      -0.0569
  14 C10      -0.0118    -7.8590   -10.0803  C.ar    1  <O>11      -0.0593
  15 C11       0.7580    -9.0061   -10.2885  C.ar    1  <O>11      -0.0316
  16 C12       0.5359   -10.1380    -9.4959  C.ar    1  <O>11       0.1219
  17 N2        1.3330   -11.3188    -9.7146  N.4     1  <O>11       0.0060
  18 O4        1.1419   -11.7861   -11.0717  O.2     1  <O>11      -0.1300
  19 O5        0.9275   -12.3540    -8.7841  O.2     1  <O>11      -0.3961
  20 C13      -0.4435   -10.1319    -8.5020  C.ar    1  <O>11      -0.0270
  21 C14       0.5801    -9.2441    -5.1802  C.ar    1  <O>11      -0.0266
  22 H1        2.9041   -10.6687    -2.7201  H       1  <O>11       0.2954
  23 H2       -1.6953   -13.0131    -4.1849  H       1  <O>11       0.2921
  24 H3       -1.9118    -7.8005    -5.4724  H       1  <O>11       0.1464
  25 H4       -3.0215    -8.2079    -7.4927  H       1  <O>11       0.0511
  26 H5       -2.7639    -9.9463    -7.2097  H       1  <O>11       0.0511
  27 H6        1.6693   -12.0865    -3.7596  H       1  <O>11       0.0662
  28 H7       -2.2113   -11.1153    -5.0861  H       1  <O>11       0.0672
  29 H8       -1.5633    -6.9925    -8.9363  H       1  <O>11       0.0621
  30 H9        0.1476    -7.0204   -10.6602  H       1  <O>11       0.0618
  31 H10       1.4849    -9.0186   -11.0209  H       1  <O>11       0.0640
  32 H11       0.9906   -12.2052    -7.8611  H       1  <O>11       0.3292
  33 H12      -0.5942   -10.9704    -7.9196  H       1  <O>11       0.0643
  34 H13       0.9141    -8.3127    -5.4733  H       1  <O>11       0.0644
@<TRIPOS>BOND
     1     1     2    2
     2     2     3    1
     3     2     4    1
     4     4     5   ar
     5     5     6   ar
     6     6     7    1
     7     6     8   ar
     8     8     9   ar
     9     9    10    1
    10    10    11    1
    11    11    12    1
    12    12    13   ar
    13    13    14   ar
    14    14    15   ar
    15    15    16   ar
    16    16    17    1
    17    17    18    2
    18    17    19    1
    19    16    20   ar
    20    12    20   ar
    21     9    21   ar
    22     4    21   ar
    23     3    22    1
    24     7    23    1
    25    10    24    1
    26    11    25    1
    27    11    26    1
    28     5    27    1
    29     8    28    1
    30    13    29    1
    31    14    30    1
    32    15    31    1
    33    19    32    1
    34    20    33    1
    35    21    34    1
@<TRIPOS>MOLECULE
mol49_2_22
 34 35 0 0 0
SMALL
USER_CHARGES
****
VDW energy = 109.55
@<TRIPOS>ATOM
   1 O1        3.4420    -9.1855    -5.2979  O.2     1  <O>11      -0.2451
   2 C1        2.8552    -9.8129    -4.4288  C.2     1  <O>11       0.3370
   3 O2        3.5096   -10.1823    -3.3012  O.3     1  <O>11      -0.4771
   4 C2        1.4620   -10.1610    -4.6040  C.ar    1  <O>11       0.0640
   5 C3        1.1306   -11.3698    -5.2192  C.ar    1  <O>11      -0.0061
   6 C4       -0.2153   -11.7066    -5.4026  C.ar    1  <O>11       0.1194
   7 O3       -0.5240   -12.8254    -5.9759  O.3     1  <O>11      -0.5067
   8 C5       -1.2229   -10.8409    -4.9699  C.ar    1  <O>11       0.0007
   9 C6       -0.8747    -9.6351    -4.3496  C.ar    1  <O>11       0.0316
  10 N1       -1.9179    -8.7469    -3.9043  N.pl3   1  <O>11      -0.3396
  11 C7       -2.4373    -7.7200    -4.8039  C.3     1  <O>11       0.0344
  12 C8       -2.4863    -6.4173    -4.0919  C.ar    1  <O>11      -0.0283
  13 C9       -1.3112    -5.8483    -3.5753  C.ar    1  <O>11      -0.0569
  14 C10      -1.3597    -4.6260    -2.8930  C.ar    1  <O>11      -0.0593
  15 C11      -2.5777    -3.9629    -2.7243  C.ar    1  <O>11      -0.0316
  16 C12      -3.7478    -4.5284    -3.2438  C.ar    1  <O>11       0.1219
  17 N2       -5.0017    -3.8400    -3.0672  N.4     1  <O>11       0.0060
  18 O4       -5.2731    -3.6858    -1.6533  O.2     1  <O>11      -0.1300
  19 O5       -6.0652    -4.6088    -3.6837  O.2     1  <O>11      -0.3961
  20 C13      -3.7098    -5.7443    -3.9275  C.ar    1  <O>11      -0.0270
  21 C14       0.4636    -9.2913    -4.1600  C.ar    1  <O>11      -0.0266
  22 H1        2.9041   -10.6687    -2.7201  H       1  <O>11       0.2954
  23 H2       -1.4903   -12.9071    -6.0259  H       1  <O>11       0.2921
  24 H3       -2.2938    -8.8347    -2.9588  H       1  <O>11       0.1464
  25 H4       -3.4406    -7.9945    -5.1278  H       1  <O>11       0.0511
  26 H5       -1.7846    -7.6365    -5.6734  H       1  <O>11       0.0511
  27 H6        1.8739   -12.0113    -5.5368  H       1  <O>11       0.0662
  28 H7       -2.2155   -11.0882    -5.1063  H       1  <O>11       0.0672
  29 H8       -0.4083    -6.3325    -3.6989  H       1  <O>11       0.0621
  30 H9       -0.4929    -4.2140    -2.5136  H       1  <O>11       0.0618
  31 H10      -2.6143    -3.0629    -2.2206  H       1  <O>11       0.0640
  32 H11      -6.0364    -4.7963    -4.6013  H       1  <O>11       0.3292
  33 H12      -4.5781    -6.1486    -4.3116  H       1  <O>11       0.0643
  34 H13       0.7134    -8.4037    -3.6966  H       1  <O>11       0.0644
@<TRIPOS>BOND
     1     1     2    2
     2     2     3    1
     3     2     4    1
     4     4     5   ar
     5     5     6   ar
     6     6     7    1
     7     6     8   ar
     8     8     9   ar
     9     9    10    1
    10    10    11    1
    11    11    12    1
    12    12    13   ar
    13    13    14   ar
    14    14    15   ar
    15    15    16   ar
    16    16    17    1
    17    17    18    2
    18    17    19    1
    19    16    20   ar
    20    12    20   ar
    21     9    21   ar
    22     4    21   ar
    23     3    22    1
    24     7    23    1
    25    10    24    1
    26    11    25    1
    27    11    26    1
    28     5    27    1
    29     8    28    1
    30    13    29    1
    31    14    30    1
    32    15    31    1
    33    19    32    1
    34    20    33    1
    35    21    34    1
@<TRIPOS>MOLECULE
mol49_2_23
 34 35 0 0 0
SMALL
USER_CHARGES
****
VDW energy = 109.66
@<TRIPOS>ATOM
   1 O1        3.4420    -9.1855    -5.2979  O.2     1  <O>11      -0.2451
   2 C1        2.8552    -9.8129    -4.4288  C.2     1  <O>11       0.3370
   3 O2        3.5096   -10.1823    -3.3012  O.3     1  <O>11      -0.4771
   4 C2        1.4620   -10.1610    -4.6040  C.ar    1  <O>11       0.0640
   5 C3        1.0134   -11.4175    -4.1926  C.ar    1  <O>11      -0.0061
   6 C4       -0.3305   -11.7649    -4.3706  C.ar    1  <O>11       0.1194
   7 O3       -0.7471   -12.9308    -3.9927  O.3     1  <O>11      -0.5067
   8 C5       -1.2205   -10.8590    -4.9532  C.ar    1  <O>11       0.0007
   9 C6       -0.7568    -9.6008    -5.3553  C.ar    1  <O>11       0.0316
  10 N1       -1.6793    -8.6703    -5.9544  N.pl3   1  <O>11      -0.3396
  11 C7       -2.3553    -7.6752    -5.1260  C.3     1  <O>11       0.0344
  12 C8       -3.8076    -7.6762    -5.4377  C.ar    1  <O>11      -0.0283
  13 C9       -4.3394    -6.7370    -6.3358  C.ar    1  <O>11      -0.0569
  14 C10      -5.7110    -6.7302    -6.6198  C.ar    1  <O>11      -0.0593
  15 C11      -6.5591    -7.6601    -6.0136  C.ar    1  <O>11      -0.0316
  16 C12      -6.0273    -8.5990    -5.1222  C.ar    1  <O>11       0.1219
  17 N2       -6.9067    -9.5564    -4.4996  N.4     1  <O>11       0.0060
  18 O4       -7.9133    -8.8574    -3.7285  O.2     1  <O>11      -0.1300
  19 O5       -6.1382   -10.4193    -3.6241  O.2     1  <O>11      -0.3961
  20 C13      -4.6620    -8.6159    -4.8346  C.ar    1  <O>11      -0.0270
  21 C14       0.5801    -9.2441    -5.1802  C.ar    1  <O>11      -0.0266
  22 H1        2.9041   -10.6687    -2.7201  H       1  <O>11       0.2954
  23 H2       -1.6953   -13.0131    -4.1849  H       1  <O>11       0.2921
  24 H3       -1.8612    -8.7071    -6.9587  H       1  <O>11       0.1464
  25 H4       -1.9406    -6.6889    -5.3318  H       1  <O>11       0.0511
  26 H5       -2.2076    -7.9193    -4.0736  H       1  <O>11       0.0511
  27 H6        1.6693   -12.0865    -3.7596  H       1  <O>11       0.0662
  28 H7       -2.2113   -11.1153    -5.0861  H       1  <O>11       0.0672
  29 H8       -3.7174    -6.0491    -6.7884  H       1  <O>11       0.0621
  30 H9       -6.0963    -6.0359    -7.2791  H       1  <O>11       0.0618
  31 H10      -7.5700    -7.6548    -6.2214  H       1  <O>11       0.0640
  32 H11      -5.4438   -10.9426    -3.9734  H       1  <O>11       0.3292
  33 H12      -4.2802    -9.3169    -4.1805  H       1  <O>11       0.0643
  34 H13       0.9141    -8.3127    -5.4733  H       1  <O>11       0.0644
@<TRIPOS>BOND
     1     1     2    2
     2     2     3    1
     3     2     4    1
     4     4     5   ar
     5     5     6   ar
     6     6     7    1
     7     6     8   ar
     8     8     9   ar
     9     9    10    1
    10    10    11    1
    11    11    12    1
    12    12    13   ar
    13    13    14   ar
    14    14    15   ar
    15    15    16   ar
    16    16    17    1
    17    17    18    2
    18    17    19    1
    19    16    20   ar
    20    12    20   ar
    21     9    21   ar
    22     4    21   ar
    23     3    22    1
    24     7    23    1
    25    10    24    1
    26    11    25    1
    27    11    26    1
    28     5    27    1
    29     8    28    1
    30    13    29    1
    31    14    30    1
    32    15    31    1
    33    19    32    1
    34    20    33    1
    35    21    34    1
@<TRIPOS>MOLECULE
mol49_2_24
 34 35 0 0 0
SMALL
USER_CHARGES
****
VDW energy = 110.37
@<TRIPOS>ATOM
   1 O1        3.4420    -9.1855    -5.2979  O.2     1  <O>11      -0.2451
   2 C1        2.8552    -9.8129    -4.4288  C.2     1  <O>11       0.3370
   3 O2        3.5096   -10.1823    -3.3012  O.3     1  <O>11      -0.4771
   4 C2        1.4620   -10.1610    -4.6040  C.ar    1  <O>11       0.0640
   5 C3        0.8011    -9.7734    -5.7712  C.ar    1  <O>11      -0.0061
   6 C4       -0.5499   -10.0964    -5.9412  C.ar    1  <O>11       0.1194
   7 O3       -1.1647    -9.7348    -7.0214  O.3     1  <O>11      -0.5067
   8 C5       -1.2340   -10.8060    -4.9510  C.ar    1  <O>11       0.0007
   9 C6       -0.5561   -11.1926    -3.7888  C.ar    1  <O>11       0.0316
  10 N1       -1.2663   -11.9251    -2.7716  N.pl3   1  <O>11      -0.3396
  11 C7       -1.2262   -13.3852    -2.7596  C.3     1  <O>11       0.0344
  12 C8       -2.6046   -13.9167    -2.6050  C.ar    1  <O>11      -0.0283
  13 C9       -3.5904   -13.6154    -3.5584  C.ar    1  <O>11      -0.0569
  14 C10      -4.8933   -14.1064    -3.4057  C.ar    1  <O>11      -0.0593
  15 C11      -5.2203   -14.9021    -2.3050  C.ar    1  <O>11      -0.0316
  16 C12      -4.2357   -15.2059    -1.3577  C.ar    1  <O>11       0.1219
  17 N2       -4.5783   -16.0273    -0.2240  N.4     1  <O>11       0.0060
  18 O4       -5.1692   -17.2659    -0.6859  O.2     1  <O>11      -0.1300
  19 O5       -5.5268   -15.3210     0.6146  O.2     1  <O>11      -0.3961
  20 C13      -2.9342   -14.7239    -1.5020  C.ar    1  <O>11      -0.0270
  21 C14       0.7909   -10.8776    -3.6108  C.ar    1  <O>11      -0.0266
  22 H1        2.9041   -10.6687    -2.7201  H       1  <O>11       0.2954
  23 H2       -2.0878   -10.0338    -6.9834  H       1  <O>11       0.2921
  24 H3       -1.7987   -11.4232    -2.0591  H       1  <O>11       0.1464
  25 H4       -0.6108   -13.7249    -1.9272  H       1  <O>11       0.0511
  26 H5       -0.7997   -13.7435    -3.6970  H       1  <O>11       0.0511
  27 H6        1.3061    -9.2516    -6.5046  H       1  <O>11       0.0662
  28 H7       -2.2307   -11.0431    -5.0753  H       1  <O>11       0.0672
  29 H8       -3.3541   -13.0300    -4.3748  H       1  <O>11       0.0621
  30 H9       -5.6141   -13.8797    -4.1087  H       1  <O>11       0.0618
  31 H10      -6.1804   -15.2631    -2.1912  H       1  <O>11       0.0640
  32 H11      -5.2937   -14.4965     0.9938  H       1  <O>11       0.3292
  33 H12      -2.2150   -14.9596    -0.8005  H       1  <O>11       0.0643
  34 H13       1.2863   -11.1709    -2.7543  H       1  <O>11       0.0644
@<TRIPOS>BOND
     1     1     2    2
     2     2     3    1
     3     2     4    1
     4     4     5   ar
     5     5     6   ar
     6     6     7    1
     7     6     8   ar
     8     8     9   ar
     9     9    10    1
    10    10    11    1
    11    11    12    1
    12    12    13   ar
    13    13    14   ar
    14    14    15   ar
    15    15    16   ar
    16    16    17    1
    17    17    18    2
    18    17    19    1
    19    16    20   ar
    20    12    20   ar
    21     9    21   ar
    22     4    21   ar
    23     3    22    1
    24     7    23    1
    25    10    24    1
    26    11    25    1
    27    11    26    1
    28     5    27    1
    29     8    28    1
    30    13    29    1
    31    14    30    1
    32    15    31    1
    33    19    32    1
    34    20    33    1
    35    21    34    1
@<TRIPOS>MOLECULE
mol49_2_25
 34 35 0 0 0
SMALL
USER_CHARGES
****
VDW energy = 111.84
@<TRIPOS>ATOM
   1 O1        3.4420    -9.1855    -5.2979  O.2     1  <O>11      -0.2451
   2 C1        2.8552    -9.8129    -4.4288  C.2     1  <O>11       0.3370
   3 O2        3.5096   -10.1823    -3.3012  O.3     1  <O>11      -0.4771
   4 C2        1.4620   -10.1610    -4.6040  C.ar    1  <O>11       0.0640
   5 C3        0.5946   -10.0837    -3.5126  C.ar    1  <O>11      -0.0061
   6 C4       -0.7516   -10.4309    -3.6727  C.ar    1  <O>11       0.1194
   7 O3       -1.5561   -10.3630    -2.6610  O.3     1  <O>11      -0.5067
   8 C5       -1.2274   -10.8492    -4.9180  C.ar    1  <O>11       0.0007
   9 C6       -0.3466   -10.9160    -6.0041  C.ar    1  <O>11       0.0316
  10 N1       -0.8430   -11.3468    -7.2862  N.pl3   1  <O>11      -0.3396
  11 C7       -0.8204   -12.7637    -7.6404  C.3     1  <O>11       0.0344
  12 C8       -0.2433   -12.9247    -8.9996  C.ar    1  <O>11      -0.0283
  13 C9        1.0643   -12.4900    -9.2694  C.ar    1  <O>11      -0.0569
  14 C10       1.6037   -12.6305   -10.5544  C.ar    1  <O>11      -0.0593
  15 C11       0.8452   -13.2072   -11.5760  C.ar    1  <O>11      -0.0316
  16 C12      -0.4563   -13.6447   -11.3049  C.ar    1  <O>11       0.1219
  17 N2       -1.2346   -14.2391   -12.3625  N.4     1  <O>11       0.0060
  18 O4       -1.3923   -13.2856   -13.4407  O.2     1  <O>11      -0.1300
  19 O5       -2.5388   -14.6120   -11.8508  O.2     1  <O>11      -0.3961
  20 C13      -1.0019   -13.5117   -10.0275  C.ar    1  <O>11      -0.0270
  21 C14       0.9963   -10.5699    -5.8555  C.ar    1  <O>11      -0.0266
  22 H1        2.9041   -10.6687    -2.7201  H       1  <O>11       0.2954
  23 H2       -2.4464   -10.6349    -2.9371  H       1  <O>11       0.2921
  24 H3       -1.2101   -10.6610    -7.9479  H       1  <O>11       0.1464
  25 H4       -1.8362   -13.1574    -7.6285  H       1  <O>11       0.0511
  26 H5       -0.2110   -13.3079    -6.9182  H       1  <O>11       0.0511
  27 H6        0.9443    -9.7723    -2.5929  H       1  <O>11       0.0662
  28 H7       -2.2197   -11.1068    -5.0362  H       1  <O>11       0.0672
  29 H8        1.6301   -12.0653    -8.5180  H       1  <O>11       0.0621
  30 H9        2.5646   -12.3070   -10.7471  H       1  <O>11       0.0618
  31 H10       1.2415   -13.3098   -12.5234  H       1  <O>11       0.0640
  32 H11      -2.6076   -15.2255   -11.1459  H       1  <O>11       0.3292
  33 H12      -1.9605   -13.8435    -9.8378  H       1  <O>11       0.0643
  34 H13       1.6389   -10.6156    -6.6617  H       1  <O>11       0.0644
@<TRIPOS>BOND
     1     1     2    2
     2     2     3    1
     3     2     4    1
     4     4     5   ar
     5     5     6   ar
     6     6     7    1
     7     6     8   ar
     8     8     9   ar
     9     9    10    1
    10    10    11    1
    11    11    12    1
    12    12    13   ar
    13    13    14   ar
    14    14    15   ar
    15    15    16   ar
    16    16    17    1
    17    17    18    2
    18    17    19    1
    19    16    20   ar
    20    12    20   ar
    21     9    21   ar
    22     4    21   ar
    23     3    22    1
    24     7    23    1
    25    10    24    1
    26    11    25    1
    27    11    26    1
    28     5    27    1
    29     8    28    1
    30    13    29    1
    31    14    30    1
    32    15    31    1
    33    19    32    1
    34    20    33    1
    35    21    34    1
@<TRIPOS>MOLECULE
mol49_2_26
 34 35 0 0 0
SMALL
USER_CHARGES
****
VDW energy = 112.84
@<TRIPOS>ATOM
   1 O1        3.4420    -9.1855    -5.2979  O.2     1  <O>11      -0.2451
   2 C1        2.8552    -9.8129    -4.4288  C.2     1  <O>11       0.3370
   3 O2        3.5096   -10.1823    -3.3012  O.3     1  <O>11      -0.4771
   4 C2        1.4620   -10.1610    -4.6040  C.ar    1  <O>11       0.0640
   5 C3        0.5946   -10.0837    -3.5126  C.ar    1  <O>11      -0.0061
   6 C4       -0.7516   -10.4309    -3.6727  C.ar    1  <O>11       0.1194
   7 O3       -1.5561   -10.3630    -2.6610  O.3     1  <O>11      -0.5067
   8 C5       -1.2274   -10.8492    -4.9180  C.ar    1  <O>11       0.0007
   9 C6       -0.3466   -10.9160    -6.0041  C.ar    1  <O>11       0.0316
  10 N1       -0.8430   -11.3468    -7.2862  N.pl3   1  <O>11      -0.3396
  11 C7       -0.8204   -12.7637    -7.6404  C.3     1  <O>11       0.0344
  12 C8       -0.2433   -12.9247    -8.9996  C.ar    1  <O>11      -0.0283
  13 C9       -1.0856   -13.0472   -10.1162  C.ar    1  <O>11      -0.0569
  14 C10      -0.5412   -13.2117   -11.3962  C.ar    1  <O>11      -0.0593
  15 C11       0.8443   -13.2518   -11.5712  C.ar    1  <O>11      -0.0316
  16 C12       1.6832   -13.1247   -10.4581  C.ar    1  <O>11       0.1219
  17 N2        3.1118   -13.1666   -10.6440  N.4     1  <O>11       0.0060
  18 O4        3.4852   -14.4353   -11.2335  O.2     1  <O>11      -0.1300
  19 O5        3.7700   -13.0159    -9.3611  O.2     1  <O>11      -0.3961
  20 C13       1.1509   -12.9578    -9.1791  C.ar    1  <O>11      -0.0270
  21 C14       0.9963   -10.5699    -5.8555  C.ar    1  <O>11      -0.0266
  22 H1        2.9041   -10.6687    -2.7201  H       1  <O>11       0.2954
  23 H2       -2.4464   -10.6349    -2.9371  H       1  <O>11       0.2921
  24 H3       -1.2101   -10.6610    -7.9479  H       1  <O>11       0.1464
  25 H4       -1.8362   -13.1574    -7.6285  H       1  <O>11       0.0511
  26 H5       -0.2110   -13.3079    -6.9182  H       1  <O>11       0.0511
  27 H6        0.9443    -9.7723    -2.5929  H       1  <O>11       0.0662
  28 H7       -2.2197   -11.1068    -5.0362  H       1  <O>11       0.0672
  29 H8       -2.1098   -13.0160    -9.9934  H       1  <O>11       0.0621
  30 H9       -1.1656   -13.3035   -12.2128  H       1  <O>11       0.0618
  31 H10       1.2460   -13.3743   -12.5138  H       1  <O>11       0.0640
  32 H11       3.6301   -12.2428    -8.8506  H       1  <O>11       0.3292
  33 H12       1.7793   -12.8589    -8.3665  H       1  <O>11       0.0643
  34 H13       1.6389   -10.6156    -6.6617  H       1  <O>11       0.0644
@<TRIPOS>BOND
     1     1     2    2
     2     2     3    1
     3     2     4    1
     4     4     5   ar
     5     5     6   ar
     6     6     7    1
     7     6     8   ar
     8     8     9   ar
     9     9    10    1
    10    10    11    1
    11    11    12    1
    12    12    13   ar
    13    13    14   ar
    14    14    15   ar
    15    15    16   ar
    16    16    17    1
    17    17    18    2
    18    17    19    1
    19    16    20   ar
    20    12    20   ar
    21     9    21   ar
    22     4    21   ar
    23     3    22    1
    24     7    23    1
    25    10    24    1
    26    11    25    1
    27    11    26    1
    28     5    27    1
    29     8    28    1
    30    13    29    1
    31    14    30    1
    32    15    31    1
    33    19    32    1
    34    20    33    1
    35    21    34    1
@<TRIPOS>MOLECULE
mol49_2_27
 34 35 0 0 0
SMALL
USER_CHARGES
****
VDW energy = 114.19
@<TRIPOS>ATOM
   1 O1        3.4420    -9.1855    -5.2979  O.2     1  <O>11      -0.2451
   2 C1        2.8552    -9.8129    -4.4288  C.2     1  <O>11       0.3370
   3 O2        3.5096   -10.1823    -3.3012  O.3     1  <O>11      -0.4771
   4 C2        1.4620   -10.1610    -4.6040  C.ar    1  <O>11       0.0640
   5 C3        1.0134   -11.4175    -4.1926  C.ar    1  <O>11      -0.0061
   6 C4       -0.3305   -11.7649    -4.3706  C.ar    1  <O>11       0.1194
   7 O3       -0.7471   -12.9308    -3.9927  O.3     1  <O>11      -0.5067
   8 C5       -1.2205   -10.8590    -4.9532  C.ar    1  <O>11       0.0007
   9 C6       -0.7568    -9.6008    -5.3553  C.ar    1  <O>11       0.0316
  10 N1       -1.6793    -8.6703    -5.9544  N.pl3   1  <O>11      -0.3396
  11 C7       -2.2808    -8.9696    -7.2513  C.3     1  <O>11       0.0344
  12 C8       -2.1624    -7.7833    -8.1373  C.ar    1  <O>11      -0.0283
  13 C9       -3.2365    -6.8887    -8.2697  C.ar    1  <O>11      -0.0569
  14 C10      -3.1290    -5.7770    -9.1149  C.ar    1  <O>11      -0.0593
  15 C11      -1.9507    -5.5489    -9.8300  C.ar    1  <O>11      -0.0316
  16 C12      -0.8788    -6.4385    -9.6936  C.ar    1  <O>11       0.1219
  17 N2        0.3347    -6.1984   -10.4334  N.4     1  <O>11       0.0060
  18 O4        0.0438    -6.1995   -11.8518  O.2     1  <O>11      -0.1300
  19 O5        1.2961    -7.2417   -10.1351  O.2     1  <O>11      -0.3961
  20 C13      -0.9749    -7.5474    -8.8521  C.ar    1  <O>11      -0.0270
  21 C14       0.5801    -9.2441    -5.1802  C.ar    1  <O>11      -0.0266
  22 H1        2.9041   -10.6687    -2.7201  H       1  <O>11       0.2954
  23 H2       -1.6953   -13.0131    -4.1849  H       1  <O>11       0.2921
  24 H3       -1.9118    -7.8005    -5.4724  H       1  <O>11       0.1464
  25 H4       -3.3331    -9.2173    -7.1152  H       1  <O>11       0.0511
  26 H5       -1.7636    -9.8163    -7.7037  H       1  <O>11       0.0511
  27 H6        1.6693   -12.0865    -3.7596  H       1  <O>11       0.0662
  28 H7       -2.2113   -11.1153    -5.0861  H       1  <O>11       0.0672
  29 H8       -4.1086    -7.0509    -7.7422  H       1  <O>11       0.0621
  30 H9       -3.9227    -5.1243    -9.2098  H       1  <O>11       0.0618
  31 H10      -1.8712    -4.7307   -10.4540  H       1  <O>11       0.0640
  32 H11       1.5889    -7.3711    -9.2545  H       1  <O>11       0.3292
  33 H12      -0.1758    -8.1931    -8.7547  H       1  <O>11       0.0643
  34 H13       0.9141    -8.3127    -5.4733  H       1  <O>11       0.0644
@<TRIPOS>BOND
     1     1     2    2
     2     2     3    1
     3     2     4    1
     4     4     5   ar
     5     5     6   ar
     6     6     7    1
     7     6     8   ar
     8     8     9   ar
     9     9    10    1
    10    10    11    1
    11    11    12    1
    12    12    13   ar
    13    13    14   ar
    14    14    15   ar
    15    15    16   ar
    16    16    17    1
    17    17    18    2
    18    17    19    1
    19    16    20   ar
    20    12    20   ar
    21     9    21   ar
    22     4    21   ar
    23     3    22    1
    24     7    23    1
    25    10    24    1
    26    11    25    1
    27    11    26    1
    28     5    27    1
    29     8    28    1
    30    13    29    1
    31    14    30    1
    32    15    31    1
    33    19    32    1
    34    20    33    1
    35    21    34    1
@<TRIPOS>MOLECULE
mol49_2_28
 34 35 0 0 0
SMALL
USER_CHARGES
****
VDW energy = 114.21
@<TRIPOS>ATOM
   1 O1        3.4420    -9.1855    -5.2979  O.2     1  <O>11      -0.2451
   2 C1        2.8552    -9.8129    -4.4288  C.2     1  <O>11       0.3370
   3 O2        3.5096   -10.1823    -3.3012  O.3     1  <O>11      -0.4771
   4 C2        1.4620   -10.1610    -4.6040  C.ar    1  <O>11       0.0640
   5 C3        0.4923    -9.1588    -4.5362  C.ar    1  <O>11      -0.0061
   6 C4       -0.8582    -9.4910    -4.6926  C.ar    1  <O>11       0.1194
   7 O3       -1.7586    -8.5633    -4.6266  O.3     1  <O>11      -0.5067
   8 C5       -1.2352   -10.8171    -4.9191  C.ar    1  <O>11       0.0007
   9 C6       -0.2508   -11.8098    -4.9902  C.ar    1  <O>11       0.0316
  10 N1       -0.6453   -13.1754    -5.2252  N.pl3   1  <O>11      -0.3396
  11 C7       -0.6647   -13.7070    -6.5855  C.3     1  <O>11       0.0344
  12 C8       -1.7090   -13.0062    -7.3758  C.ar    1  <O>11      -0.0283
  13 C9       -1.6436   -11.6157    -7.5594  C.ar    1  <O>11      -0.0569
  14 C10      -2.6354   -10.9535    -8.2941  C.ar    1  <O>11      -0.0593
  15 C11      -3.6953   -11.6726    -8.8520  C.ar    1  <O>11      -0.0316
  16 C12      -3.7569   -13.0593    -8.6726  C.ar    1  <O>11       0.1219
  17 N2       -4.8524   -13.7966    -9.2504  N.4     1  <O>11       0.0060
  18 O4       -5.5043   -14.5789    -8.2211  O.2     1  <O>11      -0.1300
  19 O5       -4.3479   -14.6796   -10.2836  O.2     1  <O>11      -0.3961
  20 C13      -2.7725   -13.7288    -7.9447  C.ar    1  <O>11      -0.0270
  21 C14       1.0979   -11.4888    -4.8380  C.ar    1  <O>11      -0.0266
  22 H1        2.9041   -10.6687    -2.7201  H       1  <O>11       0.2954
  23 H2       -2.6373    -8.9562    -4.7546  H       1  <O>11       0.2921
  24 H3       -0.9125   -13.7717    -4.4403  H       1  <O>11       0.1464
  25 H4       -0.8866   -14.7733    -6.5557  H       1  <O>11       0.0511
  26 H5        0.3099   -13.5513    -7.0491  H       1  <O>11       0.0511
  27 H6        0.7698    -8.1785    -4.3716  H       1  <O>11       0.0662
  28 H7       -2.2311   -11.0627    -5.0330  H       1  <O>11       0.0672
  29 H8       -0.8619   -11.0795    -7.1515  H       1  <O>11       0.0621
  30 H9       -2.5831    -9.9310    -8.4236  H       1  <O>11       0.0618
  31 H10      -4.4270   -11.1852    -9.3923  H       1  <O>11       0.0640
  32 H11      -3.8973   -14.3246   -11.0245  H       1  <O>11       0.3292
  33 H12      -2.8251   -14.7524    -7.8242  H       1  <O>11       0.0643
  34 H13       1.8191   -12.2246    -4.8976  H       1  <O>11       0.0644
@<TRIPOS>BOND
     1     1     2    2
     2     2     3    1
     3     2     4    1
     4     4     5   ar
     5     5     6   ar
     6     6     7    1
     7     6     8   ar
     8     8     9   ar
     9     9    10    1
    10    10    11    1
    11    11    12    1
    12    12    13   ar
    13    13    14   ar
    14    14    15   ar
    15    15    16   ar
    16    16    17    1
    17    17    18    2
    18    17    19    1
    19    16    20   ar
    20    12    20   ar
    21     9    21   ar
    22     4    21   ar
    23     3    22    1
    24     7    23    1
    25    10    24    1
    26    11    25    1
    27    11    26    1
    28     5    27    1
    29     8    28    1
    30    13    29    1
    31    14    30    1
    32    15    31    1
    33    19    32    1
    34    20    33    1
    35    21    34    1
@<TRIPOS>MOLECULE
mol49_2_29
 34 35 0 0 0
SMALL
USER_CHARGES
****
VDW energy = 115.55
@<TRIPOS>ATOM
   1 O1        3.4420    -9.1855    -5.2979  O.2     1  <O>11      -0.2451
   2 C1        2.8552    -9.8129    -4.4288  C.2     1  <O>11       0.3370
   3 O2        3.5096   -10.1823    -3.3012  O.3     1  <O>11      -0.4771
   4 C2        1.4620   -10.1610    -4.6040  C.ar    1  <O>11       0.0640
   5 C3        1.0134   -11.4175    -4.1926  C.ar    1  <O>11      -0.0061
   6 C4       -0.3305   -11.7649    -4.3706  C.ar    1  <O>11       0.1194
   7 O3       -0.7471   -12.9308    -3.9927  O.3     1  <O>11      -0.5067
   8 C5       -1.2205   -10.8590    -4.9532  C.ar    1  <O>11       0.0007
   9 C6       -0.7568    -9.6008    -5.3553  C.ar    1  <O>11       0.0316
  10 N1       -1.6793    -8.6703    -5.9544  N.pl3   1  <O>11      -0.3396
  11 C7       -1.8747    -8.6640    -7.4019  C.3     1  <O>11       0.0344
  12 C8       -1.7939    -7.2691    -7.9060  C.ar    1  <O>11      -0.0283
  13 C9       -2.9653    -6.5265    -8.1246  C.ar    1  <O>11      -0.0569
  14 C10      -2.8892    -5.2155    -8.6119  C.ar    1  <O>11      -0.0593
  15 C11      -1.6466    -4.6365    -8.8810  C.ar    1  <O>11      -0.0316
  16 C12      -0.4793    -5.3758    -8.6581  C.ar    1  <O>11       0.1219
  17 N2        0.8002    -4.7736    -8.9371  N.4     1  <O>11       0.0060
  18 O4        0.8670    -4.4080   -10.3365  O.2     1  <O>11      -0.1300
  19 O5        1.8555    -5.7199    -8.6326  O.2     1  <O>11      -0.3961
  20 C13      -0.5442    -6.6815    -8.1703  C.ar    1  <O>11      -0.0270
  21 C14       0.5801    -9.2441    -5.1802  C.ar    1  <O>11      -0.0266
  22 H1        2.9041   -10.6687    -2.7201  H       1  <O>11       0.2954
  23 H2       -1.6953   -13.0131    -4.1849  H       1  <O>11       0.2921
  24 H3       -2.1960    -8.0141    -5.3667  H       1  <O>11       0.1464
  25 H4       -2.8540    -9.0790    -7.6380  H       1  <O>11       0.0511
  26 H5       -1.1000    -9.2685    -7.8746  H       1  <O>11       0.0511
  27 H6        1.6693   -12.0865    -3.7596  H       1  <O>11       0.0662
  28 H7       -2.2113   -11.1153    -5.0861  H       1  <O>11       0.0672
  29 H8       -3.8859    -6.9482    -7.9255  H       1  <O>11       0.0621
  30 H9       -3.7539    -4.6756    -8.7728  H       1  <O>11       0.0618
  31 H10      -1.5899    -3.6711    -9.2412  H       1  <O>11       0.0640
  32 H11       1.9473    -6.0553    -7.7625  H       1  <O>11       0.3292
  33 H12       0.3235    -7.2149    -8.0039  H       1  <O>11       0.0643
  34 H13       0.9141    -8.3127    -5.4733  H       1  <O>11       0.0644
@<TRIPOS>BOND
     1     1     2    2
     2     2     3    1
     3     2     4    1
     4     4     5   ar
     5     5     6   ar
     6     6     7    1
     7     6     8   ar
     8     8     9   ar
     9     9    10    1
    10    10    11    1
    11    11    12    1
    12    12    13   ar
    13    13    14   ar
    14    14    15   ar
    15    15    16   ar
    16    16    17    1
    17    17    18    2
    18    17    19    1
    19    16    20   ar
    20    12    20   ar
    21     9    21   ar
    22     4    21   ar
    23     3    22    1
    24     7    23    1
    25    10    24    1
    26    11    25    1
    27    11    26    1
    28     5    27    1
    29     8    28    1
    30    13    29    1
    31    14    30    1
    32    15    31    1
    33    19    32    1
    34    20    33    1
    35    21    34    1
@<TRIPOS>MOLECULE
mol49_2_30
 34 35 0 0 0
SMALL
USER_CHARGES
****
VDW energy = 121.23
@<TRIPOS>ATOM
   1 O1        3.4420    -9.1855    -5.2979  O.2     1  <O>11      -0.2451
   2 C1        2.8552    -9.8129    -4.4288  C.2     1  <O>11       0.3370
   3 O2        3.5096   -10.1823    -3.3012  O.3     1  <O>11      -0.4771
   4 C2        1.4620   -10.1610    -4.6040  C.ar    1  <O>11       0.0640
   5 C3        0.8011    -9.7734    -5.7712  C.ar    1  <O>11      -0.0061
   6 C4       -0.5499   -10.0964    -5.9412  C.ar    1  <O>11       0.1194
   7 O3       -1.1647    -9.7348    -7.0214  O.3     1  <O>11      -0.5067
   8 C5       -1.2340   -10.8060    -4.9510  C.ar    1  <O>11       0.0007
   9 C6       -0.5561   -11.1926    -3.7888  C.ar    1  <O>11       0.0316
  10 N1       -1.2663   -11.9251    -2.7716  N.pl3   1  <O>11      -0.3396
  11 C7       -0.5768   -12.3375    -1.5517  C.3     1  <O>11       0.0344
  12 C8       -0.8615   -13.7703    -1.2828  C.ar    1  <O>11      -0.0283
  13 C9       -0.5015   -14.7516    -2.2203  C.ar    1  <O>11      -0.0569
  14 C10      -0.7815   -16.1014    -1.9719  C.ar    1  <O>11      -0.0593
  15 C11      -1.4184   -16.4810    -0.7879  C.ar    1  <O>11      -0.0316
  16 C12      -1.7724   -15.5026     0.1482  C.ar    1  <O>11       0.1219
  17 N2       -2.4291   -15.8996     1.3683  N.4     1  <O>11       0.0060
  18 O4       -1.6361   -16.9098     2.0371  O.2     1  <O>11      -0.1300
  19 O5       -3.7387   -16.4386     1.0580  O.2     1  <O>11      -0.3961
  20 C13      -1.4955   -14.1556    -0.0884  C.ar    1  <O>11      -0.0270
  21 C14       0.7909   -10.8776    -3.6108  C.ar    1  <O>11      -0.0266
  22 H1        2.9041   -10.6687    -2.7201  H       1  <O>11       0.2954
  23 H2       -2.0878   -10.0338    -6.9834  H       1  <O>11       0.2921
  24 H3       -2.2520   -12.1570    -2.9040  H       1  <O>11       0.1464
  25 H4       -0.9273   -11.7345    -0.7148  H       1  <O>11       0.0511
  26 H5        0.4971   -12.1960    -1.6772  H       1  <O>11       0.0511
  27 H6        1.3061    -9.2516    -6.5046  H       1  <O>11       0.0662
  28 H7       -2.2307   -11.0431    -5.0753  H       1  <O>11       0.0672
  29 H8       -0.0288   -14.4774    -3.0957  H       1  <O>11       0.0621
  30 H9       -0.5165   -16.8178    -2.6659  H       1  <O>11       0.0618
  31 H10      -1.6261   -17.4752    -0.6048  H       1  <O>11       0.0640
  32 H11      -4.3736   -15.9051     0.6218  H       1  <O>11       0.3292
  33 H12      -1.7557   -13.4436     0.6119  H       1  <O>11       0.0643
  34 H13       1.2863   -11.1709    -2.7543  H       1  <O>11       0.0644
@<TRIPOS>BOND
     1     1     2    2
     2     2     3    1
     3     2     4    1
     4     4     5   ar
     5     5     6   ar
     6     6     7    1
     7     6     8   ar
     8     8     9   ar
     9     9    10    1
    10    10    11    1
    11    11    12    1
    12    12    13   ar
    13    13    14   ar
    14    14    15   ar
    15    15    16   ar
    16    16    17    1
    17    17    18    2
    18    17    19    1
    19    16    20   ar
    20    12    20   ar
    21     9    21   ar
    22     4    21   ar
    23     3    22    1
    24     7    23    1
    25    10    24    1
    26    11    25    1
    27    11    26    1
    28     5    27    1
    29     8    28    1
    30    13    29    1
    31    14    30    1
    32    15    31    1
    33    19    32    1
    34    20    33    1
    35    21    34    1
