@<TRIPOS>MOLECULE
mol46_1_1
 33 34 0 0 0
SMALL
USER_CHARGES
****
VDW energy = 164.06
@<TRIPOS>ATOM
   1 O1        3.4420    -9.1855    -5.2979  O.2     1  <O>11      -0.2450
   2 C1        2.8552    -9.8129    -4.4288  C.2     1  <O>11       0.3405
   3 O2        3.5096   -10.1823    -3.3012  O.3     1  <O>11      -0.4770
   4 C2        1.4620   -10.1610    -4.6040  C.ar    1  <O>11       0.1058
   5 C3        0.5200    -9.6963    -3.6828  C.ar    1  <O>11      -0.0023
   6 C4       -0.8275   -10.0393    -3.8389  C.ar    1  <O>11       0.1242
   7 O3       -1.7503    -9.5902    -2.9373  O.3     1  <O>11      -0.4872
   8 C5       -2.0311   -10.6144    -1.9973  C.3     1  <O>11       0.1173
   9 C6       -1.5984   -10.1774    -0.6445  C.ar    1  <O>11       0.0248
  10 C7       -2.4954    -9.5064     0.2049  C.ar    1  <O>11      -0.0526
  11 C8       -2.0829    -9.0855     1.4731  C.ar    1  <O>11      -0.0612
  12 C9       -0.7770    -9.3310     1.9066  C.ar    1  <O>11      -0.0590
  13 C10       0.1134   -10.0045     1.0631  C.ar    1  <O>11      -0.0261
  14 C11      -0.2881   -10.4306    -0.2031  C.ar    1  <O>11       0.1298
  15 F1        0.5824   -11.0976    -1.0263  F       1  <O>11      -0.2051
  16 C12      -1.2301   -10.8382    -4.9121  C.ar    1  <O>11       0.0138
  17 C13      -0.2765   -11.2906    -5.8307  C.ar    1  <O>11       0.1670
  18 N1       -0.6966   -12.1128    -6.9372  N.4     1  <O>11       0.0097
  19 O4       -1.6726   -11.3936    -7.7312  O.2     1  <O>11      -0.1299
  20 O5       -1.2897   -13.3360    -6.4333  O.2     1  <O>11      -0.3960
  21 C14       1.0696   -10.9526    -5.6844  C.ar    1  <O>11       0.1610
  22 O6        1.9517   -11.3647    -6.5378  O.3     1  <O>11      -0.5037
  23 H1        2.9041   -10.6687    -2.7201  H       1  <O>11       0.2954
  24 H2       -1.4939   -11.5206    -2.2757  H       1  <O>11       0.0749
  25 H3       -3.1022   -10.8158    -1.9892  H       1  <O>11       0.0749
  26 H4        2.8275   -11.0379    -6.2813  H       1  <O>11       0.2923
  27 H5        0.8164    -9.1035    -2.8918  H       1  <O>11       0.0663
  28 H6       -3.4615    -9.3238    -0.1085  H       1  <O>11       0.0622
  29 H7       -2.7453    -8.5916     2.0914  H       1  <O>11       0.0618
  30 H8       -0.4719    -9.0180     2.8414  H       1  <O>11       0.0618
  31 H9        1.0778   -10.1882     1.3812  H       1  <O>11       0.0646
  32 H10      -2.2236   -11.0929    -5.0265  H       1  <O>11       0.0678
  33 H11      -0.7842   -13.9161    -5.8987  H       1  <O>11       0.3292
@<TRIPOS>BOND
     1     1     2    2
     2     2     3    1
     3     2     4    1
     4     4     5   ar
     5     5     6   ar
     6     6     7    1
     7     7     8    1
     8     8     9    1
     9     9    10   ar
    10    10    11   ar
    11    11    12   ar
    12    12    13   ar
    13    13    14   ar
    14     9    14   ar
    15    14    15    1
    16     6    16   ar
    17    16    17   ar
    18    17    18    1
    19    18    19    2
    20    18    20    1
    21    17    21   ar
    22     4    21   ar
    23    21    22    1
    24     3    23    1
    25     8    24    1
    26     8    25    1
    27    22    26    1
    28     5    27    1
    29    10    28    1
    30    11    29    1
    31    12    30    1
    32    13    31    1
    33    16    32    1
    34    20    33    1
@<TRIPOS>MOLECULE
mol46_1_2
 33 34 0 0 0
SMALL
USER_CHARGES
****
VDW energy = 166.35
@<TRIPOS>ATOM
   1 O1        3.4420    -9.1855    -5.2979  O.2     1  <O>11      -0.2450
   2 C1        2.8552    -9.8129    -4.4288  C.2     1  <O>11       0.3405
   3 O2        3.5096   -10.1823    -3.3012  O.3     1  <O>11      -0.4770
   4 C2        1.4620   -10.1610    -4.6040  C.ar    1  <O>11       0.1058
   5 C3        0.5200    -9.6963    -3.6828  C.ar    1  <O>11      -0.0023
   6 C4       -0.8275   -10.0393    -3.8389  C.ar    1  <O>11       0.1242
   7 O3       -1.7503    -9.5902    -2.9373  O.3     1  <O>11      -0.4872
   8 C5       -2.2628    -8.3398    -3.3674  C.3     1  <O>11       0.1173
   9 C6       -3.2666    -7.8518    -2.3863  C.ar    1  <O>11       0.0248
  10 C7       -4.6235    -8.1888    -2.5325  C.ar    1  <O>11      -0.0526
  11 C8       -5.5684    -7.7188    -1.6150  C.ar    1  <O>11      -0.0612
  12 C9       -5.1706    -6.9129    -0.5445  C.ar    1  <O>11      -0.0590
  13 C10      -3.8190    -6.5831    -0.3961  C.ar    1  <O>11      -0.0261
  14 C11      -2.8677    -7.0481    -1.3042  C.ar    1  <O>11       0.1298
  15 F1       -1.5421    -6.7311    -1.1539  F       1  <O>11      -0.2051
  16 C12      -1.2301   -10.8382    -4.9121  C.ar    1  <O>11       0.0138
  17 C13      -0.2765   -11.2906    -5.8307  C.ar    1  <O>11       0.1670
  18 N1       -0.6966   -12.1128    -6.9372  N.4     1  <O>11       0.0097
  19 O4       -1.6726   -11.3936    -7.7312  O.2     1  <O>11      -0.1299
  20 O5       -1.2897   -13.3360    -6.4333  O.2     1  <O>11      -0.3960
  21 C14       1.0696   -10.9526    -5.6844  C.ar    1  <O>11       0.1610
  22 O6        1.9517   -11.3647    -6.5378  O.3     1  <O>11      -0.5037
  23 H1        2.9041   -10.6687    -2.7201  H       1  <O>11       0.2954
  24 H2       -2.7346    -8.4564    -4.3427  H       1  <O>11       0.0749
  25 H3       -1.4478    -7.6200    -3.4424  H       1  <O>11       0.0749
  26 H4        2.8275   -11.0379    -6.2813  H       1  <O>11       0.2923
  27 H5        0.8164    -9.1035    -2.8918  H       1  <O>11       0.0663
  28 H6       -4.9234    -8.7850    -3.3196  H       1  <O>11       0.0622
  29 H7       -6.5634    -7.9680    -1.7286  H       1  <O>11       0.0618
  30 H8       -5.8684    -6.5639     0.1310  H       1  <O>11       0.0618
  31 H9       -3.5225    -5.9892     0.3942  H       1  <O>11       0.0646
  32 H10      -2.2236   -11.0929    -5.0265  H       1  <O>11       0.0678
  33 H11      -0.7842   -13.9161    -5.8987  H       1  <O>11       0.3292
@<TRIPOS>BOND
     1     1     2    2
     2     2     3    1
     3     2     4    1
     4     4     5   ar
     5     5     6   ar
     6     6     7    1
     7     7     8    1
     8     8     9    1
     9     9    10   ar
    10    10    11   ar
    11    11    12   ar
    12    12    13   ar
    13    13    14   ar
    14     9    14   ar
    15    14    15    1
    16     6    16   ar
    17    16    17   ar
    18    17    18    1
    19    18    19    2
    20    18    20    1
    21    17    21   ar
    22     4    21   ar
    23    21    22    1
    24     3    23    1
    25     8    24    1
    26     8    25    1
    27    22    26    1
    28     5    27    1
    29    10    28    1
    30    11    29    1
    31    12    30    1
    32    13    31    1
    33    16    32    1
    34    20    33    1
@<TRIPOS>MOLECULE
mol46_1_3
 33 34 0 0 0
SMALL
USER_CHARGES
****
VDW energy = 167.11
@<TRIPOS>ATOM
   1 O1        3.4420    -9.1855    -5.2979  O.2     1  <O>11      -0.2450
   2 C1        2.8552    -9.8129    -4.4288  C.2     1  <O>11       0.3405
   3 O2        3.5096   -10.1823    -3.3012  O.3     1  <O>11      -0.4770
   4 C2        1.4620   -10.1610    -4.6040  C.ar    1  <O>11       0.1058
   5 C3        0.5200    -9.6963    -3.6828  C.ar    1  <O>11      -0.0023
   6 C4       -0.8275   -10.0393    -3.8389  C.ar    1  <O>11       0.1242
   7 O3       -1.7503    -9.5902    -2.9373  O.3     1  <O>11      -0.4872
   8 C5       -2.2628    -8.3398    -3.3674  C.3     1  <O>11       0.1173
   9 C6       -3.2666    -7.8518    -2.3863  C.ar    1  <O>11       0.0248
  10 C7       -2.8713    -7.0312    -1.3155  C.ar    1  <O>11      -0.0526
  11 C8       -3.8154    -6.5827    -0.3865  C.ar    1  <O>11      -0.0612
  12 C9       -5.1591    -6.9445    -0.5170  C.ar    1  <O>11      -0.0590
  13 C10      -5.5529    -7.7562    -1.5866  C.ar    1  <O>11      -0.0261
  14 C11      -4.6199    -8.2076    -2.5202  C.ar    1  <O>11       0.1298
  15 F1       -5.0075    -8.9965    -3.5727  F       1  <O>11      -0.2051
  16 C12      -1.2301   -10.8382    -4.9121  C.ar    1  <O>11       0.0138
  17 C13      -0.2765   -11.2906    -5.8307  C.ar    1  <O>11       0.1670
  18 N1       -0.6966   -12.1128    -6.9372  N.4     1  <O>11       0.0097
  19 O4       -1.6726   -11.3936    -7.7312  O.2     1  <O>11      -0.1299
  20 O5       -1.2897   -13.3360    -6.4333  O.2     1  <O>11      -0.3960
  21 C14       1.0696   -10.9526    -5.6844  C.ar    1  <O>11       0.1610
  22 O6        1.9517   -11.3647    -6.5378  O.3     1  <O>11      -0.5037
  23 H1        2.9041   -10.6687    -2.7201  H       1  <O>11       0.2954
  24 H2       -2.7346    -8.4564    -4.3427  H       1  <O>11       0.0749
  25 H3       -1.4478    -7.6200    -3.4424  H       1  <O>11       0.0749
  26 H4        2.8275   -11.0379    -6.2813  H       1  <O>11       0.2923
  27 H5        0.8164    -9.1035    -2.8918  H       1  <O>11       0.0663
  28 H6       -1.8810    -6.7589    -1.2147  H       1  <O>11       0.0622
  29 H7       -3.5188    -5.9820     0.3985  H       1  <O>11       0.0618
  30 H8       -5.8553    -6.6157     0.1701  H       1  <O>11       0.0618
  31 H9       -6.5447    -8.0238    -1.6859  H       1  <O>11       0.0646
  32 H10      -2.2236   -11.0929    -5.0265  H       1  <O>11       0.0678
  33 H11      -0.7842   -13.9161    -5.8987  H       1  <O>11       0.3292
@<TRIPOS>BOND
     1     1     2    2
     2     2     3    1
     3     2     4    1
     4     4     5   ar
     5     5     6   ar
     6     6     7    1
     7     7     8    1
     8     8     9    1
     9     9    10   ar
    10    10    11   ar
    11    11    12   ar
    12    12    13   ar
    13    13    14   ar
    14     9    14   ar
    15    14    15    1
    16     6    16   ar
    17    16    17   ar
    18    17    18    1
    19    18    19    2
    20    18    20    1
    21    17    21   ar
    22     4    21   ar
    23    21    22    1
    24     3    23    1
    25     8    24    1
    26     8    25    1
    27    22    26    1
    28     5    27    1
    29    10    28    1
    30    11    29    1
    31    12    30    1
    32    13    31    1
    33    16    32    1
    34    20    33    1
@<TRIPOS>MOLECULE
mol46_1_4
 33 34 0 0 0
SMALL
USER_CHARGES
****
VDW energy = 167.25
@<TRIPOS>ATOM
   1 O1        3.4420    -9.1855    -5.2979  O.2     1  <O>11      -0.2450
   2 C1        2.8552    -9.8129    -4.4288  C.2     1  <O>11       0.3405
   3 O2        3.5096   -10.1823    -3.3012  O.3     1  <O>11      -0.4770
   4 C2        1.4620   -10.1610    -4.6040  C.ar    1  <O>11       0.1058
   5 C3        0.5200    -9.6963    -3.6828  C.ar    1  <O>11      -0.0023
   6 C4       -0.8275   -10.0393    -3.8389  C.ar    1  <O>11       0.1242
   7 O3       -1.7503    -9.5902    -2.9373  O.3     1  <O>11      -0.4872
   8 C5       -2.2628    -8.3398    -3.3674  C.3     1  <O>11       0.1173
   9 C6       -3.2666    -7.8518    -2.3863  C.ar    1  <O>11       0.0248
  10 C7       -4.5932    -7.6151    -2.7868  C.ar    1  <O>11      -0.0526
  11 C8       -5.5335    -7.1446    -1.8649  C.ar    1  <O>11      -0.0612
  12 C9       -5.1624    -6.9086    -0.5382  C.ar    1  <O>11      -0.0590
  13 C10      -3.8433    -7.1503    -0.1388  C.ar    1  <O>11      -0.0261
  14 C11      -2.8977    -7.6217    -1.0495  C.ar    1  <O>11       0.1298
  15 F1       -1.6071    -7.8660    -0.6558  F       1  <O>11      -0.2051
  16 C12      -1.2301   -10.8382    -4.9121  C.ar    1  <O>11       0.0138
  17 C13      -0.2765   -11.2906    -5.8307  C.ar    1  <O>11       0.1670
  18 N1       -0.6966   -12.1128    -6.9372  N.4     1  <O>11       0.0097
  19 O4       -1.6726   -11.3936    -7.7312  O.2     1  <O>11      -0.1299
  20 O5       -1.2897   -13.3360    -6.4333  O.2     1  <O>11      -0.3960
  21 C14       1.0696   -10.9526    -5.6844  C.ar    1  <O>11       0.1610
  22 O6        1.9517   -11.3647    -6.5378  O.3     1  <O>11      -0.5037
  23 H1        2.9041   -10.6687    -2.7201  H       1  <O>11       0.2954
  24 H2       -2.7346    -8.4564    -4.3427  H       1  <O>11       0.0749
  25 H3       -1.4478    -7.6200    -3.4424  H       1  <O>11       0.0749
  26 H4        2.8275   -11.0379    -6.2813  H       1  <O>11       0.2923
  27 H5        0.8164    -9.1035    -2.8918  H       1  <O>11       0.0663
  28 H6       -4.8740    -7.7892    -3.7644  H       1  <O>11       0.0622
  29 H7       -6.5054    -6.9709    -2.1653  H       1  <O>11       0.0618
  30 H8       -5.8557    -6.5588     0.1414  H       1  <O>11       0.0618
  31 H9       -3.5670    -6.9781     0.8405  H       1  <O>11       0.0646
  32 H10      -2.2236   -11.0929    -5.0265  H       1  <O>11       0.0678
  33 H11      -0.7842   -13.9161    -5.8987  H       1  <O>11       0.3292
@<TRIPOS>BOND
     1     1     2    2
     2     2     3    1
     3     2     4    1
     4     4     5   ar
     5     5     6   ar
     6     6     7    1
     7     7     8    1
     8     8     9    1
     9     9    10   ar
    10    10    11   ar
    11    11    12   ar
    12    12    13   ar
    13    13    14   ar
    14     9    14   ar
    15    14    15    1
    16     6    16   ar
    17    16    17   ar
    18    17    18    1
    19    18    19    2
    20    18    20    1
    21    17    21   ar
    22     4    21   ar
    23    21    22    1
    24     3    23    1
    25     8    24    1
    26     8    25    1
    27    22    26    1
    28     5    27    1
    29    10    28    1
    30    11    29    1
    31    12    30    1
    32    13    31    1
    33    16    32    1
    34    20    33    1
@<TRIPOS>MOLECULE
mol46_1_5
 33 34 0 0 0
SMALL
USER_CHARGES
****
VDW energy = 167.70
@<TRIPOS>ATOM
   1 O1        3.4420    -9.1855    -5.2979  O.2     1  <O>11      -0.2450
   2 C1        2.8552    -9.8129    -4.4288  C.2     1  <O>11       0.3405
   3 O2        3.5096   -10.1823    -3.3012  O.3     1  <O>11      -0.4770
   4 C2        1.4620   -10.1610    -4.6040  C.ar    1  <O>11       0.1058
   5 C3        0.5200    -9.6963    -3.6828  C.ar    1  <O>11      -0.0023
   6 C4       -0.8275   -10.0393    -3.8389  C.ar    1  <O>11       0.1242
   7 O3       -1.7503    -9.5902    -2.9373  O.3     1  <O>11      -0.4872
   8 C5       -2.2628    -8.3398    -3.3674  C.3     1  <O>11       0.1173
   9 C6       -3.7139    -8.4728    -3.6588  C.ar    1  <O>11       0.0248
  10 C7       -4.6649    -8.2265    -2.6533  C.ar    1  <O>11      -0.0526
  11 C8       -6.0296    -8.3637    -2.9262  C.ar    1  <O>11      -0.0612
  12 C9       -6.4583    -8.7441    -4.2010  C.ar    1  <O>11      -0.0590
  13 C10      -5.5113    -8.9831    -5.2030  C.ar    1  <O>11      -0.0261
  14 C11      -4.1477    -8.8473    -4.9424  C.ar    1  <O>11       0.1298
  15 F1       -3.2205    -9.0739    -5.9268  F       1  <O>11      -0.2051
  16 C12      -1.2301   -10.8382    -4.9121  C.ar    1  <O>11       0.0138
  17 C13      -0.2765   -11.2906    -5.8307  C.ar    1  <O>11       0.1670
  18 N1       -0.6966   -12.1128    -6.9372  N.4     1  <O>11       0.0097
  19 O4       -1.6726   -11.3936    -7.7312  O.2     1  <O>11      -0.1299
  20 O5       -1.2897   -13.3360    -6.4333  O.2     1  <O>11      -0.3960
  21 C14       1.0696   -10.9526    -5.6844  C.ar    1  <O>11       0.1610
  22 O6        1.9517   -11.3647    -6.5378  O.3     1  <O>11      -0.5037
  23 H1        2.9041   -10.6687    -2.7201  H       1  <O>11       0.2954
  24 H2       -1.7386    -8.0227    -4.2685  H       1  <O>11       0.0749
  25 H3       -2.1160    -7.5981    -2.5824  H       1  <O>11       0.0749
  26 H4        2.8275   -11.0379    -6.2813  H       1  <O>11       0.2923
  27 H5        0.8164    -9.1035    -2.8918  H       1  <O>11       0.0663
  28 H6       -4.3549    -7.9434    -1.7106  H       1  <O>11       0.0622
  29 H7       -6.7229    -8.1833    -2.1834  H       1  <O>11       0.0618
  30 H8       -7.4652    -8.8480    -4.4015  H       1  <O>11       0.0618
  31 H9       -5.8253    -9.2629    -6.1455  H       1  <O>11       0.0646
  32 H10      -2.2236   -11.0929    -5.0265  H       1  <O>11       0.0678
  33 H11      -0.7842   -13.9161    -5.8987  H       1  <O>11       0.3292
@<TRIPOS>BOND
     1     1     2    2
     2     2     3    1
     3     2     4    1
     4     4     5   ar
     5     5     6   ar
     6     6     7    1
     7     7     8    1
     8     8     9    1
     9     9    10   ar
    10    10    11   ar
    11    11    12   ar
    12    12    13   ar
    13    13    14   ar
    14     9    14   ar
    15    14    15    1
    16     6    16   ar
    17    16    17   ar
    18    17    18    1
    19    18    19    2
    20    18    20    1
    21    17    21   ar
    22     4    21   ar
    23    21    22    1
    24     3    23    1
    25     8    24    1
    26     8    25    1
    27    22    26    1
    28     5    27    1
    29    10    28    1
    30    11    29    1
    31    12    30    1
    32    13    31    1
    33    16    32    1
    34    20    33    1
@<TRIPOS>MOLECULE
mol46_1_6
 33 34 0 0 0
SMALL
USER_CHARGES
****
VDW energy = 169.45
@<TRIPOS>ATOM
   1 O1        3.4420    -9.1855    -5.2979  O.2     1  <O>11      -0.2450
   2 C1        2.8552    -9.8129    -4.4288  C.2     1  <O>11       0.3405
   3 O2        3.5096   -10.1823    -3.3012  O.3     1  <O>11      -0.4770
   4 C2        1.4620   -10.1610    -4.6040  C.ar    1  <O>11       0.1058
   5 C3        0.5200    -9.6963    -3.6828  C.ar    1  <O>11      -0.0023
   6 C4       -0.8275   -10.0393    -3.8389  C.ar    1  <O>11       0.1242
   7 O3       -1.7503    -9.5902    -2.9373  O.3     1  <O>11      -0.4872
   8 C5       -1.7537    -8.1721    -2.9298  C.3     1  <O>11       0.1173
   9 C6       -3.0737    -7.6773    -3.3998  C.ar    1  <O>11       0.0248
  10 C7       -4.1068    -7.4286    -2.4795  C.ar    1  <O>11      -0.0526
  11 C8       -5.3521    -6.9742    -2.9248  C.ar    1  <O>11      -0.0612
  12 C9       -5.5781    -6.7615    -4.2876  C.ar    1  <O>11      -0.0590
  13 C10      -4.5474    -7.0032    -5.2025  C.ar    1  <O>11      -0.0261
  14 C11      -3.3007    -7.4546    -4.7691  C.ar    1  <O>11       0.1298
  15 F1       -2.2884    -7.6838    -5.6652  F       1  <O>11      -0.2051
  16 C12      -1.2301   -10.8382    -4.9121  C.ar    1  <O>11       0.0138
  17 C13      -0.2765   -11.2906    -5.8307  C.ar    1  <O>11       0.1670
  18 N1       -0.6966   -12.1128    -6.9372  N.4     1  <O>11       0.0097
  19 O4       -1.6726   -11.3936    -7.7312  O.2     1  <O>11      -0.1299
  20 O5       -1.2897   -13.3360    -6.4333  O.2     1  <O>11      -0.3960
  21 C14       1.0696   -10.9526    -5.6844  C.ar    1  <O>11       0.1610
  22 O6        1.9517   -11.3647    -6.5378  O.3     1  <O>11      -0.5037
  23 H1        2.9041   -10.6687    -2.7201  H       1  <O>11       0.2954
  24 H2       -0.9705    -7.8032    -3.5916  H       1  <O>11       0.0749
  25 H3       -1.5707    -7.8141    -1.9167  H       1  <O>11       0.0749
  26 H4        2.8275   -11.0379    -6.2813  H       1  <O>11       0.2923
  27 H5        0.8164    -9.1035    -2.8918  H       1  <O>11       0.0663
  28 H6       -3.9457    -7.5819    -1.4717  H       1  <O>11       0.0622
  29 H7       -6.1072    -6.7953    -2.2446  H       1  <O>11       0.0618
  30 H8       -6.4980    -6.4287    -4.6164  H       1  <O>11       0.0618
  31 H9       -4.7113    -6.8457    -6.2092  H       1  <O>11       0.0646
  32 H10      -2.2236   -11.0929    -5.0265  H       1  <O>11       0.0678
  33 H11      -0.7842   -13.9161    -5.8987  H       1  <O>11       0.3292
@<TRIPOS>BOND
     1     1     2    2
     2     2     3    1
     3     2     4    1
     4     4     5   ar
     5     5     6   ar
     6     6     7    1
     7     7     8    1
     8     8     9    1
     9     9    10   ar
    10    10    11   ar
    11    11    12   ar
    12    12    13   ar
    13    13    14   ar
    14     9    14   ar
    15    14    15    1
    16     6    16   ar
    17    16    17   ar
    18    17    18    1
    19    18    19    2
    20    18    20    1
    21    17    21   ar
    22     4    21   ar
    23    21    22    1
    24     3    23    1
    25     8    24    1
    26     8    25    1
    27    22    26    1
    28     5    27    1
    29    10    28    1
    30    11    29    1
    31    12    30    1
    32    13    31    1
    33    16    32    1
    34    20    33    1
@<TRIPOS>MOLECULE
mol46_1_7
 33 34 0 0 0
SMALL
USER_CHARGES
****
VDW energy = 170.27
@<TRIPOS>ATOM
   1 O1        3.4420    -9.1855    -5.2979  O.2     1  <O>11      -0.2450
   2 C1        2.8552    -9.8129    -4.4288  C.2     1  <O>11       0.3405
   3 O2        3.5096   -10.1823    -3.3012  O.3     1  <O>11      -0.4770
   4 C2        1.4620   -10.1610    -4.6040  C.ar    1  <O>11       0.1058
   5 C3        0.5200    -9.6963    -3.6828  C.ar    1  <O>11      -0.0023
   6 C4       -0.8275   -10.0393    -3.8389  C.ar    1  <O>11       0.1242
   7 O3       -1.7503    -9.5902    -2.9373  O.3     1  <O>11      -0.4872
   8 C5       -1.7537    -8.1721    -2.9298  C.3     1  <O>11       0.1173
   9 C6       -2.7577    -7.6842    -1.9489  C.ar    1  <O>11       0.0248
  10 C7       -2.3848    -7.4344    -0.6167  C.ar    1  <O>11      -0.0526
  11 C8       -3.3336    -6.9866     0.3078  C.ar    1  <O>11      -0.0612
  12 C9       -4.6589    -6.7815    -0.0861  C.ar    1  <O>11      -0.0590
  13 C10      -5.0279    -7.0243    -1.4138  C.ar    1  <O>11      -0.0261
  14 C11      -4.0892    -7.4693    -2.3448  C.ar    1  <O>11       0.1298
  15 F1       -4.4496    -7.6995    -3.6476  F       1  <O>11      -0.2051
  16 C12      -1.2301   -10.8382    -4.9121  C.ar    1  <O>11       0.0138
  17 C13      -0.2765   -11.2906    -5.8307  C.ar    1  <O>11       0.1670
  18 N1       -0.6966   -12.1128    -6.9372  N.4     1  <O>11       0.0097
  19 O4       -1.6726   -11.3936    -7.7312  O.2     1  <O>11      -0.1299
  20 O5       -1.2897   -13.3360    -6.4333  O.2     1  <O>11      -0.3960
  21 C14       1.0696   -10.9526    -5.6844  C.ar    1  <O>11       0.1610
  22 O6        1.9517   -11.3647    -6.5378  O.3     1  <O>11      -0.5037
  23 H1        2.9041   -10.6687    -2.7201  H       1  <O>11       0.2954
  24 H2       -2.0075    -7.8039    -3.9234  H       1  <O>11       0.0749
  25 H3       -0.7651    -7.8084    -2.6498  H       1  <O>11       0.0749
  26 H4        2.8275   -11.0379    -6.2813  H       1  <O>11       0.2923
  27 H5        0.8164    -9.1035    -2.8918  H       1  <O>11       0.0663
  28 H6       -1.4074    -7.5820    -0.3200  H       1  <O>11       0.0622
  29 H7       -3.0542    -6.8068     1.2849  H       1  <O>11       0.0618
  30 H8       -5.3596    -6.4536     0.5968  H       1  <O>11       0.0618
  31 H9       -6.0056    -6.8725    -1.7075  H       1  <O>11       0.0646
  32 H10      -2.2236   -11.0929    -5.0265  H       1  <O>11       0.0678
  33 H11      -0.7842   -13.9161    -5.8987  H       1  <O>11       0.3292
@<TRIPOS>BOND
     1     1     2    2
     2     2     3    1
     3     2     4    1
     4     4     5   ar
     5     5     6   ar
     6     6     7    1
     7     7     8    1
     8     8     9    1
     9     9    10   ar
    10    10    11   ar
    11    11    12   ar
    12    12    13   ar
    13    13    14   ar
    14     9    14   ar
    15    14    15    1
    16     6    16   ar
    17    16    17   ar
    18    17    18    1
    19    18    19    2
    20    18    20    1
    21    17    21   ar
    22     4    21   ar
    23    21    22    1
    24     3    23    1
    25     8    24    1
    26     8    25    1
    27    22    26    1
    28     5    27    1
    29    10    28    1
    30    11    29    1
    31    12    30    1
    32    13    31    1
    33    16    32    1
    34    20    33    1
@<TRIPOS>MOLECULE
mol46_1_8
 33 34 0 0 0
SMALL
USER_CHARGES
****
VDW energy = 171.53
@<TRIPOS>ATOM
   1 O1        3.4420    -9.1855    -5.2979  O.2     1  <O>11      -0.2450
   2 C1        2.8552    -9.8129    -4.4288  C.2     1  <O>11       0.3405
   3 O2        3.5096   -10.1823    -3.3012  O.3     1  <O>11      -0.4770
   4 C2        1.4620   -10.1610    -4.6040  C.ar    1  <O>11       0.1058
   5 C3        1.1317   -11.3710    -5.2192  C.ar    1  <O>11      -0.0023
   6 C4       -0.2136   -11.7087    -5.4033  C.ar    1  <O>11       0.1242
   7 O3       -0.5399   -12.8891    -6.0085  O.3     1  <O>11      -0.4872
   8 C5       -0.8458   -12.6528    -7.3730  C.3     1  <O>11       0.1173
   9 C6        0.1479   -13.3486    -8.2313  C.ar    1  <O>11       0.0248
  10 C7        0.9488   -12.6169    -9.1255  C.ar    1  <O>11      -0.0526
  11 C8        1.8750   -13.2747    -9.9409  C.ar    1  <O>11      -0.0612
  12 C9        2.0134   -14.6638    -9.8712  C.ar    1  <O>11      -0.0590
  13 C10       1.2204   -15.3907    -8.9764  C.ar    1  <O>11      -0.0261
  14 C11       0.2948   -14.7446    -8.1569  C.ar    1  <O>11       0.1298
  15 F1       -0.4765   -15.4565    -7.2746  F       1  <O>11      -0.2051
  16 C12      -1.2215   -10.8431    -4.9705  C.ar    1  <O>11       0.0138
  17 C13      -0.8757    -9.6378    -4.3497  C.ar    1  <O>11       0.1670
  18 N1       -1.9186    -8.7491    -3.9034  N.4     1  <O>11       0.0097
  19 O4       -2.7633    -9.4362    -2.9470  O.2     1  <O>11      -0.1299
  20 O5       -2.7159    -8.3295    -5.0392  O.2     1  <O>11      -0.3960
  21 C14       0.4633    -9.2929    -4.1603  C.ar    1  <O>11       0.1610
  22 O6        0.7843    -8.1812    -3.5797  O.3     1  <O>11      -0.5037
  23 H1        2.9041   -10.6687    -2.7201  H       1  <O>11       0.2954
  24 H2       -0.8123   -11.5822    -7.5729  H       1  <O>11       0.0749
  25 H3       -1.8440   -13.0316    -7.5920  H       1  <O>11       0.0749
  26 H4        1.7497    -8.1067    -3.5344  H       1  <O>11       0.2923
  27 H5        1.8757   -12.0122    -5.5360  H       1  <O>11       0.0663
  28 H6        0.8527   -11.5909    -9.1803  H       1  <O>11       0.0622
  29 H7        2.4587   -12.7323   -10.5967  H       1  <O>11       0.0618
  30 H8        2.6951   -15.1494   -10.4749  H       1  <O>11       0.0618
  31 H9        1.3216   -16.4163    -8.9222  H       1  <O>11       0.0646
  32 H10      -2.2138   -11.0911    -5.1078  H       1  <O>11       0.0678
  33 H11      -2.3139    -7.8690    -5.7493  H       1  <O>11       0.3292
@<TRIPOS>BOND
     1     1     2    2
     2     2     3    1
     3     2     4    1
     4     4     5   ar
     5     5     6   ar
     6     6     7    1
     7     7     8    1
     8     8     9    1
     9     9    10   ar
    10    10    11   ar
    11    11    12   ar
    12    12    13   ar
    13    13    14   ar
    14     9    14   ar
    15    14    15    1
    16     6    16   ar
    17    16    17   ar
    18    17    18    1
    19    18    19    2
    20    18    20    1
    21    17    21   ar
    22     4    21   ar
    23    21    22    1
    24     3    23    1
    25     8    24    1
    26     8    25    1
    27    22    26    1
    28     5    27    1
    29    10    28    1
    30    11    29    1
    31    12    30    1
    32    13    31    1
    33    16    32    1
    34    20    33    1
@<TRIPOS>MOLECULE
mol46_1_9
 33 34 0 0 0
SMALL
USER_CHARGES
****
VDW energy = 173.20
@<TRIPOS>ATOM
   1 O1        3.4420    -9.1855    -5.2979  O.2     1  <O>11      -0.2450
   2 C1        2.8552    -9.8129    -4.4288  C.2     1  <O>11       0.3405
   3 O2        3.5096   -10.1823    -3.3012  O.3     1  <O>11      -0.4770
   4 C2        1.4620   -10.1610    -4.6040  C.ar    1  <O>11       0.1058
   5 C3        0.5200    -9.6963    -3.6828  C.ar    1  <O>11      -0.0023
   6 C4       -0.8275   -10.0393    -3.8389  C.ar    1  <O>11       0.1242
   7 O3       -1.7503    -9.5902    -2.9373  O.3     1  <O>11      -0.4872
   8 C5       -1.7537    -8.1721    -2.9298  C.3     1  <O>11       0.1173
   9 C6       -2.7577    -7.6842    -1.9489  C.ar    1  <O>11       0.0248
  10 C7       -3.5247    -8.5976    -1.2049  C.ar    1  <O>11      -0.0526
  11 C8       -4.4774    -8.1365    -0.2909  C.ar    1  <O>11      -0.0612
  12 C9       -4.6723    -6.7646    -0.1083  C.ar    1  <O>11      -0.0590
  13 C10      -3.9041    -5.8560    -0.8446  C.ar    1  <O>11      -0.0261
  14 C11      -2.9496    -6.3048    -1.7575  C.ar    1  <O>11       0.1298
  15 F1       -2.1915    -5.4141    -2.4731  F       1  <O>11      -0.2051
  16 C12      -1.2301   -10.8382    -4.9121  C.ar    1  <O>11       0.0138
  17 C13      -0.2765   -11.2906    -5.8307  C.ar    1  <O>11       0.1670
  18 N1       -0.6966   -12.1128    -6.9372  N.4     1  <O>11       0.0097
  19 O4       -1.6726   -11.3936    -7.7312  O.2     1  <O>11      -0.1299
  20 O5       -1.2897   -13.3360    -6.4333  O.2     1  <O>11      -0.3960
  21 C14       1.0696   -10.9526    -5.6844  C.ar    1  <O>11       0.1610
  22 O6        1.9517   -11.3647    -6.5378  O.3     1  <O>11      -0.5037
  23 H1        2.9041   -10.6687    -2.7201  H       1  <O>11       0.2954
  24 H2       -2.0075    -7.8039    -3.9234  H       1  <O>11       0.0749
  25 H3       -0.7651    -7.8084    -2.6498  H       1  <O>11       0.0749
  26 H4        2.8275   -11.0379    -6.2813  H       1  <O>11       0.2923
  27 H5        0.8164    -9.1035    -2.8918  H       1  <O>11       0.0663
  28 H6       -3.3842    -9.6118    -1.3336  H       1  <O>11       0.0622
  29 H7       -5.0388    -8.8119     0.2510  H       1  <O>11       0.0618
  30 H8       -5.3773    -6.4244     0.5642  H       1  <O>11       0.0618
  31 H9       -4.0452    -4.8425    -0.7108  H       1  <O>11       0.0646
  32 H10      -2.2236   -11.0929    -5.0265  H       1  <O>11       0.0678
  33 H11      -0.7842   -13.9161    -5.8987  H       1  <O>11       0.3292
@<TRIPOS>BOND
     1     1     2    2
     2     2     3    1
     3     2     4    1
     4     4     5   ar
     5     5     6   ar
     6     6     7    1
     7     7     8    1
     8     8     9    1
     9     9    10   ar
    10    10    11   ar
    11    11    12   ar
    12    12    13   ar
    13    13    14   ar
    14     9    14   ar
    15    14    15    1
    16     6    16   ar
    17    16    17   ar
    18    17    18    1
    19    18    19    2
    20    18    20    1
    21    17    21   ar
    22     4    21   ar
    23    21    22    1
    24     3    23    1
    25     8    24    1
    26     8    25    1
    27    22    26    1
    28     5    27    1
    29    10    28    1
    30    11    29    1
    31    12    30    1
    32    13    31    1
    33    16    32    1
    34    20    33    1
@<TRIPOS>MOLECULE
mol46_1_10
 33 34 0 0 0
SMALL
USER_CHARGES
****
VDW energy = 183.18
@<TRIPOS>ATOM
   1 O1        3.4420    -9.1855    -5.2979  O.2     1  <O>11      -0.2450
   2 C1        2.8552    -9.8129    -4.4288  C.2     1  <O>11       0.3405
   3 O2        3.5096   -10.1823    -3.3012  O.3     1  <O>11      -0.4770
   4 C2        1.4620   -10.1610    -4.6040  C.ar    1  <O>11       0.1058
   5 C3        0.5200    -9.6963    -3.6828  C.ar    1  <O>11      -0.0023
   6 C4       -0.8275   -10.0393    -3.8389  C.ar    1  <O>11       0.1242
   7 O3       -1.7503    -9.5902    -2.9373  O.3     1  <O>11      -0.4872
   8 C5       -2.2628    -8.3398    -3.3674  C.3     1  <O>11       0.1173
   9 C6       -3.7139    -8.4728    -3.6588  C.ar    1  <O>11       0.0248
  10 C7       -4.6649    -8.2265    -2.6533  C.ar    1  <O>11      -0.0526
  11 C8       -6.0296    -8.3637    -2.9262  C.ar    1  <O>11      -0.0612
  12 C9       -6.4583    -8.7441    -4.2010  C.ar    1  <O>11      -0.0590
  13 C10      -5.5113    -8.9831    -5.2030  C.ar    1  <O>11      -0.0261
  14 C11      -4.1477    -8.8473    -4.9424  C.ar    1  <O>11       0.1298
  15 F1       -3.2205    -9.0739    -5.9268  F       1  <O>11      -0.2051
  16 C12      -1.2301   -10.8382    -4.9121  C.ar    1  <O>11       0.0138
  17 C13      -0.2765   -11.2906    -5.8307  C.ar    1  <O>11       0.1670
  18 N1       -0.6966   -12.1128    -6.9372  N.4     1  <O>11       0.0097
  19 O4        0.3798   -13.0085    -7.3104  O.2     1  <O>11      -0.1299
  20 O5       -1.0367   -11.2686    -8.0657  O.2     1  <O>11      -0.3960
  21 C14       1.0696   -10.9526    -5.6844  C.ar    1  <O>11       0.1610
  22 O6        1.9517   -11.3647    -6.5378  O.3     1  <O>11      -0.5037
  23 H1        2.9041   -10.6687    -2.7201  H       1  <O>11       0.2954
  24 H2       -1.7386    -8.0227    -4.2685  H       1  <O>11       0.0749
  25 H3       -2.1160    -7.5981    -2.5824  H       1  <O>11       0.0749
  26 H4        2.8275   -11.0379    -6.2813  H       1  <O>11       0.2923
  27 H5        0.8164    -9.1035    -2.8918  H       1  <O>11       0.0663
  28 H6       -4.3549    -7.9434    -1.7106  H       1  <O>11       0.0622
  29 H7       -6.7229    -8.1833    -2.1834  H       1  <O>11       0.0618
  30 H8       -7.4652    -8.8480    -4.4015  H       1  <O>11       0.0618
  31 H9       -5.8253    -9.2629    -6.1455  H       1  <O>11       0.0646
  32 H10      -2.2236   -11.0929    -5.0265  H       1  <O>11       0.0678
  33 H11      -1.7186   -10.6310    -7.9851  H       1  <O>11       0.3292
@<TRIPOS>BOND
     1     1     2    2
     2     2     3    1
     3     2     4    1
     4     4     5   ar
     5     5     6   ar
     6     6     7    1
     7     7     8    1
     8     8     9    1
     9     9    10   ar
    10    10    11   ar
    11    11    12   ar
    12    12    13   ar
    13    13    14   ar
    14     9    14   ar
    15    14    15    1
    16     6    16   ar
    17    16    17   ar
    18    17    18    1
    19    18    19    2
    20    18    20    1
    21    17    21   ar
    22     4    21   ar
    23    21    22    1
    24     3    23    1
    25     8    24    1
    26     8    25    1
    27    22    26    1
    28     5    27    1
    29    10    28    1
    30    11    29    1
    31    12    30    1
    32    13    31    1
    33    16    32    1
    34    20    33    1
@<TRIPOS>MOLECULE
mol46_1_11
 33 34 0 0 0
SMALL
USER_CHARGES
****
VDW energy = 184.50
@<TRIPOS>ATOM
   1 O1        3.4420    -9.1855    -5.2979  O.2     1  <O>11      -0.2450
   2 C1        2.8552    -9.8129    -4.4288  C.2     1  <O>11       0.3405
   3 O2        3.5096   -10.1823    -3.3012  O.3     1  <O>11      -0.4770
   4 C2        1.4620   -10.1610    -4.6040  C.ar    1  <O>11       0.1058
   5 C3        0.8050   -10.8780    -3.6010  C.ar    1  <O>11      -0.0023
   6 C4       -0.5390   -11.2290    -3.7690  C.ar    1  <O>11       0.1242
   7 O3       -1.1830   -11.9339    -2.7920  O.3     1  <O>11      -0.4872
   8 C5       -1.2142   -13.3079    -3.1420  C.3     1  <O>11       0.1173
   9 C6       -0.4316   -14.0898    -2.1498  C.ar    1  <O>11       0.0248
  10 C7        0.6801   -14.8461    -2.5601  C.ar    1  <O>11      -0.0526
  11 C8        1.4082   -15.5907    -1.6269  C.ar    1  <O>11      -0.0612
  12 C9        1.0378   -15.5867    -0.2791  C.ar    1  <O>11      -0.0590
  13 C10      -0.0651   -14.8287     0.1296  C.ar    1  <O>11      -0.0261
  14 C11      -0.7972   -14.0806    -0.7925  C.ar    1  <O>11       0.1298
  15 F1       -1.8731   -13.3318    -0.3902  F       1  <O>11      -0.2051
  16 C12      -1.2220   -10.8610    -4.9310  C.ar    1  <O>11       0.0138
  17 C13      -0.5530   -10.1370    -5.9240  C.ar    1  <O>11       0.1670
  18 N1       -1.2620    -9.7581    -7.1200  N.4     1  <O>11       0.0097
  19 O4       -2.4064    -8.9424    -6.7661  O.2     1  <O>11      -0.1299
  20 O5       -1.7126   -10.9489    -7.8133  O.2     1  <O>11      -0.3960
  21 C14       0.7870    -9.7810    -5.7650  C.ar    1  <O>11       0.1610
  22 O6        1.4050    -9.1051    -6.6800  O.3     1  <O>11      -0.5037
  23 H1        2.9041   -10.6687    -2.7201  H       1  <O>11       0.2954
  24 H2       -0.7806   -13.4405    -4.1328  H       1  <O>11       0.0749
  25 H3       -2.2465   -13.6575    -3.1480  H       1  <O>11       0.0749
  26 H4        2.3210    -8.9491    -6.4040  H       1  <O>11       0.2923
  27 H5        1.3081   -11.1471    -2.7411  H       1  <O>11       0.0663
  28 H6        0.9599   -14.8517    -3.5534  H       1  <O>11       0.0622
  29 H7        2.2222   -16.1455    -1.9345  H       1  <O>11       0.0618
  30 H8        1.5735   -16.1384     0.4090  H       1  <O>11       0.0618
  31 H9       -0.3399   -14.8231     1.1243  H       1  <O>11       0.0646
  32 H10      -2.2128   -11.1213    -5.0560  H       1  <O>11       0.0678
  33 H11      -1.0892   -11.5823    -8.1102  H       1  <O>11       0.3292
@<TRIPOS>BOND
     1     1     2    2
     2     2     3    1
     3     2     4    1
     4     4     5   ar
     5     5     6   ar
     6     6     7    1
     7     7     8    1
     8     8     9    1
     9     9    10   ar
    10    10    11   ar
    11    11    12   ar
    12    12    13   ar
    13    13    14   ar
    14     9    14   ar
    15    14    15    1
    16     6    16   ar
    17    16    17   ar
    18    17    18    1
    19    18    19    2
    20    18    20    1
    21    17    21   ar
    22     4    21   ar
    23    21    22    1
    24     3    23    1
    25     8    24    1
    26     8    25    1
    27    22    26    1
    28     5    27    1
    29    10    28    1
    30    11    29    1
    31    12    30    1
    32    13    31    1
    33    16    32    1
    34    20    33    1
@<TRIPOS>MOLECULE
mol46_1_12
 33 34 0 0 0
SMALL
USER_CHARGES
****
VDW energy = 185.01
@<TRIPOS>ATOM
   1 O1        3.4420    -9.1855    -5.2979  O.2     1  <O>11      -0.2450
   2 C1        2.8552    -9.8129    -4.4288  C.2     1  <O>11       0.3405
   3 O2        3.5096   -10.1823    -3.3012  O.3     1  <O>11      -0.4770
   4 C2        1.4620   -10.1610    -4.6040  C.ar    1  <O>11       0.1058
   5 C3        0.5200    -9.6963    -3.6828  C.ar    1  <O>11      -0.0023
   6 C4       -0.8275   -10.0393    -3.8389  C.ar    1  <O>11       0.1242
   7 O3       -1.7503    -9.5902    -2.9373  O.3     1  <O>11      -0.4872
   8 C5       -1.7537    -8.1721    -2.9298  C.3     1  <O>11       0.1173
   9 C6       -3.0737    -7.6773    -3.3998  C.ar    1  <O>11       0.0248
  10 C7       -4.1068    -7.4286    -2.4795  C.ar    1  <O>11      -0.0526
  11 C8       -5.3521    -6.9742    -2.9248  C.ar    1  <O>11      -0.0612
  12 C9       -5.5781    -6.7615    -4.2876  C.ar    1  <O>11      -0.0590
  13 C10      -4.5474    -7.0032    -5.2025  C.ar    1  <O>11      -0.0261
  14 C11      -3.3007    -7.4546    -4.7691  C.ar    1  <O>11       0.1298
  15 F1       -2.2884    -7.6838    -5.6652  F       1  <O>11      -0.2051
  16 C12      -1.2301   -10.8382    -4.9121  C.ar    1  <O>11       0.0138
  17 C13      -0.2765   -11.2906    -5.8307  C.ar    1  <O>11       0.1670
  18 N1       -0.6966   -12.1128    -6.9372  N.4     1  <O>11       0.0097
  19 O4        0.3798   -13.0085    -7.3104  O.2     1  <O>11      -0.1299
  20 O5       -1.0367   -11.2686    -8.0657  O.2     1  <O>11      -0.3960
  21 C14       1.0696   -10.9526    -5.6844  C.ar    1  <O>11       0.1610
  22 O6        1.9517   -11.3647    -6.5378  O.3     1  <O>11      -0.5037
  23 H1        2.9041   -10.6687    -2.7201  H       1  <O>11       0.2954
  24 H2       -0.9705    -7.8032    -3.5916  H       1  <O>11       0.0749
  25 H3       -1.5707    -7.8141    -1.9167  H       1  <O>11       0.0749
  26 H4        2.8275   -11.0379    -6.2813  H       1  <O>11       0.2923
  27 H5        0.8164    -9.1035    -2.8918  H       1  <O>11       0.0663
  28 H6       -3.9457    -7.5819    -1.4717  H       1  <O>11       0.0622
  29 H7       -6.1072    -6.7953    -2.2446  H       1  <O>11       0.0618
  30 H8       -6.4980    -6.4287    -4.6164  H       1  <O>11       0.0618
  31 H9       -4.7113    -6.8457    -6.2092  H       1  <O>11       0.0646
  32 H10      -2.2236   -11.0929    -5.0265  H       1  <O>11       0.0678
  33 H11      -1.7186   -10.6310    -7.9851  H       1  <O>11       0.3292
@<TRIPOS>BOND
     1     1     2    2
     2     2     3    1
     3     2     4    1
     4     4     5   ar
     5     5     6   ar
     6     6     7    1
     7     7     8    1
     8     8     9    1
     9     9    10   ar
    10    10    11   ar
    11    11    12   ar
    12    12    13   ar
    13    13    14   ar
    14     9    14   ar
    15    14    15    1
    16     6    16   ar
    17    16    17   ar
    18    17    18    1
    19    18    19    2
    20    18    20    1
    21    17    21   ar
    22     4    21   ar
    23    21    22    1
    24     3    23    1
    25     8    24    1
    26     8    25    1
    27    22    26    1
    28     5    27    1
    29    10    28    1
    30    11    29    1
    31    12    30    1
    32    13    31    1
    33    16    32    1
    34    20    33    1
@<TRIPOS>MOLECULE
mol46_1_13
 33 34 0 0 0
SMALL
USER_CHARGES
****
VDW energy = 187.13
@<TRIPOS>ATOM
   1 O1        3.4420    -9.1855    -5.2979  O.2     1  <O>11      -0.2450
   2 C1        2.8552    -9.8129    -4.4288  C.2     1  <O>11       0.3405
   3 O2        3.5096   -10.1823    -3.3012  O.3     1  <O>11      -0.4770
   4 C2        1.4620   -10.1610    -4.6040  C.ar    1  <O>11       0.1058
   5 C3        0.5927    -9.2326    -5.1822  C.ar    1  <O>11      -0.0023
   6 C4       -0.7586    -9.5576    -5.3434  C.ar    1  <O>11       0.1242
   7 O3       -1.6121    -8.6503    -5.9043  O.3     1  <O>11      -0.4872
   8 C5       -2.3273    -7.9777    -4.8810  C.3     1  <O>11       0.1173
   9 C6       -1.9740    -6.5343    -4.8962  C.ar    1  <O>11       0.0248
  10 C7       -2.7265    -5.6279    -5.6632  C.ar    1  <O>11      -0.0526
  11 C8       -2.3854    -4.2719    -5.6856  C.ar    1  <O>11      -0.0612
  12 C9       -1.2956    -3.8073    -4.9438  C.ar    1  <O>11      -0.0590
  13 C10      -0.5510    -4.7091    -4.1756  C.ar    1  <O>11      -0.0261
  14 C11      -0.8836    -6.0634    -4.1443  C.ar    1  <O>11       0.1298
  15 F1       -0.1584    -6.9454    -3.3852  F       1  <O>11      -0.2051
  16 C12      -1.2358   -10.8050    -4.9328  C.ar    1  <O>11       0.0138
  17 C13      -0.3521   -11.7274    -4.3617  C.ar    1  <O>11       0.1670
  18 N1       -0.8483   -13.0134    -3.9414  N.4     1  <O>11       0.0097
  19 O4       -1.4297   -13.7021    -5.0762  O.2     1  <O>11      -0.1299
  20 O5       -1.8580   -12.8313    -2.9170  O.2     1  <O>11      -0.3960
  21 C14       0.9977   -11.4130    -4.1980  C.ar    1  <O>11       0.1610
  22 O6        1.8176   -12.2683    -3.6762  O.3     1  <O>11      -0.5037
  23 H1        2.9041   -10.6687    -2.7201  H       1  <O>11       0.2954
  24 H2       -2.0662    -8.4056    -3.9135  H       1  <O>11       0.0749
  25 H3       -3.3978    -8.0919    -5.0511  H       1  <O>11       0.0749
  26 H4        2.7066   -11.8837    -3.6395  H       1  <O>11       0.2923
  27 H5        0.9453    -8.3124    -5.4886  H       1  <O>11       0.0663
  28 H6       -3.5334    -5.9643    -6.2116  H       1  <O>11       0.0622
  29 H7       -2.9404    -3.6116    -6.2521  H       1  <O>11       0.0618
  30 H8       -1.0423    -2.8071    -4.9625  H       1  <O>11       0.0618
  31 H9        0.2534    -4.3684    -3.6260  H       1  <O>11       0.0646
  32 H10      -2.2328   -11.0443    -5.0499  H       1  <O>11       0.0678
  33 H11      -1.6390   -12.3994    -2.1148  H       1  <O>11       0.3292
@<TRIPOS>BOND
     1     1     2    2
     2     2     3    1
     3     2     4    1
     4     4     5   ar
     5     5     6   ar
     6     6     7    1
     7     7     8    1
     8     8     9    1
     9     9    10   ar
    10    10    11   ar
    11    11    12   ar
    12    12    13   ar
    13    13    14   ar
    14     9    14   ar
    15    14    15    1
    16     6    16   ar
    17    16    17   ar
    18    17    18    1
    19    18    19    2
    20    18    20    1
    21    17    21   ar
    22     4    21   ar
    23    21    22    1
    24     3    23    1
    25     8    24    1
    26     8    25    1
    27    22    26    1
    28     5    27    1
    29    10    28    1
    30    11    29    1
    31    12    30    1
    32    13    31    1
    33    16    32    1
    34    20    33    1
@<TRIPOS>MOLECULE
mol46_1_14
 33 34 0 0 0
SMALL
USER_CHARGES
****
VDW energy = 188.93
@<TRIPOS>ATOM
   1 O1        3.4420    -9.1855    -5.2979  O.2     1  <O>11      -0.2450
   2 C1        2.8552    -9.8129    -4.4288  C.2     1  <O>11       0.3405
   3 O2        3.5096   -10.1823    -3.3012  O.3     1  <O>11      -0.4770
   4 C2        1.4620   -10.1610    -4.6040  C.ar    1  <O>11       0.1058
   5 C3        0.5927    -9.2326    -5.1822  C.ar    1  <O>11      -0.0023
   6 C4       -0.7586    -9.5576    -5.3434  C.ar    1  <O>11       0.1242
   7 O3       -1.6121    -8.6503    -5.9043  O.3     1  <O>11      -0.4872
   8 C5       -2.3273    -7.9777    -4.8810  C.3     1  <O>11       0.1173
   9 C6       -1.9740    -6.5343    -4.8962  C.ar    1  <O>11       0.0248
  10 C7       -0.8976    -6.0593    -4.1269  C.ar    1  <O>11      -0.0526
  11 C8       -0.5741    -4.6988    -4.1332  C.ar    1  <O>11      -0.0612
  12 C9       -1.3167    -3.8018    -4.9061  C.ar    1  <O>11      -0.0590
  13 C10      -2.3840    -4.2763    -5.6765  C.ar    1  <O>11      -0.0261
  14 C11      -2.7142    -5.6316    -5.6792  C.ar    1  <O>11       0.1298
  15 F1       -3.7553    -6.0973    -6.4404  F       1  <O>11      -0.2051
  16 C12      -1.2358   -10.8050    -4.9328  C.ar    1  <O>11       0.0138
  17 C13      -0.3521   -11.7274    -4.3617  C.ar    1  <O>11       0.1670
  18 N1       -0.8483   -13.0134    -3.9414  N.4     1  <O>11       0.0097
  19 O4       -1.4297   -13.7021    -5.0762  O.2     1  <O>11      -0.1299
  20 O5       -1.8580   -12.8313    -2.9170  O.2     1  <O>11      -0.3960
  21 C14       0.9977   -11.4130    -4.1980  C.ar    1  <O>11       0.1610
  22 O6        1.8176   -12.2683    -3.6762  O.3     1  <O>11      -0.5037
  23 H1        2.9041   -10.6687    -2.7201  H       1  <O>11       0.2954
  24 H2       -2.0662    -8.4056    -3.9135  H       1  <O>11       0.0749
  25 H3       -3.3978    -8.0919    -5.0511  H       1  <O>11       0.0749
  26 H4        2.7066   -11.8837    -3.6395  H       1  <O>11       0.2923
  27 H5        0.9453    -8.3124    -5.4886  H       1  <O>11       0.0663
  28 H6       -0.3442    -6.7168    -3.5555  H       1  <O>11       0.0622
  29 H7        0.2161    -4.3558    -3.5649  H       1  <O>11       0.0618
  30 H8       -1.0795    -2.7974    -4.9087  H       1  <O>11       0.0618
  31 H9       -2.9331    -3.6162    -6.2491  H       1  <O>11       0.0646
  32 H10      -2.2328   -11.0443    -5.0499  H       1  <O>11       0.0678
  33 H11      -1.6390   -12.3994    -2.1148  H       1  <O>11       0.3292
@<TRIPOS>BOND
     1     1     2    2
     2     2     3    1
     3     2     4    1
     4     4     5   ar
     5     5     6   ar
     6     6     7    1
     7     7     8    1
     8     8     9    1
     9     9    10   ar
    10    10    11   ar
    11    11    12   ar
    12    12    13   ar
    13    13    14   ar
    14     9    14   ar
    15    14    15    1
    16     6    16   ar
    17    16    17   ar
    18    17    18    1
    19    18    19    2
    20    18    20    1
    21    17    21   ar
    22     4    21   ar
    23    21    22    1
    24     3    23    1
    25     8    24    1
    26     8    25    1
    27    22    26    1
    28     5    27    1
    29    10    28    1
    30    11    29    1
    31    12    30    1
    32    13    31    1
    33    16    32    1
    34    20    33    1
@<TRIPOS>MOLECULE
mol46_1_15
 33 34 0 0 0
SMALL
USER_CHARGES
****
VDW energy = 189.84
@<TRIPOS>ATOM
   1 O1        3.4420    -9.1855    -5.2979  O.2     1  <O>11      -0.2450
   2 C1        2.8552    -9.8129    -4.4288  C.2     1  <O>11       0.3405
   3 O2        3.5096   -10.1823    -3.3012  O.3     1  <O>11      -0.4770
   4 C2        1.4620   -10.1610    -4.6040  C.ar    1  <O>11       0.1058
   5 C3        0.5927    -9.2326    -5.1822  C.ar    1  <O>11      -0.0023
   6 C4       -0.7586    -9.5576    -5.3434  C.ar    1  <O>11       0.1242
   7 O3       -1.6121    -8.6503    -5.9043  O.3     1  <O>11      -0.4872
   8 C5       -2.3273    -7.9777    -4.8810  C.3     1  <O>11       0.1173
   9 C6       -1.9740    -6.5343    -4.8962  C.ar    1  <O>11       0.0248
  10 C7       -1.3952    -5.9337    -3.7646  C.ar    1  <O>11      -0.0526
  11 C8       -1.0744    -4.5726    -3.7766  C.ar    1  <O>11      -0.0612
  12 C9       -1.3243    -3.8000    -4.9142  C.ar    1  <O>11      -0.0590
  13 C10      -1.8947    -4.3999    -6.0423  C.ar    1  <O>11      -0.0261
  14 C11      -2.2167    -5.7571    -6.0420  C.ar    1  <O>11       0.1298
  15 F1       -2.7683    -6.3463    -7.1505  F       1  <O>11      -0.2051
  16 C12      -1.2358   -10.8050    -4.9328  C.ar    1  <O>11       0.0138
  17 C13      -0.3521   -11.7274    -4.3617  C.ar    1  <O>11       0.1670
  18 N1       -0.8483   -13.0134    -3.9414  N.4     1  <O>11       0.0097
  19 O4       -1.4297   -13.7021    -5.0762  O.2     1  <O>11      -0.1299
  20 O5       -1.8580   -12.8313    -2.9170  O.2     1  <O>11      -0.3960
  21 C14       0.9977   -11.4130    -4.1980  C.ar    1  <O>11       0.1610
  22 O6        1.8176   -12.2683    -3.6762  O.3     1  <O>11      -0.5037
  23 H1        2.9041   -10.6687    -2.7201  H       1  <O>11       0.2954
  24 H2       -2.0662    -8.4056    -3.9135  H       1  <O>11       0.0749
  25 H3       -3.3978    -8.0919    -5.0511  H       1  <O>11       0.0749
  26 H4        2.7066   -11.8837    -3.6395  H       1  <O>11       0.2923
  27 H5        0.9453    -8.3124    -5.4886  H       1  <O>11       0.0663
  28 H6       -1.2064    -6.4991    -2.9222  H       1  <O>11       0.0622
  29 H7       -0.6515    -4.1369    -2.9421  H       1  <O>11       0.0618
  30 H8       -1.0900    -2.7950    -4.9220  H       1  <O>11       0.0618
  31 H9       -2.0790    -3.8319    -6.8840  H       1  <O>11       0.0646
  32 H10      -2.2328   -11.0443    -5.0499  H       1  <O>11       0.0678
  33 H11      -1.6390   -12.3994    -2.1148  H       1  <O>11       0.3292
@<TRIPOS>BOND
     1     1     2    2
     2     2     3    1
     3     2     4    1
     4     4     5   ar
     5     5     6   ar
     6     6     7    1
     7     7     8    1
     8     8     9    1
     9     9    10   ar
    10    10    11   ar
    11    11    12   ar
    12    12    13   ar
    13    13    14   ar
    14     9    14   ar
    15    14    15    1
    16     6    16   ar
    17    16    17   ar
    18    17    18    1
    19    18    19    2
    20    18    20    1
    21    17    21   ar
    22     4    21   ar
    23    21    22    1
    24     3    23    1
    25     8    24    1
    26     8    25    1
    27    22    26    1
    28     5    27    1
    29    10    28    1
    30    11    29    1
    31    12    30    1
    32    13    31    1
    33    16    32    1
    34    20    33    1
@<TRIPOS>MOLECULE
mol46_1_16
 33 34 0 0 0
SMALL
USER_CHARGES
****
VDW energy = 191.45
@<TRIPOS>ATOM
   1 O1        3.4420    -9.1855    -5.2979  O.2     1  <O>11      -0.2450
   2 C1        2.8552    -9.8129    -4.4288  C.2     1  <O>11       0.3405
   3 O2        3.5096   -10.1823    -3.3012  O.3     1  <O>11      -0.4770
   4 C2        1.4620   -10.1610    -4.6040  C.ar    1  <O>11       0.1058
   5 C3        1.0120   -10.5683    -5.8623  C.ar    1  <O>11      -0.0023
   6 C4       -0.3367   -10.8946    -6.0422  C.ar    1  <O>11       0.1242
   7 O3       -0.7807   -11.2889    -7.2725  O.3     1  <O>11      -0.4872
   8 C5       -1.3910   -10.1905    -7.9299  C.3     1  <O>11       0.1173
   9 C6       -0.6118    -9.8468    -9.1477  C.ar    1  <O>11       0.0248
  10 C7       -0.9319   -10.4342   -10.3841  C.ar    1  <O>11      -0.0526
  11 C8       -0.1900   -10.1185   -11.5266  C.ar    1  <O>11      -0.0612
  12 C9        0.8735    -9.2150   -11.4486  C.ar    1  <O>11      -0.0590
  13 C10       1.1876    -8.6258   -10.2189  C.ar    1  <O>11      -0.0261
  14 C11       0.4529    -8.9319    -9.0733  C.ar    1  <O>11       0.1298
  15 F1        0.7561    -8.3484    -7.8701  F       1  <O>11      -0.2051
  16 C12      -1.2280   -10.8179    -4.9689  C.ar    1  <O>11       0.0138
  17 C13      -0.7616   -10.4151    -3.7128  C.ar    1  <O>11       0.1670
  18 N1       -1.6841   -10.3393    -2.6083  N.4     1  <O>11       0.0097
  19 O4       -2.2829   -11.6406    -2.3878  O.2     1  <O>11      -0.1299
  20 O5       -2.7227    -9.3740    -2.9105  O.2     1  <O>11      -0.3960
  21 C14       0.5820   -10.0891    -3.5231  C.ar    1  <O>11       0.1610
  22 O6        1.0161    -9.7230    -2.3596  O.3     1  <O>11      -0.5037
  23 H1        2.9041   -10.6687    -2.7201  H       1  <O>11       0.2954
  24 H2       -1.4140    -9.3323    -7.2589  H       1  <O>11       0.0749
  25 H3       -2.4092   -10.4570    -8.2129  H       1  <O>11       0.0749
  26 H4        1.9658    -9.5362    -2.4125  H       1  <O>11       0.2923
  27 H5        1.6706   -10.6282    -6.6546  H       1  <O>11       0.0663
  28 H6       -1.7172   -11.1007   -10.4487  H       1  <O>11       0.0622
  29 H7       -0.4286   -10.5545   -12.4311  H       1  <O>11       0.0618
  30 H8        1.4226    -8.9841   -12.2912  H       1  <O>11       0.0618
  31 H9        1.9716    -7.9574   -10.1588  H       1  <O>11       0.0646
  32 H10      -2.2232   -11.0568    -5.1017  H       1  <O>11       0.0678
  33 H11      -2.4969    -8.4803    -3.0792  H       1  <O>11       0.3292
@<TRIPOS>BOND
     1     1     2    2
     2     2     3    1
     3     2     4    1
     4     4     5   ar
     5     5     6   ar
     6     6     7    1
     7     7     8    1
     8     8     9    1
     9     9    10   ar
    10    10    11   ar
    11    11    12   ar
    12    12    13   ar
    13    13    14   ar
    14     9    14   ar
    15    14    15    1
    16     6    16   ar
    17    16    17   ar
    18    17    18    1
    19    18    19    2
    20    18    20    1
    21    17    21   ar
    22     4    21   ar
    23    21    22    1
    24     3    23    1
    25     8    24    1
    26     8    25    1
    27    22    26    1
    28     5    27    1
    29    10    28    1
    30    11    29    1
    31    12    30    1
    32    13    31    1
    33    16    32    1
    34    20    33    1
@<TRIPOS>MOLECULE
mol46_1_17
 33 34 0 0 0
SMALL
USER_CHARGES
****
VDW energy = 192.53
@<TRIPOS>ATOM
   1 O1        3.4420    -9.1855    -5.2979  O.2     1  <O>11      -0.2450
   2 C1        2.8552    -9.8129    -4.4288  C.2     1  <O>11       0.3405
   3 O2        3.5096   -10.1823    -3.3012  O.3     1  <O>11      -0.4770
   4 C2        1.4620   -10.1610    -4.6040  C.ar    1  <O>11       0.1058
   5 C3        0.5927    -9.2326    -5.1822  C.ar    1  <O>11      -0.0023
   6 C4       -0.7586    -9.5576    -5.3434  C.ar    1  <O>11       0.1242
   7 O3       -1.6121    -8.6503    -5.9043  O.3     1  <O>11      -0.4872
   8 C5       -2.3273    -7.9777    -4.8810  C.3     1  <O>11       0.1173
   9 C6       -1.9740    -6.5343    -4.8962  C.ar    1  <O>11       0.0248
  10 C7       -1.0533    -6.0391    -5.8360  C.ar    1  <O>11      -0.0526
  11 C8       -0.7132    -4.6828    -5.8411  C.ar    1  <O>11      -0.0612
  12 C9       -1.2878    -3.8089    -4.9138  C.ar    1  <O>11      -0.0590
  13 C10      -2.2088    -4.3013    -3.9827  C.ar    1  <O>11      -0.0261
  14 C11      -2.5569    -5.6521    -3.9699  C.ar    1  <O>11       0.1298
  15 F1       -3.4655    -6.1327    -3.0624  F       1  <O>11      -0.2051
  16 C12      -1.2358   -10.8050    -4.9328  C.ar    1  <O>11       0.0138
  17 C13      -0.3521   -11.7274    -4.3617  C.ar    1  <O>11       0.1670
  18 N1       -0.8483   -13.0134    -3.9414  N.4     1  <O>11       0.0097
  19 O4       -1.4297   -13.7021    -5.0762  O.2     1  <O>11      -0.1299
  20 O5       -1.8580   -12.8313    -2.9170  O.2     1  <O>11      -0.3960
  21 C14       0.9977   -11.4130    -4.1980  C.ar    1  <O>11       0.1610
  22 O6        1.8176   -12.2683    -3.6762  O.3     1  <O>11      -0.5037
  23 H1        2.9041   -10.6687    -2.7201  H       1  <O>11       0.2954
  24 H2       -2.0662    -8.4056    -3.9135  H       1  <O>11       0.0749
  25 H3       -3.3978    -8.0919    -5.0511  H       1  <O>11       0.0749
  26 H4        2.7066   -11.8837    -3.6395  H       1  <O>11       0.2923
  27 H5        0.9453    -8.3124    -5.4886  H       1  <O>11       0.0663
  28 H6       -0.6271    -6.6788    -6.5246  H       1  <O>11       0.0622
  29 H7       -0.0352    -4.3255    -6.5323  H       1  <O>11       0.0618
  30 H8       -1.0347    -2.8085    -4.9159  H       1  <O>11       0.0618
  31 H9       -2.6355    -3.6580    -3.2977  H       1  <O>11       0.0646
  32 H10      -2.2328   -11.0443    -5.0499  H       1  <O>11       0.0678
  33 H11      -1.6390   -12.3994    -2.1148  H       1  <O>11       0.3292
@<TRIPOS>BOND
     1     1     2    2
     2     2     3    1
     3     2     4    1
     4     4     5   ar
     5     5     6   ar
     6     6     7    1
     7     7     8    1
     8     8     9    1
     9     9    10   ar
    10    10    11   ar
    11    11    12   ar
    12    12    13   ar
    13    13    14   ar
    14     9    14   ar
    15    14    15    1
    16     6    16   ar
    17    16    17   ar
    18    17    18    1
    19    18    19    2
    20    18    20    1
    21    17    21   ar
    22     4    21   ar
    23    21    22    1
    24     3    23    1
    25     8    24    1
    26     8    25    1
    27    22    26    1
    28     5    27    1
    29    10    28    1
    30    11    29    1
    31    12    30    1
    32    13    31    1
    33    16    32    1
    34    20    33    1
@<TRIPOS>MOLECULE
mol46_1_18
 33 34 0 0 0
SMALL
USER_CHARGES
****
VDW energy = 192.97
@<TRIPOS>ATOM
   1 O1        3.4420    -9.1855    -5.2979  O.2     1  <O>11      -0.2450
   2 C1        2.8552    -9.8129    -4.4288  C.2     1  <O>11       0.3405
   3 O2        3.5096   -10.1823    -3.3012  O.3     1  <O>11      -0.4770
   4 C2        1.4620   -10.1610    -4.6040  C.ar    1  <O>11       0.1058
   5 C3        0.5200    -9.6963    -3.6828  C.ar    1  <O>11      -0.0023
   6 C4       -0.8275   -10.0393    -3.8389  C.ar    1  <O>11       0.1242
   7 O3       -1.7503    -9.5902    -2.9373  O.3     1  <O>11      -0.4872
   8 C5       -1.4199   -10.0684    -1.6437  C.3     1  <O>11       0.1173
   9 C6       -1.0974    -8.9194    -0.7582  C.ar    1  <O>11       0.0248
  10 C7       -2.1062    -8.3077     0.0062  C.ar    1  <O>11      -0.0526
  11 C8       -1.8031    -7.2191     0.8298  C.ar    1  <O>11      -0.0612
  12 C9       -0.4947    -6.7327     0.9013  C.ar    1  <O>11      -0.0590
  13 C10       0.5102    -7.3460     0.1451  C.ar    1  <O>11      -0.0261
  14 C11       0.2194    -8.4338    -0.6783  C.ar    1  <O>11       0.1298
  15 F1        1.2059    -9.0395    -1.4132  F       1  <O>11      -0.2051
  16 C12      -1.2301   -10.8382    -4.9121  C.ar    1  <O>11       0.0138
  17 C13      -0.2765   -11.2906    -5.8307  C.ar    1  <O>11       0.1670
  18 N1       -0.6966   -12.1128    -6.9372  N.4     1  <O>11       0.0097
  19 O4       -1.6726   -11.3936    -7.7312  O.2     1  <O>11      -0.1299
  20 O5       -1.2897   -13.3360    -6.4333  O.2     1  <O>11      -0.3960
  21 C14       1.0696   -10.9526    -5.6844  C.ar    1  <O>11       0.1610
  22 O6        1.9517   -11.3647    -6.5378  O.3     1  <O>11      -0.5037
  23 H1        2.9041   -10.6687    -2.7201  H       1  <O>11       0.2954
  24 H2       -0.5564   -10.7297    -1.7101  H       1  <O>11       0.0749
  25 H3       -2.2667   -10.6178    -1.2326  H       1  <O>11       0.0749
  26 H4        2.8275   -11.0379    -6.2813  H       1  <O>11       0.2923
  27 H5        0.8164    -9.1035    -2.8918  H       1  <O>11       0.0663
  28 H6       -3.0739    -8.6633    -0.0407  H       1  <O>11       0.0622
  29 H7       -2.5483    -6.7730     1.3871  H       1  <O>11       0.0618
  30 H8       -0.2715    -5.9276     1.5072  H       1  <O>11       0.0618
  31 H9        1.4773    -6.9895     0.1970  H       1  <O>11       0.0646
  32 H10      -2.2236   -11.0929    -5.0265  H       1  <O>11       0.0678
  33 H11      -0.7842   -13.9161    -5.8987  H       1  <O>11       0.3292
@<TRIPOS>BOND
     1     1     2    2
     2     2     3    1
     3     2     4    1
     4     4     5   ar
     5     5     6   ar
     6     6     7    1
     7     7     8    1
     8     8     9    1
     9     9    10   ar
    10    10    11   ar
    11    11    12   ar
    12    12    13   ar
    13    13    14   ar
    14     9    14   ar
    15    14    15    1
    16     6    16   ar
    17    16    17   ar
    18    17    18    1
    19    18    19    2
    20    18    20    1
    21    17    21   ar
    22     4    21   ar
    23    21    22    1
    24     3    23    1
    25     8    24    1
    26     8    25    1
    27    22    26    1
    28     5    27    1
    29    10    28    1
    30    11    29    1
    31    12    30    1
    32    13    31    1
    33    16    32    1
    34    20    33    1
@<TRIPOS>MOLECULE
mol46_1_19
 33 34 0 0 0
SMALL
USER_CHARGES
****
VDW energy = 196.62
@<TRIPOS>ATOM
   1 O1        3.4420    -9.1855    -5.2979  O.2     1  <O>11      -0.2450
   2 C1        2.8552    -9.8129    -4.4288  C.2     1  <O>11       0.3405
   3 O2        3.5096   -10.1823    -3.3012  O.3     1  <O>11      -0.4770
   4 C2        1.4620   -10.1610    -4.6040  C.ar    1  <O>11       0.1058
   5 C3        1.0120   -10.5683    -5.8623  C.ar    1  <O>11      -0.0023
   6 C4       -0.3367   -10.8946    -6.0422  C.ar    1  <O>11       0.1242
   7 O3       -0.7807   -11.2889    -7.2725  O.3     1  <O>11      -0.4872
   8 C5       -1.3910   -10.1905    -7.9299  C.3     1  <O>11       0.1173
   9 C6       -0.6118    -9.8468    -9.1477  C.ar    1  <O>11       0.0248
  10 C7       -0.9319   -10.4342   -10.3841  C.ar    1  <O>11      -0.0526
  11 C8       -0.1900   -10.1185   -11.5266  C.ar    1  <O>11      -0.0612
  12 C9        0.8735    -9.2150   -11.4486  C.ar    1  <O>11      -0.0590
  13 C10       1.1876    -8.6258   -10.2189  C.ar    1  <O>11      -0.0261
  14 C11       0.4529    -8.9319    -9.0733  C.ar    1  <O>11       0.1298
  15 F1        0.7561    -8.3484    -7.8701  F       1  <O>11      -0.2051
  16 C12      -1.2280   -10.8179    -4.9689  C.ar    1  <O>11       0.0138
  17 C13      -0.7616   -10.4151    -3.7128  C.ar    1  <O>11       0.1670
  18 N1       -1.6841   -10.3393    -2.6083  N.4     1  <O>11       0.0097
  19 O4       -1.6217    -9.0183    -2.0155  O.2     1  <O>11      -0.1299
  20 O5       -1.3308   -11.3330    -1.6135  O.2     1  <O>11      -0.3960
  21 C14       0.5820   -10.0891    -3.5231  C.ar    1  <O>11       0.1610
  22 O6        1.0161    -9.7230    -2.3596  O.3     1  <O>11      -0.5037
  23 H1        2.9041   -10.6687    -2.7201  H       1  <O>11       0.2954
  24 H2       -1.4140    -9.3323    -7.2589  H       1  <O>11       0.0749
  25 H3       -2.4092   -10.4570    -8.2129  H       1  <O>11       0.0749
  26 H4        1.9658    -9.5362    -2.4125  H       1  <O>11       0.2923
  27 H5        1.6706   -10.6282    -6.6546  H       1  <O>11       0.0663
  28 H6       -1.7172   -11.1007   -10.4487  H       1  <O>11       0.0622
  29 H7       -0.4286   -10.5545   -12.4311  H       1  <O>11       0.0618
  30 H8        1.4226    -8.9841   -12.2912  H       1  <O>11       0.0618
  31 H9        1.9716    -7.9574   -10.1588  H       1  <O>11       0.0646
  32 H10      -2.2232   -11.0568    -5.1017  H       1  <O>11       0.0678
  33 H11      -1.3236   -12.2419    -1.8412  H       1  <O>11       0.3292
@<TRIPOS>BOND
     1     1     2    2
     2     2     3    1
     3     2     4    1
     4     4     5   ar
     5     5     6   ar
     6     6     7    1
     7     7     8    1
     8     8     9    1
     9     9    10   ar
    10    10    11   ar
    11    11    12   ar
    12    12    13   ar
    13    13    14   ar
    14     9    14   ar
    15    14    15    1
    16     6    16   ar
    17    16    17   ar
    18    17    18    1
    19    18    19    2
    20    18    20    1
    21    17    21   ar
    22     4    21   ar
    23    21    22    1
    24     3    23    1
    25     8    24    1
    26     8    25    1
    27    22    26    1
    28     5    27    1
    29    10    28    1
    30    11    29    1
    31    12    30    1
    32    13    31    1
    33    16    32    1
    34    20    33    1
@<TRIPOS>MOLECULE
mol46_1_20
 33 34 0 0 0
SMALL
USER_CHARGES
****
VDW energy = 197.74
@<TRIPOS>ATOM
   1 O1        3.4420    -9.1855    -5.2979  O.2     1  <O>11      -0.2450
   2 C1        2.8552    -9.8129    -4.4288  C.2     1  <O>11       0.3405
   3 O2        3.5096   -10.1823    -3.3012  O.3     1  <O>11      -0.4770
   4 C2        1.4620   -10.1610    -4.6040  C.ar    1  <O>11       0.1058
   5 C3        1.1317   -11.3710    -5.2192  C.ar    1  <O>11      -0.0023
   6 C4       -0.2136   -11.7087    -5.4033  C.ar    1  <O>11       0.1242
   7 O3       -0.5399   -12.8891    -6.0085  O.3     1  <O>11      -0.4872
   8 C5        0.0052   -12.9164    -7.3175  C.3     1  <O>11       0.1173
   9 C6        1.0105   -14.0065    -7.4129  C.ar    1  <O>11       0.0248
  10 C7        0.6241   -15.2940    -7.8243  C.ar    1  <O>11      -0.0526
  11 C8        1.5693   -16.3216    -7.9021  C.ar    1  <O>11      -0.0612
  12 C9        2.9056   -16.0758    -7.5741  C.ar    1  <O>11      -0.0590
  13 C10       3.2908   -14.7925    -7.1708  C.ar    1  <O>11      -0.0261
  14 C11       2.3566   -13.7597    -7.0916  C.ar    1  <O>11       0.1298
  15 F1        2.7360   -12.5003    -6.7038  F       1  <O>11      -0.2051
  16 C12      -1.2215   -10.8431    -4.9705  C.ar    1  <O>11       0.0138
  17 C13      -0.8757    -9.6378    -4.3497  C.ar    1  <O>11       0.1670
  18 N1       -1.9186    -8.7491    -3.9034  N.4     1  <O>11       0.0097
  19 O4       -2.7633    -9.4362    -2.9470  O.2     1  <O>11      -0.1299
  20 O5       -2.7159    -8.3295    -5.0392  O.2     1  <O>11      -0.3960
  21 C14       0.4633    -9.2929    -4.1603  C.ar    1  <O>11       0.1610
  22 O6        0.7843    -8.1812    -3.5797  O.3     1  <O>11      -0.5037
  23 H1        2.9041   -10.6687    -2.7201  H       1  <O>11       0.2954
  24 H2        0.4834   -11.9611    -7.5321  H       1  <O>11       0.0749
  25 H3       -0.7924   -13.0930    -8.0391  H       1  <O>11       0.0749
  26 H4        1.7497    -8.1067    -3.5344  H       1  <O>11       0.2923
  27 H5        1.8757   -12.0122    -5.5360  H       1  <O>11       0.0663
  28 H6       -0.3606   -15.4815    -8.0697  H       1  <O>11       0.0622
  29 H7        1.2792   -17.2652    -8.2030  H       1  <O>11       0.0618
  30 H8        3.6026   -16.8349    -7.6290  H       1  <O>11       0.0618
  31 H9        4.2770   -14.6082    -6.9292  H       1  <O>11       0.0646
  32 H10      -2.2138   -11.0911    -5.1078  H       1  <O>11       0.0678
  33 H11      -2.3139    -7.8690    -5.7493  H       1  <O>11       0.3292
@<TRIPOS>BOND
     1     1     2    2
     2     2     3    1
     3     2     4    1
     4     4     5   ar
     5     5     6   ar
     6     6     7    1
     7     7     8    1
     8     8     9    1
     9     9    10   ar
    10    10    11   ar
    11    11    12   ar
    12    12    13   ar
    13    13    14   ar
    14     9    14   ar
    15    14    15    1
    16     6    16   ar
    17    16    17   ar
    18    17    18    1
    19    18    19    2
    20    18    20    1
    21    17    21   ar
    22     4    21   ar
    23    21    22    1
    24     3    23    1
    25     8    24    1
    26     8    25    1
    27    22    26    1
    28     5    27    1
    29    10    28    1
    30    11    29    1
    31    12    30    1
    32    13    31    1
    33    16    32    1
    34    20    33    1
@<TRIPOS>MOLECULE
mol46_1_21
 33 34 0 0 0
SMALL
USER_CHARGES
****
VDW energy = 199.21
@<TRIPOS>ATOM
   1 O1        3.4420    -9.1855    -5.2979  O.2     1  <O>11      -0.2450
   2 C1        2.8552    -9.8129    -4.4288  C.2     1  <O>11       0.3405
   3 O2        3.5096   -10.1823    -3.3012  O.3     1  <O>11      -0.4770
   4 C2        1.4620   -10.1610    -4.6040  C.ar    1  <O>11       0.1058
   5 C3        1.0120   -10.5683    -5.8623  C.ar    1  <O>11      -0.0023
   6 C4       -0.3367   -10.8946    -6.0422  C.ar    1  <O>11       0.1242
   7 O3       -0.7807   -11.2889    -7.2725  O.3     1  <O>11      -0.4872
   8 C5       -0.6684   -12.6979    -7.3870  C.3     1  <O>11       0.1173
   9 C6       -2.0223   -13.2926    -7.5341  C.ar    1  <O>11       0.0248
  10 C7       -2.5753   -13.4904    -8.8114  C.ar    1  <O>11      -0.0526
  11 C8       -3.8543   -14.0392    -8.9474  C.ar    1  <O>11      -0.0612
  12 C9       -4.5912   -14.3974    -7.8151  C.ar    1  <O>11      -0.0590
  13 C10      -4.0377   -14.2060    -6.5444  C.ar    1  <O>11      -0.0261
  14 C11      -2.7620   -13.6613    -6.3971  C.ar    1  <O>11       0.1298
  15 F1       -2.2167   -13.4813    -5.1519  F       1  <O>11      -0.2051
  16 C12      -1.2280   -10.8179    -4.9689  C.ar    1  <O>11       0.0138
  17 C13      -0.7616   -10.4151    -3.7128  C.ar    1  <O>11       0.1670
  18 N1       -1.6841   -10.3393    -2.6083  N.4     1  <O>11       0.0097
  19 O4       -1.2522    -9.3073    -1.6870  O.2     1  <O>11      -0.1299
  20 O5       -1.7227   -11.6155    -1.9215  O.2     1  <O>11      -0.3960
  21 C14       0.5820   -10.0891    -3.5231  C.ar    1  <O>11       0.1610
  22 O6        1.0161    -9.7230    -2.3596  O.3     1  <O>11      -0.5037
  23 H1        2.9041   -10.6687    -2.7201  H       1  <O>11       0.2954
  24 H2       -0.1907   -13.0984    -6.4933  H       1  <O>11       0.0749
  25 H3       -0.0661   -12.9441    -8.2615  H       1  <O>11       0.0749
  26 H4        1.9658    -9.5362    -2.4125  H       1  <O>11       0.2923
  27 H5        1.6706   -10.6282    -6.6546  H       1  <O>11       0.0663
  28 H6       -2.0355   -13.2298    -9.6514  H       1  <O>11       0.0622
  29 H7       -4.2557   -14.1803    -9.8876  H       1  <O>11       0.0618
  30 H8       -5.5362   -14.7999    -7.9155  H       1  <O>11       0.0618
  31 H9       -4.5793   -14.4708    -5.7067  H       1  <O>11       0.0646
  32 H10      -2.2232   -11.0568    -5.1017  H       1  <O>11       0.0678
  33 H11      -1.9841   -12.3881    -2.3828  H       1  <O>11       0.3292
@<TRIPOS>BOND
     1     1     2    2
     2     2     3    1
     3     2     4    1
     4     4     5   ar
     5     5     6   ar
     6     6     7    1
     7     7     8    1
     8     8     9    1
     9     9    10   ar
    10    10    11   ar
    11    11    12   ar
    12    12    13   ar
    13    13    14   ar
    14     9    14   ar
    15    14    15    1
    16     6    16   ar
    17    16    17   ar
    18    17    18    1
    19    18    19    2
    20    18    20    1
    21    17    21   ar
    22     4    21   ar
    23    21    22    1
    24     3    23    1
    25     8    24    1
    26     8    25    1
    27    22    26    1
    28     5    27    1
    29    10    28    1
    30    11    29    1
    31    12    30    1
    32    13    31    1
    33    16    32    1
    34    20    33    1
@<TRIPOS>MOLECULE
mol46_1_22
 33 34 0 0 0
SMALL
USER_CHARGES
****
VDW energy = 199.31
@<TRIPOS>ATOM
   1 O1        3.4420    -9.1855    -5.2979  O.2     1  <O>11      -0.2450
   2 C1        2.8552    -9.8129    -4.4288  C.2     1  <O>11       0.3405
   3 O2        3.5096   -10.1823    -3.3012  O.3     1  <O>11      -0.4770
   4 C2        1.4620   -10.1610    -4.6040  C.ar    1  <O>11       0.1058
   5 C3        1.0120   -10.5683    -5.8623  C.ar    1  <O>11      -0.0023
   6 C4       -0.3367   -10.8946    -6.0422  C.ar    1  <O>11       0.1242
   7 O3       -0.7807   -11.2889    -7.2725  O.3     1  <O>11      -0.4872
   8 C5       -1.3910   -10.1905    -7.9299  C.3     1  <O>11       0.1173
   9 C6       -0.6118    -9.8468    -9.1477  C.ar    1  <O>11       0.0248
  10 C7       -0.9319   -10.4342   -10.3841  C.ar    1  <O>11      -0.0526
  11 C8       -0.1900   -10.1185   -11.5266  C.ar    1  <O>11      -0.0612
  12 C9        0.8735    -9.2150   -11.4486  C.ar    1  <O>11      -0.0590
  13 C10       1.1876    -8.6258   -10.2189  C.ar    1  <O>11      -0.0261
  14 C11       0.4529    -8.9319    -9.0733  C.ar    1  <O>11       0.1298
  15 F1        0.7561    -8.3484    -7.8701  F       1  <O>11      -0.2051
  16 C12      -1.2280   -10.8179    -4.9689  C.ar    1  <O>11       0.0138
  17 C13      -0.7616   -10.4151    -3.7128  C.ar    1  <O>11       0.1670
  18 N1       -1.6841   -10.3393    -2.6083  N.4     1  <O>11       0.0097
  19 O4       -1.2522    -9.3073    -1.6870  O.2     1  <O>11      -0.1299
  20 O5       -1.7227   -11.6155    -1.9215  O.2     1  <O>11      -0.3960
  21 C14       0.5820   -10.0891    -3.5231  C.ar    1  <O>11       0.1610
  22 O6        1.0161    -9.7230    -2.3596  O.3     1  <O>11      -0.5037
  23 H1        2.9041   -10.6687    -2.7201  H       1  <O>11       0.2954
  24 H2       -1.4140    -9.3323    -7.2589  H       1  <O>11       0.0749
  25 H3       -2.4092   -10.4570    -8.2129  H       1  <O>11       0.0749
  26 H4        1.9658    -9.5362    -2.4125  H       1  <O>11       0.2923
  27 H5        1.6706   -10.6282    -6.6546  H       1  <O>11       0.0663
  28 H6       -1.7172   -11.1007   -10.4487  H       1  <O>11       0.0622
  29 H7       -0.4286   -10.5545   -12.4311  H       1  <O>11       0.0618
  30 H8        1.4226    -8.9841   -12.2912  H       1  <O>11       0.0618
  31 H9        1.9716    -7.9574   -10.1588  H       1  <O>11       0.0646
  32 H10      -2.2232   -11.0568    -5.1017  H       1  <O>11       0.0678
  33 H11      -1.9841   -12.3881    -2.3828  H       1  <O>11       0.3292
@<TRIPOS>BOND
     1     1     2    2
     2     2     3    1
     3     2     4    1
     4     4     5   ar
     5     5     6   ar
     6     6     7    1
     7     7     8    1
     8     8     9    1
     9     9    10   ar
    10    10    11   ar
    11    11    12   ar
    12    12    13   ar
    13    13    14   ar
    14     9    14   ar
    15    14    15    1
    16     6    16   ar
    17    16    17   ar
    18    17    18    1
    19    18    19    2
    20    18    20    1
    21    17    21   ar
    22     4    21   ar
    23    21    22    1
    24     3    23    1
    25     8    24    1
    26     8    25    1
    27    22    26    1
    28     5    27    1
    29    10    28    1
    30    11    29    1
    31    12    30    1
    32    13    31    1
    33    16    32    1
    34    20    33    1
@<TRIPOS>MOLECULE
mol46_1_23
 33 34 0 0 0
SMALL
USER_CHARGES
****
VDW energy = 200.55
@<TRIPOS>ATOM
   1 O1        3.4420    -9.1855    -5.2979  O.2     1  <O>11      -0.2450
   2 C1        2.8552    -9.8129    -4.4288  C.2     1  <O>11       0.3405
   3 O2        3.5096   -10.1823    -3.3012  O.3     1  <O>11      -0.4770
   4 C2        1.4620   -10.1610    -4.6040  C.ar    1  <O>11       0.1058
   5 C3        1.0120   -10.5683    -5.8623  C.ar    1  <O>11      -0.0023
   6 C4       -0.3367   -10.8946    -6.0422  C.ar    1  <O>11       0.1242
   7 O3       -0.7807   -11.2889    -7.2725  O.3     1  <O>11      -0.4872
   8 C5       -1.3910   -10.1905    -7.9299  C.3     1  <O>11       0.1173
   9 C6       -0.6118    -9.8468    -9.1477  C.ar    1  <O>11       0.0248
  10 C7       -0.9319   -10.4342   -10.3841  C.ar    1  <O>11      -0.0526
  11 C8       -0.1900   -10.1185   -11.5266  C.ar    1  <O>11      -0.0612
  12 C9        0.8735    -9.2150   -11.4486  C.ar    1  <O>11      -0.0590
  13 C10       1.1876    -8.6258   -10.2189  C.ar    1  <O>11      -0.0261
  14 C11       0.4529    -8.9319    -9.0733  C.ar    1  <O>11       0.1298
  15 F1        0.7561    -8.3484    -7.8701  F       1  <O>11      -0.2051
  16 C12      -1.2280   -10.8179    -4.9689  C.ar    1  <O>11       0.0138
  17 C13      -0.7616   -10.4151    -3.7128  C.ar    1  <O>11       0.1670
  18 N1       -1.6841   -10.3393    -2.6083  N.4     1  <O>11       0.0097
  19 O4       -1.2513   -11.2347    -1.5541  O.2     1  <O>11      -0.1299
  20 O5       -3.0082   -10.7240    -3.0563  O.2     1  <O>11      -0.3960
  21 C14       0.5820   -10.0891    -3.5231  C.ar    1  <O>11       0.1610
  22 O6        1.0161    -9.7230    -2.3596  O.3     1  <O>11      -0.5037
  23 H1        2.9041   -10.6687    -2.7201  H       1  <O>11       0.2954
  24 H2       -1.4140    -9.3323    -7.2589  H       1  <O>11       0.0749
  25 H3       -2.4092   -10.4570    -8.2129  H       1  <O>11       0.0749
  26 H4        1.9658    -9.5362    -2.4125  H       1  <O>11       0.2923
  27 H5        1.6706   -10.6282    -6.6546  H       1  <O>11       0.0663
  28 H6       -1.7172   -11.1007   -10.4487  H       1  <O>11       0.0622
  29 H7       -0.4286   -10.5545   -12.4311  H       1  <O>11       0.0618
  30 H8        1.4226    -8.9841   -12.2912  H       1  <O>11       0.0618
  31 H9        1.9716    -7.9574   -10.1588  H       1  <O>11       0.0646
  32 H10      -2.2232   -11.0568    -5.1017  H       1  <O>11       0.0678
  33 H11      -3.4308   -10.2402    -3.7385  H       1  <O>11       0.3292
@<TRIPOS>BOND
     1     1     2    2
     2     2     3    1
     3     2     4    1
     4     4     5   ar
     5     5     6   ar
     6     6     7    1
     7     7     8    1
     8     8     9    1
     9     9    10   ar
    10    10    11   ar
    11    11    12   ar
    12    12    13   ar
    13    13    14   ar
    14     9    14   ar
    15    14    15    1
    16     6    16   ar
    17    16    17   ar
    18    17    18    1
    19    18    19    2
    20    18    20    1
    21    17    21   ar
    22     4    21   ar
    23    21    22    1
    24     3    23    1
    25     8    24    1
    26     8    25    1
    27    22    26    1
    28     5    27    1
    29    10    28    1
    30    11    29    1
    31    12    30    1
    32    13    31    1
    33    16    32    1
    34    20    33    1
@<TRIPOS>MOLECULE
mol46_1_24
 33 34 0 0 0
SMALL
USER_CHARGES
****
VDW energy = 203.01
@<TRIPOS>ATOM
   1 O1        3.4420    -9.1855    -5.2979  O.2     1  <O>11      -0.2450
   2 C1        2.8552    -9.8129    -4.4288  C.2     1  <O>11       0.3405
   3 O2        3.5096   -10.1823    -3.3012  O.3     1  <O>11      -0.4770
   4 C2        1.4620   -10.1610    -4.6040  C.ar    1  <O>11       0.1058
   5 C3        1.0120   -10.5683    -5.8623  C.ar    1  <O>11      -0.0023
   6 C4       -0.3367   -10.8946    -6.0422  C.ar    1  <O>11       0.1242
   7 O3       -0.7807   -11.2889    -7.2725  O.3     1  <O>11      -0.4872
   8 C5       -0.6684   -12.6979    -7.3870  C.3     1  <O>11       0.1173
   9 C6       -2.0223   -13.2926    -7.5341  C.ar    1  <O>11       0.0248
  10 C7       -2.5753   -13.4904    -8.8114  C.ar    1  <O>11      -0.0526
  11 C8       -3.8543   -14.0392    -8.9474  C.ar    1  <O>11      -0.0612
  12 C9       -4.5912   -14.3974    -7.8151  C.ar    1  <O>11      -0.0590
  13 C10      -4.0377   -14.2060    -6.5444  C.ar    1  <O>11      -0.0261
  14 C11      -2.7620   -13.6613    -6.3971  C.ar    1  <O>11       0.1298
  15 F1       -2.2167   -13.4813    -5.1519  F       1  <O>11      -0.2051
  16 C12      -1.2280   -10.8179    -4.9689  C.ar    1  <O>11       0.0138
  17 C13      -0.7616   -10.4151    -3.7128  C.ar    1  <O>11       0.1670
  18 N1       -1.6841   -10.3393    -2.6083  N.4     1  <O>11       0.0097
  19 O4       -1.2513   -11.2347    -1.5541  O.2     1  <O>11      -0.1299
  20 O5       -3.0082   -10.7240    -3.0563  O.2     1  <O>11      -0.3960
  21 C14       0.5820   -10.0891    -3.5231  C.ar    1  <O>11       0.1610
  22 O6        1.0161    -9.7230    -2.3596  O.3     1  <O>11      -0.5037
  23 H1        2.9041   -10.6687    -2.7201  H       1  <O>11       0.2954
  24 H2       -0.1907   -13.0984    -6.4933  H       1  <O>11       0.0749
  25 H3       -0.0661   -12.9441    -8.2615  H       1  <O>11       0.0749
  26 H4        1.9658    -9.5362    -2.4125  H       1  <O>11       0.2923
  27 H5        1.6706   -10.6282    -6.6546  H       1  <O>11       0.0663
  28 H6       -2.0355   -13.2298    -9.6514  H       1  <O>11       0.0622
  29 H7       -4.2557   -14.1803    -9.8876  H       1  <O>11       0.0618
  30 H8       -5.5362   -14.7999    -7.9155  H       1  <O>11       0.0618
  31 H9       -4.5793   -14.4708    -5.7067  H       1  <O>11       0.0646
  32 H10      -2.2232   -11.0568    -5.1017  H       1  <O>11       0.0678
  33 H11      -3.4308   -10.2402    -3.7385  H       1  <O>11       0.3292
@<TRIPOS>BOND
     1     1     2    2
     2     2     3    1
     3     2     4    1
     4     4     5   ar
     5     5     6   ar
     6     6     7    1
     7     7     8    1
     8     8     9    1
     9     9    10   ar
    10    10    11   ar
    11    11    12   ar
    12    12    13   ar
    13    13    14   ar
    14     9    14   ar
    15    14    15    1
    16     6    16   ar
    17    16    17   ar
    18    17    18    1
    19    18    19    2
    20    18    20    1
    21    17    21   ar
    22     4    21   ar
    23    21    22    1
    24     3    23    1
    25     8    24    1
    26     8    25    1
    27    22    26    1
    28     5    27    1
    29    10    28    1
    30    11    29    1
    31    12    30    1
    32    13    31    1
    33    16    32    1
    34    20    33    1
@<TRIPOS>MOLECULE
mol46_1_25
 33 34 0 0 0
SMALL
USER_CHARGES
****
VDW energy = 203.33
@<TRIPOS>ATOM
   1 O1        3.4420    -9.1855    -5.2979  O.2     1  <O>11      -0.2450
   2 C1        2.8552    -9.8129    -4.4288  C.2     1  <O>11       0.3405
   3 O2        3.5096   -10.1823    -3.3012  O.3     1  <O>11      -0.4770
   4 C2        1.4620   -10.1610    -4.6040  C.ar    1  <O>11       0.1058
   5 C3        1.0120   -10.5683    -5.8623  C.ar    1  <O>11      -0.0023
   6 C4       -0.3367   -10.8946    -6.0422  C.ar    1  <O>11       0.1242
   7 O3       -0.7807   -11.2889    -7.2725  O.3     1  <O>11      -0.4872
   8 C5       -1.3910   -10.1905    -7.9299  C.3     1  <O>11       0.1173
   9 C6       -0.6118    -9.8468    -9.1477  C.ar    1  <O>11       0.0248
  10 C7        0.5398   -10.5798    -9.4834  C.ar    1  <O>11      -0.0526
  11 C8        1.2785   -10.2473   -10.6233  C.ar    1  <O>11      -0.0612
  12 C9        0.8762    -9.1857   -11.4386  C.ar    1  <O>11      -0.0590
  13 C10      -0.2737    -8.4605   -11.1073  C.ar    1  <O>11      -0.0261
  14 C11      -1.0192    -8.7848    -9.9737  C.ar    1  <O>11       0.1298
  15 F1       -2.1503    -8.0789    -9.6538  F       1  <O>11      -0.2051
  16 C12      -1.2280   -10.8179    -4.9689  C.ar    1  <O>11       0.0138
  17 C13      -0.7616   -10.4151    -3.7128  C.ar    1  <O>11       0.1670
  18 N1       -1.6841   -10.3393    -2.6083  N.4     1  <O>11       0.0097
  19 O4       -1.2522    -9.3073    -1.6870  O.2     1  <O>11      -0.1299
  20 O5       -1.7227   -11.6155    -1.9215  O.2     1  <O>11      -0.3960
  21 C14       0.5820   -10.0891    -3.5231  C.ar    1  <O>11       0.1610
  22 O6        1.0161    -9.7230    -2.3596  O.3     1  <O>11      -0.5037
  23 H1        2.9041   -10.6687    -2.7201  H       1  <O>11       0.2954
  24 H2       -1.4140    -9.3323    -7.2589  H       1  <O>11       0.0749
  25 H3       -2.4092   -10.4570    -8.2129  H       1  <O>11       0.0749
  26 H4        1.9658    -9.5362    -2.4125  H       1  <O>11       0.2923
  27 H5        1.6706   -10.6282    -6.6546  H       1  <O>11       0.0663
  28 H6        0.8411   -11.3660    -8.8866  H       1  <O>11       0.0622
  29 H7        2.1241   -10.7879   -10.8636  H       1  <O>11       0.0618
  30 H8        1.4229    -8.9387   -12.2783  H       1  <O>11       0.0618
  31 H9       -0.5736    -7.6770   -11.7083  H       1  <O>11       0.0646
  32 H10      -2.2232   -11.0568    -5.1017  H       1  <O>11       0.0678
  33 H11      -1.9841   -12.3881    -2.3828  H       1  <O>11       0.3292
@<TRIPOS>BOND
     1     1     2    2
     2     2     3    1
     3     2     4    1
     4     4     5   ar
     5     5     6   ar
     6     6     7    1
     7     7     8    1
     8     8     9    1
     9     9    10   ar
    10    10    11   ar
    11    11    12   ar
    12    12    13   ar
    13    13    14   ar
    14     9    14   ar
    15    14    15    1
    16     6    16   ar
    17    16    17   ar
    18    17    18    1
    19    18    19    2
    20    18    20    1
    21    17    21   ar
    22     4    21   ar
    23    21    22    1
    24     3    23    1
    25     8    24    1
    26     8    25    1
    27    22    26    1
    28     5    27    1
    29    10    28    1
    30    11    29    1
    31    12    30    1
    32    13    31    1
    33    16    32    1
    34    20    33    1
@<TRIPOS>MOLECULE
mol46_1_26
 33 34 0 0 0
SMALL
USER_CHARGES
****
VDW energy = 203.55
@<TRIPOS>ATOM
   1 O1        3.4420    -9.1855    -5.2979  O.2     1  <O>11      -0.2450
   2 C1        2.8552    -9.8129    -4.4288  C.2     1  <O>11       0.3405
   3 O2        3.5096   -10.1823    -3.3012  O.3     1  <O>11      -0.4770
   4 C2        1.4620   -10.1610    -4.6040  C.ar    1  <O>11       0.1058
   5 C3        0.5927    -9.2326    -5.1822  C.ar    1  <O>11      -0.0023
   6 C4       -0.7586    -9.5576    -5.3434  C.ar    1  <O>11       0.1242
   7 O3       -1.6121    -8.6503    -5.9043  O.3     1  <O>11      -0.4872
   8 C5       -2.3273    -7.9777    -4.8810  C.3     1  <O>11       0.1173
   9 C6       -1.9740    -6.5343    -4.8962  C.ar    1  <O>11       0.0248
  10 C7       -2.9676    -5.5630    -5.1096  C.ar    1  <O>11      -0.0526
  11 C8       -2.6314    -4.2059    -5.1354  C.ar    1  <O>11      -0.0612
  12 C9       -1.3059    -3.8048    -4.9466  C.ar    1  <O>11      -0.0590
  13 C10      -0.3184    -4.7718    -4.7279  C.ar    1  <O>11      -0.0261
  14 C11      -0.6429    -6.1281    -4.6982  C.ar    1  <O>11       0.1298
  15 F1        0.3238    -7.0749    -4.4761  F       1  <O>11      -0.2051
  16 C12      -1.2358   -10.8050    -4.9328  C.ar    1  <O>11       0.0138
  17 C13      -0.3521   -11.7274    -4.3617  C.ar    1  <O>11       0.1670
  18 N1       -0.8483   -13.0134    -3.9414  N.4     1  <O>11       0.0097
  19 O4       -1.4297   -13.7021    -5.0762  O.2     1  <O>11      -0.1299
  20 O5       -1.8580   -12.8313    -2.9170  O.2     1  <O>11      -0.3960
  21 C14       0.9977   -11.4130    -4.1980  C.ar    1  <O>11       0.1610
  22 O6        1.8176   -12.2683    -3.6762  O.3     1  <O>11      -0.5037
  23 H1        2.9041   -10.6687    -2.7201  H       1  <O>11       0.2954
  24 H2       -2.0662    -8.4056    -3.9135  H       1  <O>11       0.0749
  25 H3       -3.3978    -8.0919    -5.0511  H       1  <O>11       0.0749
  26 H4        2.7066   -11.8837    -3.6395  H       1  <O>11       0.2923
  27 H5        0.9453    -8.3124    -5.4886  H       1  <O>11       0.0663
  28 H6       -3.9485    -5.8525    -5.2477  H       1  <O>11       0.0622
  29 H7       -3.3649    -3.4976    -5.2944  H       1  <O>11       0.0618
  30 H8       -1.0574    -2.8035    -4.9683  H       1  <O>11       0.0618
  31 H9        0.6609    -4.4782    -4.5870  H       1  <O>11       0.0646
  32 H10      -2.2328   -11.0443    -5.0499  H       1  <O>11       0.0678
  33 H11      -1.6390   -12.3994    -2.1148  H       1  <O>11       0.3292
@<TRIPOS>BOND
     1     1     2    2
     2     2     3    1
     3     2     4    1
     4     4     5   ar
     5     5     6   ar
     6     6     7    1
     7     7     8    1
     8     8     9    1
     9     9    10   ar
    10    10    11   ar
    11    11    12   ar
    12    12    13   ar
    13    13    14   ar
    14     9    14   ar
    15    14    15    1
    16     6    16   ar
    17    16    17   ar
    18    17    18    1
    19    18    19    2
    20    18    20    1
    21    17    21   ar
    22     4    21   ar
    23    21    22    1
    24     3    23    1
    25     8    24    1
    26     8    25    1
    27    22    26    1
    28     5    27    1
    29    10    28    1
    30    11    29    1
    31    12    30    1
    32    13    31    1
    33    16    32    1
    34    20    33    1
@<TRIPOS>MOLECULE
mol46_1_27
 33 34 0 0 0
SMALL
USER_CHARGES
****
VDW energy = 204.81
@<TRIPOS>ATOM
   1 O1        3.4420    -9.1855    -5.2979  O.2     1  <O>11      -0.2450
   2 C1        2.8552    -9.8129    -4.4288  C.2     1  <O>11       0.3405
   3 O2        3.5096   -10.1823    -3.3012  O.3     1  <O>11      -0.4770
   4 C2        1.4620   -10.1610    -4.6040  C.ar    1  <O>11       0.1058
   5 C3        1.0120   -10.5683    -5.8623  C.ar    1  <O>11      -0.0023
   6 C4       -0.3367   -10.8946    -6.0422  C.ar    1  <O>11       0.1242
   7 O3       -0.7807   -11.2889    -7.2725  O.3     1  <O>11      -0.4872
   8 C5       -0.5472   -10.2544    -8.2140  C.3     1  <O>11       0.1173
   9 C6        0.4204   -10.7260    -9.2384  C.ar    1  <O>11       0.0248
  10 C7        0.9507   -12.0260    -9.1682  C.ar    1  <O>11      -0.0526
  11 C8        1.8703   -12.4640   -10.1264  C.ar    1  <O>11      -0.0612
  12 C9        2.2670   -11.6137   -11.1624  C.ar    1  <O>11      -0.0590
  13 C10       1.7340   -10.3220   -11.2353  C.ar    1  <O>11      -0.0261
  14 C11       0.8145    -9.8755   -10.2860  C.ar    1  <O>11       0.1298
  15 F1        0.2865    -8.6123   -10.3623  F       1  <O>11      -0.2051
  16 C12      -1.2280   -10.8179    -4.9689  C.ar    1  <O>11       0.0138
  17 C13      -0.7616   -10.4151    -3.7128  C.ar    1  <O>11       0.1670
  18 N1       -1.6841   -10.3393    -2.6083  N.4     1  <O>11       0.0097
  19 O4       -1.2522    -9.3073    -1.6870  O.2     1  <O>11      -0.1299
  20 O5       -1.7227   -11.6155    -1.9215  O.2     1  <O>11      -0.3960
  21 C14       0.5820   -10.0891    -3.5231  C.ar    1  <O>11       0.1610
  22 O6        1.0161    -9.7230    -2.3596  O.3     1  <O>11      -0.5037
  23 H1        2.9041   -10.6687    -2.7201  H       1  <O>11       0.2954
  24 H2       -0.1394    -9.3828    -7.7027  H       1  <O>11       0.0749
  25 H3       -1.4862    -9.9849    -8.6974  H       1  <O>11       0.0749
  26 H4        1.9658    -9.5362    -2.4125  H       1  <O>11       0.2923
  27 H5        1.6706   -10.6282    -6.6546  H       1  <O>11       0.0663
  28 H6        0.6604   -12.6593    -8.4069  H       1  <O>11       0.0622
  29 H7        2.2575   -13.4188   -10.0685  H       1  <O>11       0.0618
  30 H8        2.9476   -11.9360   -11.8679  H       1  <O>11       0.0618
  31 H9        2.0243    -9.6926   -11.9999  H       1  <O>11       0.0646
  32 H10      -2.2232   -11.0568    -5.1017  H       1  <O>11       0.0678
  33 H11      -1.9841   -12.3881    -2.3828  H       1  <O>11       0.3292
@<TRIPOS>BOND
     1     1     2    2
     2     2     3    1
     3     2     4    1
     4     4     5   ar
     5     5     6   ar
     6     6     7    1
     7     7     8    1
     8     8     9    1
     9     9    10   ar
    10    10    11   ar
    11    11    12   ar
    12    12    13   ar
    13    13    14   ar
    14     9    14   ar
    15    14    15    1
    16     6    16   ar
    17    16    17   ar
    18    17    18    1
    19    18    19    2
    20    18    20    1
    21    17    21   ar
    22     4    21   ar
    23    21    22    1
    24     3    23    1
    25     8    24    1
    26     8    25    1
    27    22    26    1
    28     5    27    1
    29    10    28    1
    30    11    29    1
    31    12    30    1
    32    13    31    1
    33    16    32    1
    34    20    33    1
@<TRIPOS>MOLECULE
mol46_1_28
 33 34 0 0 0
SMALL
USER_CHARGES
****
VDW energy = 205.70
@<TRIPOS>ATOM
   1 O1        3.4420    -9.1855    -5.2979  O.2     1  <O>11      -0.2450
   2 C1        2.8552    -9.8129    -4.4288  C.2     1  <O>11       0.3405
   3 O2        3.5096   -10.1823    -3.3012  O.3     1  <O>11      -0.4770
   4 C2        1.4620   -10.1610    -4.6040  C.ar    1  <O>11       0.1058
   5 C3        0.5927    -9.2326    -5.1822  C.ar    1  <O>11      -0.0023
   6 C4       -0.7586    -9.5576    -5.3434  C.ar    1  <O>11       0.1242
   7 O3       -1.6121    -8.6503    -5.9043  O.3     1  <O>11      -0.4872
   8 C5       -2.3273    -7.9777    -4.8810  C.3     1  <O>11       0.1173
   9 C6       -1.9740    -6.5343    -4.8962  C.ar    1  <O>11       0.0248
  10 C7       -1.0533    -6.0391    -5.8360  C.ar    1  <O>11      -0.0526
  11 C8       -0.7132    -4.6828    -5.8411  C.ar    1  <O>11      -0.0612
  12 C9       -1.2878    -3.8089    -4.9138  C.ar    1  <O>11      -0.0590
  13 C10      -2.2088    -4.3013    -3.9827  C.ar    1  <O>11      -0.0261
  14 C11      -2.5569    -5.6521    -3.9699  C.ar    1  <O>11       0.1298
  15 F1       -3.4655    -6.1327    -3.0624  F       1  <O>11      -0.2051
  16 C12      -1.2358   -10.8050    -4.9328  C.ar    1  <O>11       0.0138
  17 C13      -0.3521   -11.7274    -4.3617  C.ar    1  <O>11       0.1670
  18 N1       -0.8483   -13.0134    -3.9414  N.4     1  <O>11       0.0097
  19 O4       -0.1543   -14.0598    -4.6649  O.2     1  <O>11      -0.1299
  20 O5       -2.2696   -13.0968    -4.2153  O.2     1  <O>11      -0.3960
  21 C14       0.9977   -11.4130    -4.1980  C.ar    1  <O>11       0.1610
  22 O6        1.8176   -12.2683    -3.6762  O.3     1  <O>11      -0.5037
  23 H1        2.9041   -10.6687    -2.7201  H       1  <O>11       0.2954
  24 H2       -2.0662    -8.4056    -3.9135  H       1  <O>11       0.0749
  25 H3       -3.3978    -8.0919    -5.0511  H       1  <O>11       0.0749
  26 H4        2.7066   -11.8837    -3.6395  H       1  <O>11       0.2923
  27 H5        0.9453    -8.3124    -5.4886  H       1  <O>11       0.0663
  28 H6       -0.6271    -6.6788    -6.5246  H       1  <O>11       0.0622
  29 H7       -0.0352    -4.3255    -6.5323  H       1  <O>11       0.0618
  30 H8       -1.0347    -2.8085    -4.9159  H       1  <O>11       0.0618
  31 H9       -2.6355    -3.6580    -3.2977  H       1  <O>11       0.0646
  32 H10      -2.2328   -11.0443    -5.0499  H       1  <O>11       0.0678
  33 H11      -2.8595   -12.4856    -3.8198  H       1  <O>11       0.3292
@<TRIPOS>BOND
     1     1     2    2
     2     2     3    1
     3     2     4    1
     4     4     5   ar
     5     5     6   ar
     6     6     7    1
     7     7     8    1
     8     8     9    1
     9     9    10   ar
    10    10    11   ar
    11    11    12   ar
    12    12    13   ar
    13    13    14   ar
    14     9    14   ar
    15    14    15    1
    16     6    16   ar
    17    16    17   ar
    18    17    18    1
    19    18    19    2
    20    18    20    1
    21    17    21   ar
    22     4    21   ar
    23    21    22    1
    24     3    23    1
    25     8    24    1
    26     8    25    1
    27    22    26    1
    28     5    27    1
    29    10    28    1
    30    11    29    1
    31    12    30    1
    32    13    31    1
    33    16    32    1
    34    20    33    1
@<TRIPOS>MOLECULE
mol46_1_29
 33 34 0 0 0
SMALL
USER_CHARGES
****
VDW energy = 207.84
@<TRIPOS>ATOM
   1 O1        3.4420    -9.1855    -5.2979  O.2     1  <O>11      -0.2450
   2 C1        2.8552    -9.8129    -4.4288  C.2     1  <O>11       0.3405
   3 O2        3.5096   -10.1823    -3.3012  O.3     1  <O>11      -0.4770
   4 C2        1.4620   -10.1610    -4.6040  C.ar    1  <O>11       0.1058
   5 C3        1.0120   -10.5683    -5.8623  C.ar    1  <O>11      -0.0023
   6 C4       -0.3367   -10.8946    -6.0422  C.ar    1  <O>11       0.1242
   7 O3       -0.7807   -11.2889    -7.2725  O.3     1  <O>11      -0.4872
   8 C5       -0.5472   -10.2544    -8.2140  C.3     1  <O>11       0.1173
   9 C6        0.4204   -10.7260    -9.2384  C.ar    1  <O>11       0.0248
  10 C7        0.9507   -12.0260    -9.1682  C.ar    1  <O>11      -0.0526
  11 C8        1.8703   -12.4640   -10.1264  C.ar    1  <O>11      -0.0612
  12 C9        2.2670   -11.6137   -11.1624  C.ar    1  <O>11      -0.0590
  13 C10       1.7340   -10.3220   -11.2353  C.ar    1  <O>11      -0.0261
  14 C11       0.8145    -9.8755   -10.2860  C.ar    1  <O>11       0.1298
  15 F1        0.2865    -8.6123   -10.3623  F       1  <O>11      -0.2051
  16 C12      -1.2280   -10.8179    -4.9689  C.ar    1  <O>11       0.0138
  17 C13      -0.7616   -10.4151    -3.7128  C.ar    1  <O>11       0.1670
  18 N1       -1.6841   -10.3393    -2.6083  N.4     1  <O>11       0.0097
  19 O4       -1.2513   -11.2347    -1.5541  O.2     1  <O>11      -0.1299
  20 O5       -3.0082   -10.7240    -3.0563  O.2     1  <O>11      -0.3960
  21 C14       0.5820   -10.0891    -3.5231  C.ar    1  <O>11       0.1610
  22 O6        1.0161    -9.7230    -2.3596  O.3     1  <O>11      -0.5037
  23 H1        2.9041   -10.6687    -2.7201  H       1  <O>11       0.2954
  24 H2       -0.1394    -9.3828    -7.7027  H       1  <O>11       0.0749
  25 H3       -1.4862    -9.9849    -8.6974  H       1  <O>11       0.0749
  26 H4        1.9658    -9.5362    -2.4125  H       1  <O>11       0.2923
  27 H5        1.6706   -10.6282    -6.6546  H       1  <O>11       0.0663
  28 H6        0.6604   -12.6593    -8.4069  H       1  <O>11       0.0622
  29 H7        2.2575   -13.4188   -10.0685  H       1  <O>11       0.0618
  30 H8        2.9476   -11.9360   -11.8679  H       1  <O>11       0.0618
  31 H9        2.0243    -9.6926   -11.9999  H       1  <O>11       0.0646
  32 H10      -2.2232   -11.0568    -5.1017  H       1  <O>11       0.0678
  33 H11      -3.4308   -10.2402    -3.7385  H       1  <O>11       0.3292
@<TRIPOS>BOND
     1     1     2    2
     2     2     3    1
     3     2     4    1
     4     4     5   ar
     5     5     6   ar
     6     6     7    1
     7     7     8    1
     8     8     9    1
     9     9    10   ar
    10    10    11   ar
    11    11    12   ar
    12    12    13   ar
    13    13    14   ar
    14     9    14   ar
    15    14    15    1
    16     6    16   ar
    17    16    17   ar
    18    17    18    1
    19    18    19    2
    20    18    20    1
    21    17    21   ar
    22     4    21   ar
    23    21    22    1
    24     3    23    1
    25     8    24    1
    26     8    25    1
    27    22    26    1
    28     5    27    1
    29    10    28    1
    30    11    29    1
    31    12    30    1
    32    13    31    1
    33    16    32    1
    34    20    33    1
@<TRIPOS>MOLECULE
mol46_1_30
 33 34 0 0 0
SMALL
USER_CHARGES
****
VDW energy = 208.28
@<TRIPOS>ATOM
   1 O1        3.4420    -9.1855    -5.2979  O.2     1  <O>11      -0.2450
   2 C1        2.8552    -9.8129    -4.4288  C.2     1  <O>11       0.3405
   3 O2        3.5096   -10.1823    -3.3012  O.3     1  <O>11      -0.4770
   4 C2        1.4620   -10.1610    -4.6040  C.ar    1  <O>11       0.1058
   5 C3        0.5927    -9.2326    -5.1822  C.ar    1  <O>11      -0.0023
   6 C4       -0.7586    -9.5576    -5.3434  C.ar    1  <O>11       0.1242
   7 O3       -1.6121    -8.6503    -5.9043  O.3     1  <O>11      -0.4872
   8 C5       -2.3273    -7.9777    -4.8810  C.3     1  <O>11       0.1173
   9 C6       -3.1055    -8.9654    -4.0891  C.ar    1  <O>11       0.0248
  10 C7       -2.5416    -9.5622    -2.9480  C.ar    1  <O>11      -0.0526
  11 C8       -3.2711   -10.5003    -2.2109  C.ar    1  <O>11      -0.0612
  12 C9       -4.5669   -10.8495    -2.6014  C.ar    1  <O>11      -0.0590
  13 C10      -5.1299   -10.2504    -3.7336  C.ar    1  <O>11      -0.0261
  14 C11      -4.4120    -9.3120    -4.4751  C.ar    1  <O>11       0.1298
  15 F1       -4.9670    -8.7193    -5.5800  F       1  <O>11      -0.2051
  16 C12      -1.2358   -10.8050    -4.9328  C.ar    1  <O>11       0.0138
  17 C13      -0.3521   -11.7274    -4.3617  C.ar    1  <O>11       0.1670
  18 N1       -0.8483   -13.0134    -3.9414  N.4     1  <O>11       0.0097
  19 O4       -1.4297   -13.7021    -5.0762  O.2     1  <O>11      -0.1299
  20 O5       -1.8580   -12.8313    -2.9170  O.2     1  <O>11      -0.3960
  21 C14       0.9977   -11.4130    -4.1980  C.ar    1  <O>11       0.1610
  22 O6        1.8176   -12.2683    -3.6762  O.3     1  <O>11      -0.5037
  23 H1        2.9041   -10.6687    -2.7201  H       1  <O>11       0.2954
  24 H2       -3.0076    -7.2536    -5.3285  H       1  <O>11       0.0749
  25 H3       -1.6251    -7.4599    -4.2276  H       1  <O>11       0.0749
  26 H4        2.7066   -11.8837    -3.6395  H       1  <O>11       0.2923
  27 H5        0.9453    -8.3124    -5.4886  H       1  <O>11       0.0663
  28 H6       -1.5861    -9.3071    -2.6534  H       1  <O>11       0.0622
  29 H7       -2.8511   -10.9364    -1.3752  H       1  <O>11       0.0618
  30 H8       -5.1042   -11.5438    -2.0588  H       1  <O>11       0.0618
  31 H9       -6.0870   -10.5057    -4.0233  H       1  <O>11       0.0646
  32 H10      -2.2328   -11.0443    -5.0499  H       1  <O>11       0.0678
  33 H11      -1.6390   -12.3994    -2.1148  H       1  <O>11       0.3292
@<TRIPOS>BOND
     1     1     2    2
     2     2     3    1
     3     2     4    1
     4     4     5   ar
     5     5     6   ar
     6     6     7    1
     7     7     8    1
     8     8     9    1
     9     9    10   ar
    10    10    11   ar
    11    11    12   ar
    12    12    13   ar
    13    13    14   ar
    14     9    14   ar
    15    14    15    1
    16     6    16   ar
    17    16    17   ar
    18    17    18    1
    19    18    19    2
    20    18    20    1
    21    17    21   ar
    22     4    21   ar
    23    21    22    1
    24     3    23    1
    25     8    24    1
    26     8    25    1
    27    22    26    1
    28     5    27    1
    29    10    28    1
    30    11    29    1
    31    12    30    1
    32    13    31    1
    33    16    32    1
    34    20    33    1
