@<TRIPOS>MOLECULE
mol41_1_1
 32 33 0 0 0
SMALL
USER_CHARGES
****
VDW energy = 128.26
@<TRIPOS>ATOM
   1 C1        2.8832    -9.8059    -4.4252  C.3     1  <O>11      -0.0397
   2 C2        1.4617   -10.1611    -4.6036  C.ar    1  <O>11      -0.0504
   3 C3        0.8050   -10.8783    -3.6012  C.ar    1  <O>11      -0.0582
   4 C4       -0.5391   -11.2290    -3.7692  C.ar    1  <O>11      -0.0507
   5 C5       -1.2224   -10.8607    -4.9311  C.ar    1  <O>11       0.0223
   6 C6       -2.6120   -11.2220    -5.1120  C.2     1  <O>11       0.1933
   7 O1       -3.4898   -10.5552    -4.5844  O.2     1  <O>11      -0.2867
   8 C7       -2.9644   -12.3813    -5.9211  C.ar    1  <O>11       0.0281
   9 C8       -2.6998   -13.6794    -5.4526  C.ar    1  <O>11      -0.0056
  10 C9       -3.0271   -14.7917    -6.2351  C.ar    1  <O>11       0.1612
  11 O2       -2.7784   -15.9832    -5.7956  O.3     1  <O>11      -0.5032
  12 C10      -3.6223   -14.6209    -7.4879  C.ar    1  <O>11       0.1889
  13 O3       -3.9235   -15.6455    -8.2182  O.3     1  <O>11      -0.5018
  14 C11      -3.8906   -13.3284    -7.9505  C.ar    1  <O>11       0.1671
  15 N1       -4.5062   -13.1565    -9.2424  N.4     1  <O>11       0.0097
  16 O4       -5.9110   -13.5051    -9.1592  O.2     1  <O>11      -0.1299
  17 O5       -3.8492   -14.0159   -10.2084  O.2     1  <O>11      -0.3960
  18 C12      -3.5714   -12.2123    -7.1772  C.ar    1  <O>11      -0.0169
  19 C13      -0.5527   -10.1366    -5.9237  C.ar    1  <O>11      -0.0507
  20 C14       0.7874    -9.7806    -5.7650  C.ar    1  <O>11      -0.0582
  21 H1        3.2314    -9.2521    -5.2971  H       1  <O>11       0.0278
  22 H2        3.4736   -10.7152    -4.3128  H       1  <O>11       0.0278
  23 H3        2.9942    -9.1880    -3.5342  H       1  <O>11       0.0278
  24 H4       -3.0625   -16.6380    -6.4523  H       1  <O>11       0.2923
  25 H5       -4.3251   -15.3440    -9.0482  H       1  <O>11       0.2924
  26 H6        1.3082   -11.1481    -2.7415  H       1  <O>11       0.0620
  27 H7       -1.0275   -11.7615    -3.0324  H       1  <O>11       0.0625
  28 H8       -2.2623   -13.8127    -4.5274  H       1  <O>11       0.0662
  29 H9       -2.9331   -13.9157   -10.3779  H       1  <O>11       0.3292
  30 H10      -3.7806   -11.2641    -7.5269  H       1  <O>11       0.0649
  31 H11      -1.0552    -9.8628    -6.7825  H       1  <O>11       0.0625
  32 H12       1.2744    -9.2420    -6.4983  H       1  <O>11       0.0620
@<TRIPOS>BOND
     1     1     2    1
     2     2     3   ar
     3     3     4   ar
     4     4     5   ar
     5     5     6    1
     6     6     7    2
     7     6     8    1
     8     8     9   ar
     9     9    10   ar
    10    10    11    1
    11    10    12   ar
    12    12    13    1
    13    12    14   ar
    14    14    15    1
    15    15    16    2
    16    15    17    1
    17    14    18   ar
    18     8    18   ar
    19     5    19   ar
    20    19    20   ar
    21     2    20   ar
    22     1    21    1
    23     1    22    1
    24     1    23    1
    25    11    24    1
    26    13    25    1
    27     3    26    1
    28     4    27    1
    29     9    28    1
    30    17    29    1
    31    18    30    1
    32    19    31    1
    33    20    32    1
@<TRIPOS>MOLECULE
mol41_1_2
 32 33 0 0 0
SMALL
USER_CHARGES
****
VDW energy = 128.76
@<TRIPOS>ATOM
   1 C1        2.8832    -9.8059    -4.4252  C.3     1  <O>11      -0.0397
   2 C2        1.4617   -10.1611    -4.6036  C.ar    1  <O>11      -0.0504
   3 C3        0.8050   -10.8783    -3.6012  C.ar    1  <O>11      -0.0582
   4 C4       -0.5391   -11.2290    -3.7692  C.ar    1  <O>11      -0.0507
   5 C5       -1.2224   -10.8607    -4.9311  C.ar    1  <O>11       0.0223
   6 C6       -2.6120   -11.2220    -5.1120  C.2     1  <O>11       0.1933
   7 O1       -3.4898   -10.5552    -4.5844  O.2     1  <O>11      -0.2867
   8 C7       -2.9644   -12.3813    -5.9211  C.ar    1  <O>11       0.0281
   9 C8       -3.0809   -13.6501    -5.3286  C.ar    1  <O>11      -0.0056
  10 C9       -3.4072   -14.7649    -6.1080  C.ar    1  <O>11       0.1612
  11 O2       -3.5110   -15.9296    -5.5534  O.3     1  <O>11      -0.5032
  12 C10      -3.6226   -14.6252    -7.4816  C.ar    1  <O>11       0.1889
  13 O3       -3.9205   -15.6531    -8.2086  O.3     1  <O>11      -0.5018
  14 C11      -3.5122   -13.3606    -8.0692  C.ar    1  <O>11       0.1671
  15 N1       -3.7369   -13.2203    -9.4860  N.4     1  <O>11       0.0097
  16 O4       -5.1570   -13.3134    -9.7622  O.2     1  <O>11      -0.1299
  17 O5       -3.0348   -14.2744   -10.1927  O.2     1  <O>11      -0.3960
  18 C12      -3.1905   -12.2417    -7.3010  C.ar    1  <O>11      -0.0169
  19 C13      -0.5527   -10.1366    -5.9237  C.ar    1  <O>11      -0.0507
  20 C14       0.7874    -9.7806    -5.7650  C.ar    1  <O>11      -0.0582
  21 H1        3.2314    -9.2521    -5.2971  H       1  <O>11       0.0278
  22 H2        3.4736   -10.7152    -4.3128  H       1  <O>11       0.0278
  23 H3        2.9942    -9.1880    -3.5342  H       1  <O>11       0.0278
  24 H4       -3.7402   -16.5905    -6.2253  H       1  <O>11       0.2923
  25 H5       -4.0339   -15.3747    -9.1309  H       1  <O>11       0.2924
  26 H6        1.3082   -11.1481    -2.7415  H       1  <O>11       0.0620
  27 H7       -1.0275   -11.7615    -3.0324  H       1  <O>11       0.0625
  28 H8       -2.9252   -13.7600    -4.3143  H       1  <O>11       0.0662
  29 H9       -2.1040   -14.3502   -10.1165  H       1  <O>11       0.3292
  30 H10      -3.1187   -11.3129    -7.7453  H       1  <O>11       0.0649
  31 H11      -1.0552    -9.8628    -6.7825  H       1  <O>11       0.0625
  32 H12       1.2744    -9.2420    -6.4983  H       1  <O>11       0.0620
@<TRIPOS>BOND
     1     1     2    1
     2     2     3   ar
     3     3     4   ar
     4     4     5   ar
     5     5     6    1
     6     6     7    2
     7     6     8    1
     8     8     9   ar
     9     9    10   ar
    10    10    11    1
    11    10    12   ar
    12    12    13    1
    13    12    14   ar
    14    14    15    1
    15    15    16    2
    16    15    17    1
    17    14    18   ar
    18     8    18   ar
    19     5    19   ar
    20    19    20   ar
    21     2    20   ar
    22     1    21    1
    23     1    22    1
    24     1    23    1
    25    11    24    1
    26    13    25    1
    27     3    26    1
    28     4    27    1
    29     9    28    1
    30    17    29    1
    31    18    30    1
    32    19    31    1
    33    20    32    1
@<TRIPOS>MOLECULE
mol41_1_3
 32 33 0 0 0
SMALL
USER_CHARGES
****
VDW energy = 133.00
@<TRIPOS>ATOM
   1 C1        2.8832    -9.8059    -4.4252  C.3     1  <O>11      -0.0397
   2 C2        1.4617   -10.1611    -4.6036  C.ar    1  <O>11      -0.0504
   3 C3        0.8050   -10.8783    -3.6012  C.ar    1  <O>11      -0.0582
   4 C4       -0.5391   -11.2290    -3.7692  C.ar    1  <O>11      -0.0507
   5 C5       -1.2224   -10.8607    -4.9311  C.ar    1  <O>11       0.0223
   6 C6       -2.6120   -11.2220    -5.1120  C.2     1  <O>11       0.1933
   7 O1       -2.9026   -12.2797    -5.6508  O.2     1  <O>11      -0.2867
   8 C7       -3.6642   -10.3244    -4.6538  C.ar    1  <O>11       0.0281
   9 C8       -3.9039    -9.1128    -5.3241  C.ar    1  <O>11      -0.0056
  10 C9       -4.9060    -8.2457    -4.8763  C.ar    1  <O>11       0.1612
  11 O2       -5.1184    -7.1316    -5.4996  O.3     1  <O>11      -0.5032
  12 C10      -5.6785    -8.5786    -3.7605  C.ar    1  <O>11       0.1889
  13 O3       -6.6040    -7.7788    -3.3389  O.3     1  <O>11      -0.5018
  14 C11      -5.4430    -9.7876    -3.0978  C.ar    1  <O>11       0.1671
  15 N1       -6.2431   -10.1282    -1.9483  N.4     1  <O>11       0.0097
  16 O4       -7.6480   -10.0631    -2.3003  O.2     1  <O>11      -0.1299
  17 O5       -5.9680    -9.1930    -0.8745  O.2     1  <O>11      -0.3960
  18 C12      -4.4485   -10.6613    -3.5375  C.ar    1  <O>11      -0.0169
  19 C13      -0.5527   -10.1366    -5.9237  C.ar    1  <O>11      -0.0507
  20 C14       0.7874    -9.7806    -5.7650  C.ar    1  <O>11      -0.0582
  21 H1        3.2314    -9.2521    -5.2971  H       1  <O>11       0.0278
  22 H2        3.4736   -10.7152    -4.3128  H       1  <O>11       0.0278
  23 H3        2.9942    -9.1880    -3.5342  H       1  <O>11       0.0278
  24 H4       -5.8400    -6.6492    -5.0666  H       1  <O>11       0.2923
  25 H5       -7.0359    -8.1656    -2.5613  H       1  <O>11       0.2924
  26 H6        1.3082   -11.1481    -2.7415  H       1  <O>11       0.0620
  27 H7       -1.0275   -11.7615    -3.0324  H       1  <O>11       0.0625
  28 H8       -3.3384    -8.8618    -6.1501  H       1  <O>11       0.0662
  29 H9       -5.0994    -9.1153    -0.5319  H       1  <O>11       0.3292
  30 H10      -4.2890   -11.5535    -3.0439  H       1  <O>11       0.0649
  31 H11      -1.0552    -9.8628    -6.7825  H       1  <O>11       0.0625
  32 H12       1.2744    -9.2420    -6.4983  H       1  <O>11       0.0620
@<TRIPOS>BOND
     1     1     2    1
     2     2     3   ar
     3     3     4   ar
     4     4     5   ar
     5     5     6    1
     6     6     7    2
     7     6     8    1
     8     8     9   ar
     9     9    10   ar
    10    10    11    1
    11    10    12   ar
    12    12    13    1
    13    12    14   ar
    14    14    15    1
    15    15    16    2
    16    15    17    1
    17    14    18   ar
    18     8    18   ar
    19     5    19   ar
    20    19    20   ar
    21     2    20   ar
    22     1    21    1
    23     1    22    1
    24     1    23    1
    25    11    24    1
    26    13    25    1
    27     3    26    1
    28     4    27    1
    29     9    28    1
    30    17    29    1
    31    18    30    1
    32    19    31    1
    33    20    32    1
@<TRIPOS>MOLECULE
mol41_1_4
 32 33 0 0 0
SMALL
USER_CHARGES
****
VDW energy = 135.12
@<TRIPOS>ATOM
   1 C1        2.8832    -9.8059    -4.4252  C.3     1  <O>11      -0.0397
   2 C2        1.4617   -10.1611    -4.6036  C.ar    1  <O>11      -0.0504
   3 C3        0.8050   -10.8783    -3.6012  C.ar    1  <O>11      -0.0582
   4 C4       -0.5391   -11.2290    -3.7692  C.ar    1  <O>11      -0.0507
   5 C5       -1.2224   -10.8607    -4.9311  C.ar    1  <O>11       0.0223
   6 C6       -2.6120   -11.2220    -5.1120  C.2     1  <O>11       0.1933
   7 O1       -2.9026   -12.2797    -5.6508  O.2     1  <O>11      -0.2867
   8 C7       -3.6642   -10.3244    -4.6538  C.ar    1  <O>11       0.0281
   9 C8       -4.1739   -10.4375    -3.3491  C.ar    1  <O>11      -0.0056
  10 C9       -5.1926    -9.5836    -2.9138  C.ar    1  <O>11       0.1612
  11 O2       -5.6564    -9.6963    -1.7108  O.3     1  <O>11      -0.5032
  12 C10      -5.7097    -8.6094    -3.7718  C.ar    1  <O>11       0.1889
  13 O3       -6.6550    -7.8194    -3.3764  O.3     1  <O>11      -0.5018
  14 C11      -5.1974    -8.4938    -5.0682  C.ar    1  <O>11       0.1671
  15 N1       -5.7322    -7.4866    -5.9497  N.4     1  <O>11       0.0097
  16 O4       -5.6528    -6.1896    -5.3068  O.2     1  <O>11      -0.1299
  17 O5       -7.1169    -7.7949    -6.2511  O.2     1  <O>11      -0.3960
  18 C12      -4.1794    -9.3379    -5.5118  C.ar    1  <O>11      -0.0169
  19 C13      -0.5527   -10.1366    -5.9237  C.ar    1  <O>11      -0.0507
  20 C14       0.7874    -9.7806    -5.7650  C.ar    1  <O>11      -0.0582
  21 H1        3.2314    -9.2521    -5.2971  H       1  <O>11       0.0278
  22 H2        3.4736   -10.7152    -4.3128  H       1  <O>11       0.0278
  23 H3        2.9942    -9.1880    -3.5342  H       1  <O>11       0.0278
  24 H4       -6.3527    -9.0364    -1.5675  H       1  <O>11       0.2923
  25 H5       -6.8899    -7.2115    -4.0950  H       1  <O>11       0.2924
  26 H6        1.3082   -11.1481    -2.7415  H       1  <O>11       0.0620
  27 H7       -1.0275   -11.7615    -3.0324  H       1  <O>11       0.0625
  28 H8       -3.7950   -11.1535    -2.7096  H       1  <O>11       0.0662
  29 H9       -7.3362    -8.6037    -6.6705  H       1  <O>11       0.3292
  30 H10      -3.8052    -9.2381    -6.4684  H       1  <O>11       0.0649
  31 H11      -1.0552    -9.8628    -6.7825  H       1  <O>11       0.0625
  32 H12       1.2744    -9.2420    -6.4983  H       1  <O>11       0.0620
@<TRIPOS>BOND
     1     1     2    1
     2     2     3   ar
     3     3     4   ar
     4     4     5   ar
     5     5     6    1
     6     6     7    2
     7     6     8    1
     8     8     9   ar
     9     9    10   ar
    10    10    11    1
    11    10    12   ar
    12    12    13    1
    13    12    14   ar
    14    14    15    1
    15    15    16    2
    16    15    17    1
    17    14    18   ar
    18     8    18   ar
    19     5    19   ar
    20    19    20   ar
    21     2    20   ar
    22     1    21    1
    23     1    22    1
    24     1    23    1
    25    11    24    1
    26    13    25    1
    27     3    26    1
    28     4    27    1
    29     9    28    1
    30    17    29    1
    31    18    30    1
    32    19    31    1
    33    20    32    1
@<TRIPOS>MOLECULE
mol41_1_5
 32 33 0 0 0
SMALL
USER_CHARGES
****
VDW energy = 136.95
@<TRIPOS>ATOM
   1 C1        2.8832    -9.8059    -4.4252  C.3     1  <O>11      -0.0397
   2 C2        1.4617   -10.1611    -4.6036  C.ar    1  <O>11      -0.0504
   3 C3        0.8050   -10.8783    -3.6012  C.ar    1  <O>11      -0.0582
   4 C4       -0.5391   -11.2290    -3.7692  C.ar    1  <O>11      -0.0507
   5 C5       -1.2224   -10.8607    -4.9311  C.ar    1  <O>11       0.0223
   6 C6       -2.6120   -11.2220    -5.1120  C.2     1  <O>11       0.1933
   7 O1       -3.4898   -10.5552    -4.5844  O.2     1  <O>11      -0.2867
   8 C7       -2.9644   -12.3813    -5.9211  C.ar    1  <O>11       0.0281
   9 C8       -4.3120   -12.7371    -6.1005  C.ar    1  <O>11      -0.0056
  10 C9       -4.6492   -13.8574    -6.8672  C.ar    1  <O>11       0.1612
  11 O2       -5.8930   -14.1779    -7.0256  O.3     1  <O>11      -0.5032
  12 C10      -3.6489   -14.6300    -7.4632  C.ar    1  <O>11       0.1889
  13 O3       -3.9542   -15.6697    -8.1701  O.3     1  <O>11      -0.5018
  14 C11      -2.3083   -14.2712    -7.2889  C.ar    1  <O>11       0.1671
  15 N1       -1.2795   -15.0696    -7.9067  N.4     1  <O>11       0.0097
  16 O4       -1.2495   -14.8021    -9.3313  O.2     1  <O>11      -0.1299
  17 O5       -1.5593   -16.4749    -7.6826  O.2     1  <O>11      -0.3960
  18 C12      -1.9607   -13.1544    -6.5291  C.ar    1  <O>11      -0.0169
  19 C13      -0.5527   -10.1366    -5.9237  C.ar    1  <O>11      -0.0507
  20 C14       0.7874    -9.7806    -5.7650  C.ar    1  <O>11      -0.0582
  21 H1        3.2314    -9.2521    -5.2971  H       1  <O>11       0.0278
  22 H2        3.4736   -10.7152    -4.3128  H       1  <O>11       0.0278
  23 H3        2.9942    -9.1880    -3.5342  H       1  <O>11       0.0278
  24 H4       -5.9563   -14.9725    -7.5783  H       1  <O>11       0.2923
  25 H5       -3.1428   -16.0830    -8.5044  H       1  <O>11       0.2924
  26 H6        1.3082   -11.1481    -2.7415  H       1  <O>11       0.0620
  27 H7       -1.0275   -11.7615    -3.0324  H       1  <O>11       0.0625
  28 H8       -5.0558   -12.1697    -5.6648  H       1  <O>11       0.0662
  29 H9       -1.6119   -16.8086    -6.8086  H       1  <O>11       0.3292
  30 H10      -0.9682   -12.8962    -6.4135  H       1  <O>11       0.0649
  31 H11      -1.0552    -9.8628    -6.7825  H       1  <O>11       0.0625
  32 H12       1.2744    -9.2420    -6.4983  H       1  <O>11       0.0620
@<TRIPOS>BOND
     1     1     2    1
     2     2     3   ar
     3     3     4   ar
     4     4     5   ar
     5     5     6    1
     6     6     7    2
     7     6     8    1
     8     8     9   ar
     9     9    10   ar
    10    10    11    1
    11    10    12   ar
    12    12    13    1
    13    12    14   ar
    14    14    15    1
    15    15    16    2
    16    15    17    1
    17    14    18   ar
    18     8    18   ar
    19     5    19   ar
    20    19    20   ar
    21     2    20   ar
    22     1    21    1
    23     1    22    1
    24     1    23    1
    25    11    24    1
    26    13    25    1
    27     3    26    1
    28     4    27    1
    29     9    28    1
    30    17    29    1
    31    18    30    1
    32    19    31    1
    33    20    32    1
@<TRIPOS>MOLECULE
mol41_1_6
 32 33 0 0 0
SMALL
USER_CHARGES
****
VDW energy = 142.63
@<TRIPOS>ATOM
   1 C1        2.8832    -9.8059    -4.4252  C.3     1  <O>11      -0.0397
   2 C2        1.4617   -10.1611    -4.6036  C.ar    1  <O>11      -0.0504
   3 C3        0.8050   -10.8783    -3.6012  C.ar    1  <O>11      -0.0582
   4 C4       -0.5391   -11.2290    -3.7692  C.ar    1  <O>11      -0.0507
   5 C5       -1.2224   -10.8607    -4.9311  C.ar    1  <O>11       0.0223
   6 C6       -2.6120   -11.2220    -5.1120  C.2     1  <O>11       0.1933
   7 O1       -2.9026   -12.2797    -5.6508  O.2     1  <O>11      -0.2867
   8 C7       -3.6642   -10.3244    -4.6538  C.ar    1  <O>11       0.0281
   9 C8       -4.1739   -10.4375    -3.3491  C.ar    1  <O>11      -0.0056
  10 C9       -5.1926    -9.5836    -2.9138  C.ar    1  <O>11       0.1612
  11 O2       -5.6564    -9.6963    -1.7108  O.3     1  <O>11      -0.5032
  12 C10      -5.7097    -8.6094    -3.7718  C.ar    1  <O>11       0.1889
  13 O3       -6.6550    -7.8194    -3.3764  O.3     1  <O>11      -0.5018
  14 C11      -5.1974    -8.4938    -5.0682  C.ar    1  <O>11       0.1671
  15 N1       -5.7322    -7.4866    -5.9497  N.4     1  <O>11       0.0097
  16 O4       -5.1544    -7.6431    -7.2701  O.2     1  <O>11      -0.1299
  17 O5       -5.4094    -6.1710    -5.4315  O.2     1  <O>11      -0.3960
  18 C12      -4.1794    -9.3379    -5.5118  C.ar    1  <O>11      -0.0169
  19 C13      -0.5527   -10.1366    -5.9237  C.ar    1  <O>11      -0.0507
  20 C14       0.7874    -9.7806    -5.7650  C.ar    1  <O>11      -0.0582
  21 H1        3.2314    -9.2521    -5.2971  H       1  <O>11       0.0278
  22 H2        3.4736   -10.7152    -4.3128  H       1  <O>11       0.0278
  23 H3        2.9942    -9.1880    -3.5342  H       1  <O>11       0.0278
  24 H4       -6.3527    -9.0364    -1.5675  H       1  <O>11       0.2923
  25 H5       -6.8899    -7.2115    -4.0950  H       1  <O>11       0.2924
  26 H6        1.3082   -11.1481    -2.7415  H       1  <O>11       0.0620
  27 H7       -1.0275   -11.7615    -3.0324  H       1  <O>11       0.0625
  28 H8       -3.7950   -11.1535    -2.7096  H       1  <O>11       0.0662
  29 H9       -5.7124    -5.9145    -4.5828  H       1  <O>11       0.3292
  30 H10      -3.8052    -9.2381    -6.4684  H       1  <O>11       0.0649
  31 H11      -1.0552    -9.8628    -6.7825  H       1  <O>11       0.0625
  32 H12       1.2744    -9.2420    -6.4983  H       1  <O>11       0.0620
@<TRIPOS>BOND
     1     1     2    1
     2     2     3   ar
     3     3     4   ar
     4     4     5   ar
     5     5     6    1
     6     6     7    2
     7     6     8    1
     8     8     9   ar
     9     9    10   ar
    10    10    11    1
    11    10    12   ar
    12    12    13    1
    13    12    14   ar
    14    14    15    1
    15    15    16    2
    16    15    17    1
    17    14    18   ar
    18     8    18   ar
    19     5    19   ar
    20    19    20   ar
    21     2    20   ar
    22     1    21    1
    23     1    22    1
    24     1    23    1
    25    11    24    1
    26    13    25    1
    27     3    26    1
    28     4    27    1
    29     9    28    1
    30    17    29    1
    31    18    30    1
    32    19    31    1
    33    20    32    1
@<TRIPOS>MOLECULE
mol41_1_7
 32 33 0 0 0
SMALL
USER_CHARGES
****
VDW energy = 143.66
@<TRIPOS>ATOM
   1 C1        2.8832    -9.8059    -4.4252  C.3     1  <O>11      -0.0397
   2 C2        1.4617   -10.1611    -4.6036  C.ar    1  <O>11      -0.0504
   3 C3        0.8050   -10.8783    -3.6012  C.ar    1  <O>11      -0.0582
   4 C4       -0.5391   -11.2290    -3.7692  C.ar    1  <O>11      -0.0507
   5 C5       -1.2224   -10.8607    -4.9311  C.ar    1  <O>11       0.0223
   6 C6       -2.6120   -11.2220    -5.1120  C.2     1  <O>11       0.1933
   7 O1       -2.9026   -12.2797    -5.6508  O.2     1  <O>11      -0.2867
   8 C7       -3.6642   -10.3244    -4.6538  C.ar    1  <O>11       0.0281
   9 C8       -4.1739   -10.4375    -3.3491  C.ar    1  <O>11      -0.0056
  10 C9       -5.1926    -9.5836    -2.9138  C.ar    1  <O>11       0.1612
  11 O2       -5.6564    -9.6963    -1.7108  O.3     1  <O>11      -0.5032
  12 C10      -5.7097    -8.6094    -3.7718  C.ar    1  <O>11       0.1889
  13 O3       -6.6550    -7.8194    -3.3764  O.3     1  <O>11      -0.5018
  14 C11      -5.1974    -8.4938    -5.0682  C.ar    1  <O>11       0.1671
  15 N1       -5.7322    -7.4866    -5.9497  N.4     1  <O>11       0.0097
  16 O4       -5.6385    -7.9453    -7.3217  O.2     1  <O>11      -0.1299
  17 O5       -4.9752    -6.2591    -5.7955  O.2     1  <O>11      -0.3960
  18 C12      -4.1794    -9.3379    -5.5118  C.ar    1  <O>11      -0.0169
  19 C13      -0.5527   -10.1366    -5.9237  C.ar    1  <O>11      -0.0507
  20 C14       0.7874    -9.7806    -5.7650  C.ar    1  <O>11      -0.0582
  21 H1        3.2314    -9.2521    -5.2971  H       1  <O>11       0.0278
  22 H2        3.4736   -10.7152    -4.3128  H       1  <O>11       0.0278
  23 H3        2.9942    -9.1880    -3.5342  H       1  <O>11       0.0278
  24 H4       -6.3527    -9.0364    -1.5675  H       1  <O>11       0.2923
  25 H5       -6.8899    -7.2115    -4.0950  H       1  <O>11       0.2924
  26 H6        1.3082   -11.1481    -2.7415  H       1  <O>11       0.0620
  27 H7       -1.0275   -11.7615    -3.0324  H       1  <O>11       0.0625
  28 H8       -3.7950   -11.1535    -2.7096  H       1  <O>11       0.0662
  29 H9       -4.9368    -5.8340    -4.9614  H       1  <O>11       0.3292
  30 H10      -3.8052    -9.2381    -6.4684  H       1  <O>11       0.0649
  31 H11      -1.0552    -9.8628    -6.7825  H       1  <O>11       0.0625
  32 H12       1.2744    -9.2420    -6.4983  H       1  <O>11       0.0620
@<TRIPOS>BOND
     1     1     2    1
     2     2     3   ar
     3     3     4   ar
     4     4     5   ar
     5     5     6    1
     6     6     7    2
     7     6     8    1
     8     8     9   ar
     9     9    10   ar
    10    10    11    1
    11    10    12   ar
    12    12    13    1
    13    12    14   ar
    14    14    15    1
    15    15    16    2
    16    15    17    1
    17    14    18   ar
    18     8    18   ar
    19     5    19   ar
    20    19    20   ar
    21     2    20   ar
    22     1    21    1
    23     1    22    1
    24     1    23    1
    25    11    24    1
    26    13    25    1
    27     3    26    1
    28     4    27    1
    29     9    28    1
    30    17    29    1
    31    18    30    1
    32    19    31    1
    33    20    32    1
@<TRIPOS>MOLECULE
mol41_1_8
 32 33 0 0 0
SMALL
USER_CHARGES
****
VDW energy = 143.78
@<TRIPOS>ATOM
   1 C1        2.8832    -9.8059    -4.4252  C.3     1  <O>11      -0.0397
   2 C2        1.4617   -10.1611    -4.6036  C.ar    1  <O>11      -0.0504
   3 C3        0.8050   -10.8783    -3.6012  C.ar    1  <O>11      -0.0582
   4 C4       -0.5391   -11.2290    -3.7692  C.ar    1  <O>11      -0.0507
   5 C5       -1.2224   -10.8607    -4.9311  C.ar    1  <O>11       0.0223
   6 C6       -2.6120   -11.2220    -5.1120  C.2     1  <O>11       0.1933
   7 O1       -3.4898   -10.5552    -4.5844  O.2     1  <O>11      -0.2867
   8 C7       -2.9644   -12.3813    -5.9211  C.ar    1  <O>11       0.0281
   9 C8       -3.1908   -12.2402    -7.3008  C.ar    1  <O>11      -0.0056
  10 C9       -3.5412   -13.3512    -8.0750  C.ar    1  <O>11       0.1612
  11 O2       -3.7488   -13.2111    -9.3446  O.3     1  <O>11      -0.5032
  12 C10      -3.6662   -14.6109    -7.4830  C.ar    1  <O>11       0.1889
  13 O3       -3.9941   -15.6416    -8.1929  O.3     1  <O>11      -0.5018
  14 C11      -3.4347   -14.7511    -6.1107  C.ar    1  <O>11       0.1671
  15 N1       -3.5630   -16.0523    -5.5042  N.4     1  <O>11       0.0097
  16 O4       -3.9853   -15.9038    -4.1253  O.2     1  <O>11      -0.1299
  17 O5       -2.2838   -16.7341    -5.5492  O.2     1  <O>11      -0.3960
  18 C12      -3.0818   -13.6506    -5.3298  C.ar    1  <O>11      -0.0169
  19 C13      -0.5527   -10.1366    -5.9237  C.ar    1  <O>11      -0.0507
  20 C14       0.7874    -9.7806    -5.7650  C.ar    1  <O>11      -0.0582
  21 H1        3.2314    -9.2521    -5.2971  H       1  <O>11       0.0278
  22 H2        3.4736   -10.7152    -4.3128  H       1  <O>11       0.0278
  23 H3        2.9942    -9.1880    -3.5342  H       1  <O>11       0.0278
  24 H4       -3.9813   -14.0690    -9.7329  H       1  <O>11       0.2923
  25 H5       -4.0346   -16.4263    -7.6240  H       1  <O>11       0.2924
  26 H6        1.3082   -11.1481    -2.7415  H       1  <O>11       0.0620
  27 H7       -1.0275   -11.7615    -3.0324  H       1  <O>11       0.0625
  28 H8       -3.0981   -11.3131    -7.7447  H       1  <O>11       0.0662
  29 H9       -1.8739   -16.9071    -6.3739  H       1  <O>11       0.3292
  30 H10      -2.9070   -13.7684    -4.3195  H       1  <O>11       0.0649
  31 H11      -1.0552    -9.8628    -6.7825  H       1  <O>11       0.0625
  32 H12       1.2744    -9.2420    -6.4983  H       1  <O>11       0.0620
@<TRIPOS>BOND
     1     1     2    1
     2     2     3   ar
     3     3     4   ar
     4     4     5   ar
     5     5     6    1
     6     6     7    2
     7     6     8    1
     8     8     9   ar
     9     9    10   ar
    10    10    11    1
    11    10    12   ar
    12    12    13    1
    13    12    14   ar
    14    14    15    1
    15    15    16    2
    16    15    17    1
    17    14    18   ar
    18     8    18   ar
    19     5    19   ar
    20    19    20   ar
    21     2    20   ar
    22     1    21    1
    23     1    22    1
    24     1    23    1
    25    11    24    1
    26    13    25    1
    27     3    26    1
    28     4    27    1
    29     9    28    1
    30    17    29    1
    31    18    30    1
    32    19    31    1
    33    20    32    1
@<TRIPOS>MOLECULE
mol41_1_9
 32 33 0 0 0
SMALL
USER_CHARGES
****
VDW energy = 145.19
@<TRIPOS>ATOM
   1 C1        2.8832    -9.8059    -4.4252  C.3     1  <O>11      -0.0397
   2 C2        1.4617   -10.1611    -4.6036  C.ar    1  <O>11      -0.0504
   3 C3        0.8050   -10.8783    -3.6012  C.ar    1  <O>11      -0.0582
   4 C4       -0.5391   -11.2290    -3.7692  C.ar    1  <O>11      -0.0507
   5 C5       -1.2224   -10.8607    -4.9311  C.ar    1  <O>11       0.0223
   6 C6       -2.6120   -11.2220    -5.1120  C.2     1  <O>11       0.1933
   7 O1       -3.4898   -10.5552    -4.5844  O.2     1  <O>11      -0.2867
   8 C7       -2.9644   -12.3813    -5.9211  C.ar    1  <O>11       0.0281
   9 C8       -2.6998   -13.6794    -5.4526  C.ar    1  <O>11      -0.0056
  10 C9       -3.0271   -14.7917    -6.2351  C.ar    1  <O>11       0.1612
  11 O2       -2.7784   -15.9832    -5.7956  O.3     1  <O>11      -0.5032
  12 C10      -3.6223   -14.6209    -7.4879  C.ar    1  <O>11       0.1889
  13 O3       -3.9235   -15.6455    -8.2182  O.3     1  <O>11      -0.5018
  14 C11      -3.8906   -13.3284    -7.9505  C.ar    1  <O>11       0.1671
  15 N1       -4.5062   -13.1565    -9.2424  N.4     1  <O>11       0.0097
  16 O4       -4.5598   -11.7449    -9.5687  O.2     1  <O>11      -0.1299
  17 O5       -5.8509   -13.6990    -9.2124  O.2     1  <O>11      -0.3960
  18 C12      -3.5714   -12.2123    -7.1772  C.ar    1  <O>11      -0.0169
  19 C13      -0.5527   -10.1366    -5.9237  C.ar    1  <O>11      -0.0507
  20 C14       0.7874    -9.7806    -5.7650  C.ar    1  <O>11      -0.0582
  21 H1        3.2314    -9.2521    -5.2971  H       1  <O>11       0.0278
  22 H2        3.4736   -10.7152    -4.3128  H       1  <O>11       0.0278
  23 H3        2.9942    -9.1880    -3.5342  H       1  <O>11       0.0278
  24 H4       -3.0625   -16.6380    -6.4523  H       1  <O>11       0.2923
  25 H5       -4.3251   -15.3440    -9.0482  H       1  <O>11       0.2924
  26 H6        1.3082   -11.1481    -2.7415  H       1  <O>11       0.0620
  27 H7       -1.0275   -11.7615    -3.0324  H       1  <O>11       0.0625
  28 H8       -2.2623   -13.8127    -4.5274  H       1  <O>11       0.0662
  29 H9       -5.9862   -14.6049    -9.0149  H       1  <O>11       0.3292
  30 H10      -3.7806   -11.2641    -7.5269  H       1  <O>11       0.0649
  31 H11      -1.0552    -9.8628    -6.7825  H       1  <O>11       0.0625
  32 H12       1.2744    -9.2420    -6.4983  H       1  <O>11       0.0620
@<TRIPOS>BOND
     1     1     2    1
     2     2     3   ar
     3     3     4   ar
     4     4     5   ar
     5     5     6    1
     6     6     7    2
     7     6     8    1
     8     8     9   ar
     9     9    10   ar
    10    10    11    1
    11    10    12   ar
    12    12    13    1
    13    12    14   ar
    14    14    15    1
    15    15    16    2
    16    15    17    1
    17    14    18   ar
    18     8    18   ar
    19     5    19   ar
    20    19    20   ar
    21     2    20   ar
    22     1    21    1
    23     1    22    1
    24     1    23    1
    25    11    24    1
    26    13    25    1
    27     3    26    1
    28     4    27    1
    29     9    28    1
    30    17    29    1
    31    18    30    1
    32    19    31    1
    33    20    32    1
@<TRIPOS>MOLECULE
mol41_1_10
 32 33 0 0 0
SMALL
USER_CHARGES
****
VDW energy = 145.40
@<TRIPOS>ATOM
   1 C1        2.8832    -9.8059    -4.4252  C.3     1  <O>11      -0.0397
   2 C2        1.4617   -10.1611    -4.6036  C.ar    1  <O>11      -0.0504
   3 C3        0.8050   -10.8783    -3.6012  C.ar    1  <O>11      -0.0582
   4 C4       -0.5391   -11.2290    -3.7692  C.ar    1  <O>11      -0.0507
   5 C5       -1.2224   -10.8607    -4.9311  C.ar    1  <O>11       0.0223
   6 C6       -2.6120   -11.2220    -5.1120  C.2     1  <O>11       0.1933
   7 O1       -2.9026   -12.2797    -5.6508  O.2     1  <O>11      -0.2867
   8 C7       -3.6642   -10.3244    -4.6538  C.ar    1  <O>11       0.0281
   9 C8       -3.9039    -9.1128    -5.3241  C.ar    1  <O>11      -0.0056
  10 C9       -4.9060    -8.2457    -4.8763  C.ar    1  <O>11       0.1612
  11 O2       -5.1184    -7.1316    -5.4996  O.3     1  <O>11      -0.5032
  12 C10      -5.6785    -8.5786    -3.7605  C.ar    1  <O>11       0.1889
  13 O3       -6.6040    -7.7788    -3.3389  O.3     1  <O>11      -0.5018
  14 C11      -5.4430    -9.7876    -3.0978  C.ar    1  <O>11       0.1671
  15 N1       -6.2431   -10.1282    -1.9483  N.4     1  <O>11       0.0097
  16 O4       -5.7338   -11.3456    -1.3479  O.2     1  <O>11      -0.1299
  17 O5       -7.6191   -10.3291    -2.3604  O.2     1  <O>11      -0.3960
  18 C12      -4.4485   -10.6613    -3.5375  C.ar    1  <O>11      -0.0169
  19 C13      -0.5527   -10.1366    -5.9237  C.ar    1  <O>11      -0.0507
  20 C14       0.7874    -9.7806    -5.7650  C.ar    1  <O>11      -0.0582
  21 H1        3.2314    -9.2521    -5.2971  H       1  <O>11       0.0278
  22 H2        3.4736   -10.7152    -4.3128  H       1  <O>11       0.0278
  23 H3        2.9942    -9.1880    -3.5342  H       1  <O>11       0.0278
  24 H4       -5.8400    -6.6492    -5.0666  H       1  <O>11       0.2923
  25 H5       -7.0359    -8.1656    -2.5613  H       1  <O>11       0.2924
  26 H6        1.3082   -11.1481    -2.7415  H       1  <O>11       0.0620
  27 H7       -1.0275   -11.7615    -3.0324  H       1  <O>11       0.0625
  28 H8       -3.3384    -8.8618    -6.1501  H       1  <O>11       0.0662
  29 H9       -8.0927    -9.6310    -2.7682  H       1  <O>11       0.3292
  30 H10      -4.2890   -11.5535    -3.0439  H       1  <O>11       0.0649
  31 H11      -1.0552    -9.8628    -6.7825  H       1  <O>11       0.0625
  32 H12       1.2744    -9.2420    -6.4983  H       1  <O>11       0.0620
@<TRIPOS>BOND
     1     1     2    1
     2     2     3   ar
     3     3     4   ar
     4     4     5   ar
     5     5     6    1
     6     6     7    2
     7     6     8    1
     8     8     9   ar
     9     9    10   ar
    10    10    11    1
    11    10    12   ar
    12    12    13    1
    13    12    14   ar
    14    14    15    1
    15    15    16    2
    16    15    17    1
    17    14    18   ar
    18     8    18   ar
    19     5    19   ar
    20    19    20   ar
    21     2    20   ar
    22     1    21    1
    23     1    22    1
    24     1    23    1
    25    11    24    1
    26    13    25    1
    27     3    26    1
    28     4    27    1
    29     9    28    1
    30    17    29    1
    31    18    30    1
    32    19    31    1
    33    20    32    1
@<TRIPOS>MOLECULE
mol41_1_11
 32 33 0 0 0
SMALL
USER_CHARGES
****
VDW energy = 145.68
@<TRIPOS>ATOM
   1 C1        2.8832    -9.8059    -4.4252  C.3     1  <O>11      -0.0397
   2 C2        1.4617   -10.1611    -4.6036  C.ar    1  <O>11      -0.0504
   3 C3        0.8050   -10.8783    -3.6012  C.ar    1  <O>11      -0.0582
   4 C4       -0.5391   -11.2290    -3.7692  C.ar    1  <O>11      -0.0507
   5 C5       -1.2224   -10.8607    -4.9311  C.ar    1  <O>11       0.0223
   6 C6       -2.6120   -11.2220    -5.1120  C.2     1  <O>11       0.1933
   7 O1       -3.4898   -10.5552    -4.5844  O.2     1  <O>11      -0.2867
   8 C7       -2.9644   -12.3813    -5.9211  C.ar    1  <O>11       0.0281
   9 C8       -2.5953   -12.4386    -7.2758  C.ar    1  <O>11      -0.0056
  10 C9       -2.9446   -13.5463    -8.0554  C.ar    1  <O>11       0.1612
  11 O2       -2.6013   -13.5894    -9.3024  O.3     1  <O>11      -0.5032
  12 C10      -3.6610   -14.6059    -7.4925  C.ar    1  <O>11       0.1889
  13 O3       -3.9907   -15.6312    -8.2093  O.3     1  <O>11      -0.5018
  14 C11      -4.0225   -14.5503    -6.1424  C.ar    1  <O>11       0.1671
  15 N1       -4.7599   -15.6460    -5.5651  N.4     1  <O>11       0.0097
  16 O4       -5.6076   -15.1500    -4.4987  O.2     1  <O>11      -0.1299
  17 O5       -3.8318   -16.6246    -5.0319  O.2     1  <O>11      -0.3960
  18 C12      -3.6768   -13.4521    -5.3550  C.ar    1  <O>11      -0.0169
  19 C13      -0.5527   -10.1366    -5.9237  C.ar    1  <O>11      -0.0507
  20 C14       0.7874    -9.7806    -5.7650  C.ar    1  <O>11      -0.0582
  21 H1        3.2314    -9.2521    -5.2971  H       1  <O>11       0.0278
  22 H2        3.4736   -10.7152    -4.3128  H       1  <O>11       0.0278
  23 H3        2.9942    -9.1880    -3.5342  H       1  <O>11       0.0278
  24 H4       -2.9173   -14.4166    -9.6983  H       1  <O>11       0.2923
  25 H5       -4.4803   -16.2646    -7.6615  H       1  <O>11       0.2924
  26 H6        1.3082   -11.1481    -2.7415  H       1  <O>11       0.0620
  27 H7       -1.0275   -11.7615    -3.0324  H       1  <O>11       0.0625
  28 H8       -2.0644   -11.6604    -7.6973  H       1  <O>11       0.0662
  29 H9       -3.2129   -17.0409    -5.5990  H       1  <O>11       0.3292
  30 H10      -3.9436   -13.4261    -4.3584  H       1  <O>11       0.0649
  31 H11      -1.0552    -9.8628    -6.7825  H       1  <O>11       0.0625
  32 H12       1.2744    -9.2420    -6.4983  H       1  <O>11       0.0620
@<TRIPOS>BOND
     1     1     2    1
     2     2     3   ar
     3     3     4   ar
     4     4     5   ar
     5     5     6    1
     6     6     7    2
     7     6     8    1
     8     8     9   ar
     9     9    10   ar
    10    10    11    1
    11    10    12   ar
    12    12    13    1
    13    12    14   ar
    14    14    15    1
    15    15    16    2
    16    15    17    1
    17    14    18   ar
    18     8    18   ar
    19     5    19   ar
    20    19    20   ar
    21     2    20   ar
    22     1    21    1
    23     1    22    1
    24     1    23    1
    25    11    24    1
    26    13    25    1
    27     3    26    1
    28     4    27    1
    29     9    28    1
    30    17    29    1
    31    18    30    1
    32    19    31    1
    33    20    32    1
@<TRIPOS>MOLECULE
mol41_1_12
 32 33 0 0 0
SMALL
USER_CHARGES
****
VDW energy = 146.38
@<TRIPOS>ATOM
   1 C1        2.8832    -9.8059    -4.4252  C.3     1  <O>11      -0.0397
   2 C2        1.4617   -10.1611    -4.6036  C.ar    1  <O>11      -0.0504
   3 C3        0.8050   -10.8783    -3.6012  C.ar    1  <O>11      -0.0582
   4 C4       -0.5391   -11.2290    -3.7692  C.ar    1  <O>11      -0.0507
   5 C5       -1.2224   -10.8607    -4.9311  C.ar    1  <O>11       0.0223
   6 C6       -2.6120   -11.2220    -5.1120  C.2     1  <O>11       0.1933
   7 O1       -3.4898   -10.5552    -4.5844  O.2     1  <O>11      -0.2867
   8 C7       -2.9644   -12.3813    -5.9211  C.ar    1  <O>11       0.0281
   9 C8       -3.0809   -13.6501    -5.3286  C.ar    1  <O>11      -0.0056
  10 C9       -3.4072   -14.7649    -6.1080  C.ar    1  <O>11       0.1612
  11 O2       -3.5110   -15.9296    -5.5534  O.3     1  <O>11      -0.5032
  12 C10      -3.6226   -14.6252    -7.4816  C.ar    1  <O>11       0.1889
  13 O3       -3.9205   -15.6531    -8.2086  O.3     1  <O>11      -0.5018
  14 C11      -3.5122   -13.3606    -8.0692  C.ar    1  <O>11       0.1671
  15 N1       -3.7369   -13.2203    -9.4860  N.4     1  <O>11       0.0097
  16 O4       -2.9363   -12.1247    -9.9966  O.2     1  <O>11      -0.1299
  17 O5       -5.1409   -12.9492    -9.7276  O.2     1  <O>11      -0.3960
  18 C12      -3.1905   -12.2417    -7.3010  C.ar    1  <O>11      -0.0169
  19 C13      -0.5527   -10.1366    -5.9237  C.ar    1  <O>11      -0.0507
  20 C14       0.7874    -9.7806    -5.7650  C.ar    1  <O>11      -0.0582
  21 H1        3.2314    -9.2521    -5.2971  H       1  <O>11       0.0278
  22 H2        3.4736   -10.7152    -4.3128  H       1  <O>11       0.0278
  23 H3        2.9942    -9.1880    -3.5342  H       1  <O>11       0.0278
  24 H4       -3.7402   -16.5905    -6.2253  H       1  <O>11       0.2923
  25 H5       -4.0339   -15.3747    -9.1309  H       1  <O>11       0.2924
  26 H6        1.3082   -11.1481    -2.7415  H       1  <O>11       0.0620
  27 H7       -1.0275   -11.7615    -3.0324  H       1  <O>11       0.0625
  28 H8       -2.9252   -13.7600    -4.3143  H       1  <O>11       0.0662
  29 H9       -5.7910   -13.5662    -9.4544  H       1  <O>11       0.3292
  30 H10      -3.1187   -11.3129    -7.7453  H       1  <O>11       0.0649
  31 H11      -1.0552    -9.8628    -6.7825  H       1  <O>11       0.0625
  32 H12       1.2744    -9.2420    -6.4983  H       1  <O>11       0.0620
@<TRIPOS>BOND
     1     1     2    1
     2     2     3   ar
     3     3     4   ar
     4     4     5   ar
     5     5     6    1
     6     6     7    2
     7     6     8    1
     8     8     9   ar
     9     9    10   ar
    10    10    11    1
    11    10    12   ar
    12    12    13    1
    13    12    14   ar
    14    14    15    1
    15    15    16    2
    16    15    17    1
    17    14    18   ar
    18     8    18   ar
    19     5    19   ar
    20    19    20   ar
    21     2    20   ar
    22     1    21    1
    23     1    22    1
    24     1    23    1
    25    11    24    1
    26    13    25    1
    27     3    26    1
    28     4    27    1
    29     9    28    1
    30    17    29    1
    31    18    30    1
    32    19    31    1
    33    20    32    1
@<TRIPOS>MOLECULE
mol41_1_13
 32 33 0 0 0
SMALL
USER_CHARGES
****
VDW energy = 146.54
@<TRIPOS>ATOM
   1 C1        2.8832    -9.8059    -4.4252  C.3     1  <O>11      -0.0397
   2 C2        1.4617   -10.1611    -4.6036  C.ar    1  <O>11      -0.0504
   3 C3        0.8050   -10.8783    -3.6012  C.ar    1  <O>11      -0.0582
   4 C4       -0.5391   -11.2290    -3.7692  C.ar    1  <O>11      -0.0507
   5 C5       -1.2224   -10.8607    -4.9311  C.ar    1  <O>11       0.0223
   6 C6       -2.6120   -11.2220    -5.1120  C.2     1  <O>11       0.1933
   7 O1       -3.4898   -10.5552    -4.5844  O.2     1  <O>11      -0.2867
   8 C7       -2.9644   -12.3813    -5.9211  C.ar    1  <O>11       0.0281
   9 C8       -2.6998   -13.6794    -5.4526  C.ar    1  <O>11      -0.0056
  10 C9       -3.0271   -14.7917    -6.2351  C.ar    1  <O>11       0.1612
  11 O2       -2.7784   -15.9832    -5.7956  O.3     1  <O>11      -0.5032
  12 C10      -3.6223   -14.6209    -7.4879  C.ar    1  <O>11       0.1889
  13 O3       -3.9235   -15.6455    -8.2182  O.3     1  <O>11      -0.5018
  14 C11      -3.8906   -13.3284    -7.9505  C.ar    1  <O>11       0.1671
  15 N1       -4.5062   -13.1565    -9.2424  N.4     1  <O>11       0.0097
  16 O4       -4.0706   -11.9013    -9.8226  O.2     1  <O>11      -0.1299
  17 O5       -5.9487   -13.1470    -9.0923  O.2     1  <O>11      -0.3960
  18 C12      -3.5714   -12.2123    -7.1772  C.ar    1  <O>11      -0.0169
  19 C13      -0.5527   -10.1366    -5.9237  C.ar    1  <O>11      -0.0507
  20 C14       0.7874    -9.7806    -5.7650  C.ar    1  <O>11      -0.0582
  21 H1        3.2314    -9.2521    -5.2971  H       1  <O>11       0.0278
  22 H2        3.4736   -10.7152    -4.3128  H       1  <O>11       0.0278
  23 H3        2.9942    -9.1880    -3.5342  H       1  <O>11       0.0278
  24 H4       -3.0625   -16.6380    -6.4523  H       1  <O>11       0.2923
  25 H5       -4.3251   -15.3440    -9.0482  H       1  <O>11       0.2924
  26 H6        1.3082   -11.1481    -2.7415  H       1  <O>11       0.0620
  27 H7       -1.0275   -11.7615    -3.0324  H       1  <O>11       0.0625
  28 H8       -2.2623   -13.8127    -4.5274  H       1  <O>11       0.0662
  29 H9       -6.3868   -13.8914    -8.7290  H       1  <O>11       0.3292
  30 H10      -3.7806   -11.2641    -7.5269  H       1  <O>11       0.0649
  31 H11      -1.0552    -9.8628    -6.7825  H       1  <O>11       0.0625
  32 H12       1.2744    -9.2420    -6.4983  H       1  <O>11       0.0620
@<TRIPOS>BOND
     1     1     2    1
     2     2     3   ar
     3     3     4   ar
     4     4     5   ar
     5     5     6    1
     6     6     7    2
     7     6     8    1
     8     8     9   ar
     9     9    10   ar
    10    10    11    1
    11    10    12   ar
    12    12    13    1
    13    12    14   ar
    14    14    15    1
    15    15    16    2
    16    15    17    1
    17    14    18   ar
    18     8    18   ar
    19     5    19   ar
    20    19    20   ar
    21     2    20   ar
    22     1    21    1
    23     1    22    1
    24     1    23    1
    25    11    24    1
    26    13    25    1
    27     3    26    1
    28     4    27    1
    29     9    28    1
    30    17    29    1
    31    18    30    1
    32    19    31    1
    33    20    32    1
@<TRIPOS>MOLECULE
mol41_1_14
 32 33 0 0 0
SMALL
USER_CHARGES
****
VDW energy = 146.73
@<TRIPOS>ATOM
   1 C1        2.8832    -9.8059    -4.4252  C.3     1  <O>11      -0.0397
   2 C2        1.4617   -10.1611    -4.6036  C.ar    1  <O>11      -0.0504
   3 C3        0.8050   -10.8783    -3.6012  C.ar    1  <O>11      -0.0582
   4 C4       -0.5391   -11.2290    -3.7692  C.ar    1  <O>11      -0.0507
   5 C5       -1.2224   -10.8607    -4.9311  C.ar    1  <O>11       0.0223
   6 C6       -2.6120   -11.2220    -5.1120  C.2     1  <O>11       0.1933
   7 O1       -3.3887   -10.4260    -5.6185  O.2     1  <O>11      -0.2867
   8 C7       -3.0853   -12.5333    -4.6888  C.ar    1  <O>11       0.0281
   9 C8       -2.5320   -13.6997    -5.2440  C.ar    1  <O>11      -0.0056
  10 C9       -2.9953   -14.9581    -4.8463  C.ar    1  <O>11       0.1612
  11 O2       -2.4803   -16.0265    -5.3642  O.3     1  <O>11      -0.5032
  12 C10      -4.0102   -15.0657    -3.8918  C.ar    1  <O>11       0.1889
  13 O3       -4.4460   -16.2267    -3.5230  O.3     1  <O>11      -0.5018
  14 C11      -4.5559   -13.9042    -3.3355  C.ar    1  <O>11       0.1671
  15 N1       -5.6014   -14.0193    -2.3499  N.4     1  <O>11       0.0097
  16 O4       -6.4716   -12.8625    -2.4304  O.2     1  <O>11      -0.1299
  17 O5       -5.0117   -14.0918    -1.0269  O.2     1  <O>11      -0.3960
  18 C12      -4.0994   -12.6442    -3.7223  C.ar    1  <O>11      -0.0169
  19 C13      -0.5527   -10.1366    -5.9237  C.ar    1  <O>11      -0.0507
  20 C14       0.7874    -9.7806    -5.7650  C.ar    1  <O>11      -0.0582
  21 H1        3.2314    -9.2521    -5.2971  H       1  <O>11       0.0278
  22 H2        3.4736   -10.7152    -4.3128  H       1  <O>11       0.0278
  23 H3        2.9942    -9.1880    -3.5342  H       1  <O>11       0.0278
  24 H4       -2.9084   -16.8103    -4.9859  H       1  <O>11       0.2923
  25 H5       -5.1446   -16.1139    -2.8595  H       1  <O>11       0.2924
  26 H6        1.3082   -11.1481    -2.7415  H       1  <O>11       0.0620
  27 H7       -1.0275   -11.7615    -3.0324  H       1  <O>11       0.0625
  28 H8       -1.7807   -13.6274    -5.9479  H       1  <O>11       0.0662
  29 H9       -4.4215   -14.7879    -0.8146  H       1  <O>11       0.3292
  30 H10      -4.5056   -11.7949    -3.2994  H       1  <O>11       0.0649
  31 H11      -1.0552    -9.8628    -6.7825  H       1  <O>11       0.0625
  32 H12       1.2744    -9.2420    -6.4983  H       1  <O>11       0.0620
@<TRIPOS>BOND
     1     1     2    1
     2     2     3   ar
     3     3     4   ar
     4     4     5   ar
     5     5     6    1
     6     6     7    2
     7     6     8    1
     8     8     9   ar
     9     9    10   ar
    10    10    11    1
    11    10    12   ar
    12    12    13    1
    13    12    14   ar
    14    14    15    1
    15    15    16    2
    16    15    17    1
    17    14    18   ar
    18     8    18   ar
    19     5    19   ar
    20    19    20   ar
    21     2    20   ar
    22     1    21    1
    23     1    22    1
    24     1    23    1
    25    11    24    1
    26    13    25    1
    27     3    26    1
    28     4    27    1
    29     9    28    1
    30    17    29    1
    31    18    30    1
    32    19    31    1
    33    20    32    1
@<TRIPOS>MOLECULE
mol41_1_15
 32 33 0 0 0
SMALL
USER_CHARGES
****
VDW energy = 146.78
@<TRIPOS>ATOM
   1 C1        2.8832    -9.8059    -4.4252  C.3     1  <O>11      -0.0397
   2 C2        1.4617   -10.1611    -4.6036  C.ar    1  <O>11      -0.0504
   3 C3        0.8050   -10.8783    -3.6012  C.ar    1  <O>11      -0.0582
   4 C4       -0.5391   -11.2290    -3.7692  C.ar    1  <O>11      -0.0507
   5 C5       -1.2224   -10.8607    -4.9311  C.ar    1  <O>11       0.0223
   6 C6       -2.6120   -11.2220    -5.1120  C.2     1  <O>11       0.1933
   7 O1       -3.0111   -11.5826    -6.2093  O.2     1  <O>11      -0.2867
   8 C7       -3.5353   -11.1541    -3.9869  C.ar    1  <O>11       0.0281
   9 C8       -3.7223   -12.2713    -3.1553  C.ar    1  <O>11      -0.0056
  10 C9       -4.6181   -12.2095    -2.0827  C.ar    1  <O>11       0.1612
  11 O2       -4.7845   -13.2440    -1.3231  O.3     1  <O>11      -0.5032
  12 C10      -5.3320   -11.0356    -1.8280  C.ar    1  <O>11       0.1889
  13 O3       -6.1651   -10.9735    -0.8400  O.3     1  <O>11      -0.5018
  14 C11      -5.1404    -9.9224    -2.6529  C.ar    1  <O>11       0.1671
  15 N1       -5.8773    -8.7127    -2.3859  N.4     1  <O>11       0.0097
  16 O4       -6.1049    -8.0007    -3.6281  O.2     1  <O>11      -0.1299
  17 O5       -5.1172    -7.8748    -1.4785  O.2     1  <O>11      -0.3960
  18 C12      -4.2474    -9.9717    -3.7233  C.ar    1  <O>11      -0.0169
  19 C13      -0.5527   -10.1366    -5.9237  C.ar    1  <O>11      -0.0507
  20 C14       0.7874    -9.7806    -5.7650  C.ar    1  <O>11      -0.0582
  21 H1        3.2314    -9.2521    -5.2971  H       1  <O>11       0.0278
  22 H2        3.4736   -10.7152    -4.3128  H       1  <O>11       0.0278
  23 H3        2.9942    -9.1880    -3.5342  H       1  <O>11       0.0278
  24 H4       -5.4338   -13.0391    -0.6322  H       1  <O>11       0.2923
  25 H5       -6.5684   -10.0918    -0.8122  H       1  <O>11       0.2924
  26 H6        1.3082   -11.1481    -2.7415  H       1  <O>11       0.0620
  27 H7       -1.0275   -11.7615    -3.0324  H       1  <O>11       0.0625
  28 H8       -3.1967   -13.1407    -3.3365  H       1  <O>11       0.0662
  29 H9       -4.8875    -8.1935    -0.6278  H       1  <O>11       0.3292
  30 H10      -4.1099    -9.1414    -4.3206  H       1  <O>11       0.0649
  31 H11      -1.0552    -9.8628    -6.7825  H       1  <O>11       0.0625
  32 H12       1.2744    -9.2420    -6.4983  H       1  <O>11       0.0620
@<TRIPOS>BOND
     1     1     2    1
     2     2     3   ar
     3     3     4   ar
     4     4     5   ar
     5     5     6    1
     6     6     7    2
     7     6     8    1
     8     8     9   ar
     9     9    10   ar
    10    10    11    1
    11    10    12   ar
    12    12    13    1
    13    12    14   ar
    14    14    15    1
    15    15    16    2
    16    15    17    1
    17    14    18   ar
    18     8    18   ar
    19     5    19   ar
    20    19    20   ar
    21     2    20   ar
    22     1    21    1
    23     1    22    1
    24     1    23    1
    25    11    24    1
    26    13    25    1
    27     3    26    1
    28     4    27    1
    29     9    28    1
    30    17    29    1
    31    18    30    1
    32    19    31    1
    33    20    32    1
@<TRIPOS>MOLECULE
mol41_1_16
 32 33 0 0 0
SMALL
USER_CHARGES
****
VDW energy = 147.30
@<TRIPOS>ATOM
   1 C1        2.8832    -9.8059    -4.4252  C.3     1  <O>11      -0.0397
   2 C2        1.4617   -10.1611    -4.6036  C.ar    1  <O>11      -0.0504
   3 C3        0.8050   -10.8783    -3.6012  C.ar    1  <O>11      -0.0582
   4 C4       -0.5391   -11.2290    -3.7692  C.ar    1  <O>11      -0.0507
   5 C5       -1.2224   -10.8607    -4.9311  C.ar    1  <O>11       0.0223
   6 C6       -2.6120   -11.2220    -5.1120  C.2     1  <O>11       0.1933
   7 O1       -3.0111   -11.5826    -6.2093  O.2     1  <O>11      -0.2867
   8 C7       -3.5353   -11.1541    -3.9869  C.ar    1  <O>11       0.0281
   9 C8       -3.9376    -9.9090    -3.4745  C.ar    1  <O>11      -0.0056
  10 C9       -4.8144    -9.8445    -2.3865  C.ar    1  <O>11       0.1612
  11 O2       -5.1783    -8.6932    -1.9208  O.3     1  <O>11      -0.5032
  12 C10      -5.2993   -11.0177    -1.8022  C.ar    1  <O>11       0.1889
  13 O3       -6.1071   -10.9647    -0.7930  O.3     1  <O>11      -0.5018
  14 C11      -4.9028   -12.2563    -2.3171  C.ar    1  <O>11       0.1671
  15 N1       -5.4065   -13.4641    -1.7128  N.4     1  <O>11       0.0097
  16 O4       -4.7585   -14.6128    -2.3147  O.2     1  <O>11      -0.1299
  17 O5       -6.8387   -13.5486    -1.9244  O.2     1  <O>11      -0.3960
  18 C12      -4.0315   -12.3324    -3.4036  C.ar    1  <O>11      -0.0169
  19 C13      -0.5527   -10.1366    -5.9237  C.ar    1  <O>11      -0.0507
  20 C14       0.7874    -9.7806    -5.7650  C.ar    1  <O>11      -0.0582
  21 H1        3.2314    -9.2521    -5.2971  H       1  <O>11       0.0278
  22 H2        3.4736   -10.7152    -4.3128  H       1  <O>11       0.0278
  23 H3        2.9942    -9.1880    -3.5342  H       1  <O>11       0.0278
  24 H4       -5.7822    -8.8211    -1.1727  H       1  <O>11       0.2923
  25 H5       -6.3401   -11.8652    -0.5178  H       1  <O>11       0.2924
  26 H6        1.3082   -11.1481    -2.7415  H       1  <O>11       0.0620
  27 H7       -1.0275   -11.7615    -3.0324  H       1  <O>11       0.0625
  28 H8       -3.5849    -9.0388    -3.9026  H       1  <O>11       0.0662
  29 H9       -7.4017   -12.8768    -1.5931  H       1  <O>11       0.3292
  30 H10      -3.7517   -13.2523    -3.7785  H       1  <O>11       0.0649
  31 H11      -1.0552    -9.8628    -6.7825  H       1  <O>11       0.0625
  32 H12       1.2744    -9.2420    -6.4983  H       1  <O>11       0.0620
@<TRIPOS>BOND
     1     1     2    1
     2     2     3   ar
     3     3     4   ar
     4     4     5   ar
     5     5     6    1
     6     6     7    2
     7     6     8    1
     8     8     9   ar
     9     9    10   ar
    10    10    11    1
    11    10    12   ar
    12    12    13    1
    13    12    14   ar
    14    14    15    1
    15    15    16    2
    16    15    17    1
    17    14    18   ar
    18     8    18   ar
    19     5    19   ar
    20    19    20   ar
    21     2    20   ar
    22     1    21    1
    23     1    22    1
    24     1    23    1
    25    11    24    1
    26    13    25    1
    27     3    26    1
    28     4    27    1
    29     9    28    1
    30    17    29    1
    31    18    30    1
    32    19    31    1
    33    20    32    1
@<TRIPOS>MOLECULE
mol41_1_17
 32 33 0 0 0
SMALL
USER_CHARGES
****
VDW energy = 148.64
@<TRIPOS>ATOM
   1 C1        2.8832    -9.8059    -4.4252  C.3     1  <O>11      -0.0397
   2 C2        1.4617   -10.1611    -4.6036  C.ar    1  <O>11      -0.0504
   3 C3        0.8050   -10.8783    -3.6012  C.ar    1  <O>11      -0.0582
   4 C4       -0.5391   -11.2290    -3.7692  C.ar    1  <O>11      -0.0507
   5 C5       -1.2224   -10.8607    -4.9311  C.ar    1  <O>11       0.0223
   6 C6       -2.6120   -11.2220    -5.1120  C.2     1  <O>11       0.1933
   7 O1       -3.0111   -11.5826    -6.2093  O.2     1  <O>11      -0.2867
   8 C7       -3.5353   -11.1541    -3.9869  C.ar    1  <O>11       0.0281
   9 C8       -3.9376    -9.9090    -3.4745  C.ar    1  <O>11      -0.0056
  10 C9       -4.8144    -9.8445    -2.3865  C.ar    1  <O>11       0.1612
  11 O2       -5.1783    -8.6932    -1.9208  O.3     1  <O>11      -0.5032
  12 C10      -5.2993   -11.0177    -1.8022  C.ar    1  <O>11       0.1889
  13 O3       -6.1071   -10.9647    -0.7930  O.3     1  <O>11      -0.5018
  14 C11      -4.9028   -12.2563    -2.3171  C.ar    1  <O>11       0.1671
  15 N1       -5.4065   -13.4641    -1.7128  N.4     1  <O>11       0.0097
  16 O4       -4.4261   -14.5223    -1.8569  O.2     1  <O>11      -0.1299
  17 O5       -6.6405   -13.8532    -2.3678  O.2     1  <O>11      -0.3960
  18 C12      -4.0315   -12.3324    -3.4036  C.ar    1  <O>11      -0.0169
  19 C13      -0.5527   -10.1366    -5.9237  C.ar    1  <O>11      -0.0507
  20 C14       0.7874    -9.7806    -5.7650  C.ar    1  <O>11      -0.0582
  21 H1        3.2314    -9.2521    -5.2971  H       1  <O>11       0.0278
  22 H2        3.4736   -10.7152    -4.3128  H       1  <O>11       0.0278
  23 H3        2.9942    -9.1880    -3.5342  H       1  <O>11       0.0278
  24 H4       -5.7822    -8.8211    -1.1727  H       1  <O>11       0.2923
  25 H5       -6.3401   -11.8652    -0.5178  H       1  <O>11       0.2924
  26 H6        1.3082   -11.1481    -2.7415  H       1  <O>11       0.0620
  27 H7       -1.0275   -11.7615    -3.0324  H       1  <O>11       0.0625
  28 H8       -3.5849    -9.0388    -3.9026  H       1  <O>11       0.0662
  29 H9       -7.3763   -13.2730    -2.3637  H       1  <O>11       0.3292
  30 H10      -3.7517   -13.2523    -3.7785  H       1  <O>11       0.0649
  31 H11      -1.0552    -9.8628    -6.7825  H       1  <O>11       0.0625
  32 H12       1.2744    -9.2420    -6.4983  H       1  <O>11       0.0620
@<TRIPOS>BOND
     1     1     2    1
     2     2     3   ar
     3     3     4   ar
     4     4     5   ar
     5     5     6    1
     6     6     7    2
     7     6     8    1
     8     8     9   ar
     9     9    10   ar
    10    10    11    1
    11    10    12   ar
    12    12    13    1
    13    12    14   ar
    14    14    15    1
    15    15    16    2
    16    15    17    1
    17    14    18   ar
    18     8    18   ar
    19     5    19   ar
    20    19    20   ar
    21     2    20   ar
    22     1    21    1
    23     1    22    1
    24     1    23    1
    25    11    24    1
    26    13    25    1
    27     3    26    1
    28     4    27    1
    29     9    28    1
    30    17    29    1
    31    18    30    1
    32    19    31    1
    33    20    32    1
@<TRIPOS>MOLECULE
mol41_1_18
 32 33 0 0 0
SMALL
USER_CHARGES
****
VDW energy = 149.11
@<TRIPOS>ATOM
   1 C1        2.8832    -9.8059    -4.4252  C.3     1  <O>11      -0.0397
   2 C2        1.4617   -10.1611    -4.6036  C.ar    1  <O>11      -0.0504
   3 C3        0.8050   -10.8783    -3.6012  C.ar    1  <O>11      -0.0582
   4 C4       -0.5391   -11.2290    -3.7692  C.ar    1  <O>11      -0.0507
   5 C5       -1.2224   -10.8607    -4.9311  C.ar    1  <O>11       0.0223
   6 C6       -2.6120   -11.2220    -5.1120  C.2     1  <O>11       0.1933
   7 O1       -3.1959   -11.8554    -4.2452  O.2     1  <O>11      -0.2867
   8 C7       -3.3142   -10.8325    -6.3277  C.ar    1  <O>11       0.0281
   9 C8       -3.9945    -9.6045    -6.3906  C.ar    1  <O>11      -0.0056
  10 C9       -4.6788    -9.2365    -7.5538  C.ar    1  <O>11       0.1612
  11 O2       -5.3035    -8.1041    -7.6017  O.3     1  <O>11      -0.5032
  12 C10      -4.6891   -10.0858    -8.6634  C.ar    1  <O>11       0.1889
  13 O3       -5.3237    -9.7530    -9.7407  O.3     1  <O>11      -0.5018
  14 C11      -4.0064   -11.3051    -8.6016  C.ar    1  <O>11       0.1671
  15 N1       -4.0179   -12.1776    -9.7489  N.4     1  <O>11       0.0097
  16 O4       -3.9209   -13.5558    -9.3095  O.2     1  <O>11      -0.1299
  17 O5       -2.8922   -11.8615   -10.6070  O.2     1  <O>11      -0.3960
  18 C12      -3.3182   -11.6807    -7.4481  C.ar    1  <O>11      -0.0169
  19 C13      -0.5527   -10.1366    -5.9237  C.ar    1  <O>11      -0.0507
  20 C14       0.7874    -9.7806    -5.7650  C.ar    1  <O>11      -0.0582
  21 H1        3.2314    -9.2521    -5.2971  H       1  <O>11       0.0278
  22 H2        3.4736   -10.7152    -4.3128  H       1  <O>11       0.0278
  23 H3        2.9942    -9.1880    -3.5342  H       1  <O>11       0.0278
  24 H4       -5.7234    -8.0008    -8.4700  H       1  <O>11       0.2923
  25 H5       -5.2255   -10.4545   -10.4035  H       1  <O>11       0.2924
  26 H6        1.3082   -11.1481    -2.7415  H       1  <O>11       0.0620
  27 H7       -1.0275   -11.7615    -3.0324  H       1  <O>11       0.0625
  28 H8       -3.9892    -8.9716    -5.5755  H       1  <O>11       0.0662
  29 H9       -2.8099   -11.0035   -10.9747  H       1  <O>11       0.3292
  30 H10      -2.8127   -12.5800    -7.4174  H       1  <O>11       0.0649
  31 H11      -1.0552    -9.8628    -6.7825  H       1  <O>11       0.0625
  32 H12       1.2744    -9.2420    -6.4983  H       1  <O>11       0.0620
@<TRIPOS>BOND
     1     1     2    1
     2     2     3   ar
     3     3     4   ar
     4     4     5   ar
     5     5     6    1
     6     6     7    2
     7     6     8    1
     8     8     9   ar
     9     9    10   ar
    10    10    11    1
    11    10    12   ar
    12    12    13    1
    13    12    14   ar
    14    14    15    1
    15    15    16    2
    16    15    17    1
    17    14    18   ar
    18     8    18   ar
    19     5    19   ar
    20    19    20   ar
    21     2    20   ar
    22     1    21    1
    23     1    22    1
    24     1    23    1
    25    11    24    1
    26    13    25    1
    27     3    26    1
    28     4    27    1
    29     9    28    1
    30    17    29    1
    31    18    30    1
    32    19    31    1
    33    20    32    1
@<TRIPOS>MOLECULE
mol41_1_19
 32 33 0 0 0
SMALL
USER_CHARGES
****
VDW energy = 150.52
@<TRIPOS>ATOM
   1 C1        2.8832    -9.8059    -4.4252  C.3     1  <O>11      -0.0397
   2 C2        1.4617   -10.1611    -4.6036  C.ar    1  <O>11      -0.0504
   3 C3        0.8050   -10.8783    -3.6012  C.ar    1  <O>11      -0.0582
   4 C4       -0.5391   -11.2290    -3.7692  C.ar    1  <O>11      -0.0507
   5 C5       -1.2224   -10.8607    -4.9311  C.ar    1  <O>11       0.0223
   6 C6       -2.6120   -11.2220    -5.1120  C.2     1  <O>11       0.1933
   7 O1       -3.4898   -10.5552    -4.5844  O.2     1  <O>11      -0.2867
   8 C7       -2.9644   -12.3813    -5.9211  C.ar    1  <O>11       0.0281
   9 C8       -4.3120   -12.7371    -6.1005  C.ar    1  <O>11      -0.0056
  10 C9       -4.6492   -13.8574    -6.8672  C.ar    1  <O>11       0.1612
  11 O2       -5.8930   -14.1779    -7.0256  O.3     1  <O>11      -0.5032
  12 C10      -3.6489   -14.6300    -7.4632  C.ar    1  <O>11       0.1889
  13 O3       -3.9542   -15.6697    -8.1701  O.3     1  <O>11      -0.5018
  14 C11      -2.3083   -14.2712    -7.2889  C.ar    1  <O>11       0.1671
  15 N1       -1.2795   -15.0696    -7.9067  N.4     1  <O>11       0.0097
  16 O4        0.0224   -14.5966    -7.4788  O.2     1  <O>11      -0.1299
  17 O5       -1.3853   -14.9612    -9.3491  O.2     1  <O>11      -0.3960
  18 C12      -1.9607   -13.1544    -6.5291  C.ar    1  <O>11      -0.0169
  19 C13      -0.5527   -10.1366    -5.9237  C.ar    1  <O>11      -0.0507
  20 C14       0.7874    -9.7806    -5.7650  C.ar    1  <O>11      -0.0582
  21 H1        3.2314    -9.2521    -5.2971  H       1  <O>11       0.0278
  22 H2        3.4736   -10.7152    -4.3128  H       1  <O>11       0.0278
  23 H3        2.9942    -9.1880    -3.5342  H       1  <O>11       0.0278
  24 H4       -5.9563   -14.9725    -7.5783  H       1  <O>11       0.2923
  25 H5       -3.1428   -16.0830    -8.5044  H       1  <O>11       0.2924
  26 H6        1.3082   -11.1481    -2.7415  H       1  <O>11       0.0620
  27 H7       -1.0275   -11.7615    -3.0324  H       1  <O>11       0.0625
  28 H8       -5.0558   -12.1697    -5.6648  H       1  <O>11       0.0662
  29 H9       -2.1717   -15.2287    -9.7826  H       1  <O>11       0.3292
  30 H10      -0.9682   -12.8962    -6.4135  H       1  <O>11       0.0649
  31 H11      -1.0552    -9.8628    -6.7825  H       1  <O>11       0.0625
  32 H12       1.2744    -9.2420    -6.4983  H       1  <O>11       0.0620
@<TRIPOS>BOND
     1     1     2    1
     2     2     3   ar
     3     3     4   ar
     4     4     5   ar
     5     5     6    1
     6     6     7    2
     7     6     8    1
     8     8     9   ar
     9     9    10   ar
    10    10    11    1
    11    10    12   ar
    12    12    13    1
    13    12    14   ar
    14    14    15    1
    15    15    16    2
    16    15    17    1
    17    14    18   ar
    18     8    18   ar
    19     5    19   ar
    20    19    20   ar
    21     2    20   ar
    22     1    21    1
    23     1    22    1
    24     1    23    1
    25    11    24    1
    26    13    25    1
    27     3    26    1
    28     4    27    1
    29     9    28    1
    30    17    29    1
    31    18    30    1
    32    19    31    1
    33    20    32    1
@<TRIPOS>MOLECULE
mol41_1_20
 32 33 0 0 0
SMALL
USER_CHARGES
****
VDW energy = 151.08
@<TRIPOS>ATOM
   1 C1        2.8832    -9.8059    -4.4252  C.3     1  <O>11      -0.0397
   2 C2        1.4617   -10.1611    -4.6036  C.ar    1  <O>11      -0.0504
   3 C3        0.8050   -10.8783    -3.6012  C.ar    1  <O>11      -0.0582
   4 C4       -0.5391   -11.2290    -3.7692  C.ar    1  <O>11      -0.0507
   5 C5       -1.2224   -10.8607    -4.9311  C.ar    1  <O>11       0.0223
   6 C6       -2.6120   -11.2220    -5.1120  C.2     1  <O>11       0.1933
   7 O1       -3.4898   -10.5552    -4.5844  O.2     1  <O>11      -0.2867
   8 C7       -2.9644   -12.3813    -5.9211  C.ar    1  <O>11       0.0281
   9 C8       -4.3120   -12.7371    -6.1005  C.ar    1  <O>11      -0.0056
  10 C9       -4.6492   -13.8574    -6.8672  C.ar    1  <O>11       0.1612
  11 O2       -5.8930   -14.1779    -7.0256  O.3     1  <O>11      -0.5032
  12 C10      -3.6489   -14.6300    -7.4632  C.ar    1  <O>11       0.1889
  13 O3       -3.9542   -15.6697    -8.1701  O.3     1  <O>11      -0.5018
  14 C11      -2.3083   -14.2712    -7.2889  C.ar    1  <O>11       0.1671
  15 N1       -1.2795   -15.0696    -7.9067  N.4     1  <O>11       0.0097
  16 O4       -0.0757   -15.0156    -7.1006  O.2     1  <O>11      -0.1299
  17 O5       -0.9991   -14.5536    -9.2328  O.2     1  <O>11      -0.3960
  18 C12      -1.9607   -13.1544    -6.5291  C.ar    1  <O>11      -0.0169
  19 C13      -0.5527   -10.1366    -5.9237  C.ar    1  <O>11      -0.0507
  20 C14       0.7874    -9.7806    -5.7650  C.ar    1  <O>11      -0.0582
  21 H1        3.2314    -9.2521    -5.2971  H       1  <O>11       0.0278
  22 H2        3.4736   -10.7152    -4.3128  H       1  <O>11       0.0278
  23 H3        2.9942    -9.1880    -3.5342  H       1  <O>11       0.0278
  24 H4       -5.9563   -14.9725    -7.5783  H       1  <O>11       0.2923
  25 H5       -3.1428   -16.0830    -8.5044  H       1  <O>11       0.2924
  26 H6        1.3082   -11.1481    -2.7415  H       1  <O>11       0.0620
  27 H7       -1.0275   -11.7615    -3.0324  H       1  <O>11       0.0625
  28 H8       -5.0558   -12.1697    -5.6648  H       1  <O>11       0.0662
  29 H9       -1.6793   -14.5215    -9.8765  H       1  <O>11       0.3292
  30 H10      -0.9682   -12.8962    -6.4135  H       1  <O>11       0.0649
  31 H11      -1.0552    -9.8628    -6.7825  H       1  <O>11       0.0625
  32 H12       1.2744    -9.2420    -6.4983  H       1  <O>11       0.0620
@<TRIPOS>BOND
     1     1     2    1
     2     2     3   ar
     3     3     4   ar
     4     4     5   ar
     5     5     6    1
     6     6     7    2
     7     6     8    1
     8     8     9   ar
     9     9    10   ar
    10    10    11    1
    11    10    12   ar
    12    12    13    1
    13    12    14   ar
    14    14    15    1
    15    15    16    2
    16    15    17    1
    17    14    18   ar
    18     8    18   ar
    19     5    19   ar
    20    19    20   ar
    21     2    20   ar
    22     1    21    1
    23     1    22    1
    24     1    23    1
    25    11    24    1
    26    13    25    1
    27     3    26    1
    28     4    27    1
    29     9    28    1
    30    17    29    1
    31    18    30    1
    32    19    31    1
    33    20    32    1
@<TRIPOS>MOLECULE
mol41_1_21
 32 33 0 0 0
SMALL
USER_CHARGES
****
VDW energy = 152.21
@<TRIPOS>ATOM
   1 C1        2.8832    -9.8059    -4.4252  C.3     1  <O>11      -0.0397
   2 C2        1.4617   -10.1611    -4.6036  C.ar    1  <O>11      -0.0504
   3 C3        0.8050   -10.8783    -3.6012  C.ar    1  <O>11      -0.0582
   4 C4       -0.5391   -11.2290    -3.7692  C.ar    1  <O>11      -0.0507
   5 C5       -1.2224   -10.8607    -4.9311  C.ar    1  <O>11       0.0223
   6 C6       -2.6120   -11.2220    -5.1120  C.2     1  <O>11       0.1933
   7 O1       -3.3887   -10.4260    -5.6185  O.2     1  <O>11      -0.2867
   8 C7       -3.0853   -12.5333    -4.6888  C.ar    1  <O>11       0.0281
   9 C8       -3.1955   -12.8398    -3.3218  C.ar    1  <O>11      -0.0056
  10 C9       -3.6382   -14.1031    -2.9159  C.ar    1  <O>11       0.1612
  11 O2       -3.7353   -14.3763    -1.6547  O.3     1  <O>11      -0.5032
  12 C10      -3.9770   -15.0696    -3.8667  C.ar    1  <O>11       0.1889
  13 O3       -4.3831   -16.2412    -3.4977  O.3     1  <O>11      -0.5018
  14 C11      -3.8726   -14.7613    -5.2270  C.ar    1  <O>11       0.1671
  15 N1       -4.2247   -15.7603    -6.2046  N.4     1  <O>11       0.0097
  16 O4       -3.9082   -15.2708    -7.5320  O.2     1  <O>11      -0.1299
  17 O5       -5.6446   -16.0420    -6.1170  O.2     1  <O>11      -0.3960
  18 C12      -3.4354   -13.5038    -5.6429  C.ar    1  <O>11      -0.0169
  19 C13      -0.5527   -10.1366    -5.9237  C.ar    1  <O>11      -0.0507
  20 C14       0.7874    -9.7806    -5.7650  C.ar    1  <O>11      -0.0582
  21 H1        3.2314    -9.2521    -5.2971  H       1  <O>11       0.0278
  22 H2        3.4736   -10.7152    -4.3128  H       1  <O>11       0.0278
  23 H3        2.9942    -9.1880    -3.5342  H       1  <O>11       0.0278
  24 H4       -4.0533   -15.2857    -1.5424  H       1  <O>11       0.2923
  25 H5       -4.5722   -16.7796    -4.2821  H       1  <O>11       0.2924
  26 H6        1.3082   -11.1481    -2.7415  H       1  <O>11       0.0620
  27 H7       -1.0275   -11.7615    -3.0324  H       1  <O>11       0.0625
  28 H8       -2.9489   -12.1299    -2.6144  H       1  <O>11       0.0662
  29 H9       -6.0092   -16.3678    -5.3176  H       1  <O>11       0.3292
  30 H10      -3.3690   -13.2864    -6.6496  H       1  <O>11       0.0649
  31 H11      -1.0552    -9.8628    -6.7825  H       1  <O>11       0.0625
  32 H12       1.2744    -9.2420    -6.4983  H       1  <O>11       0.0620
@<TRIPOS>BOND
     1     1     2    1
     2     2     3   ar
     3     3     4   ar
     4     4     5   ar
     5     5     6    1
     6     6     7    2
     7     6     8    1
     8     8     9   ar
     9     9    10   ar
    10    10    11    1
    11    10    12   ar
    12    12    13    1
    13    12    14   ar
    14    14    15    1
    15    15    16    2
    16    15    17    1
    17    14    18   ar
    18     8    18   ar
    19     5    19   ar
    20    19    20   ar
    21     2    20   ar
    22     1    21    1
    23     1    22    1
    24     1    23    1
    25    11    24    1
    26    13    25    1
    27     3    26    1
    28     4    27    1
    29     9    28    1
    30    17    29    1
    31    18    30    1
    32    19    31    1
    33    20    32    1
@<TRIPOS>MOLECULE
mol41_1_22
 32 33 0 0 0
SMALL
USER_CHARGES
****
VDW energy = 154.52
@<TRIPOS>ATOM
   1 C1        2.8832    -9.8059    -4.4252  C.3     1  <O>11      -0.0397
   2 C2        1.4617   -10.1611    -4.6036  C.ar    1  <O>11      -0.0504
   3 C3        0.8050   -10.8783    -3.6012  C.ar    1  <O>11      -0.0582
   4 C4       -0.5391   -11.2290    -3.7692  C.ar    1  <O>11      -0.0507
   5 C5       -1.2224   -10.8607    -4.9311  C.ar    1  <O>11       0.0223
   6 C6       -2.6120   -11.2220    -5.1120  C.2     1  <O>11       0.1933
   7 O1       -3.4898   -10.5552    -4.5844  O.2     1  <O>11      -0.2867
   8 C7       -2.9644   -12.3813    -5.9211  C.ar    1  <O>11       0.0281
   9 C8       -2.6998   -13.6794    -5.4526  C.ar    1  <O>11      -0.0056
  10 C9       -3.0271   -14.7917    -6.2351  C.ar    1  <O>11       0.1612
  11 O2       -2.7784   -15.9832    -5.7956  O.3     1  <O>11      -0.5032
  12 C10      -3.6223   -14.6209    -7.4879  C.ar    1  <O>11       0.1889
  13 O3       -3.9235   -15.6455    -8.2182  O.3     1  <O>11      -0.5018
  14 C11      -3.8906   -13.3284    -7.9505  C.ar    1  <O>11       0.1671
  15 N1       -4.5062   -13.1565    -9.2424  N.4     1  <O>11       0.0097
  16 O4       -5.3551   -14.2962    -9.5294  O.2     1  <O>11      -0.1299
  17 O5       -3.4760   -13.0507   -10.2577  O.2     1  <O>11      -0.3960
  18 C12      -3.5714   -12.2123    -7.1772  C.ar    1  <O>11      -0.0169
  19 C13      -0.5527   -10.1366    -5.9237  C.ar    1  <O>11      -0.0507
  20 C14       0.7874    -9.7806    -5.7650  C.ar    1  <O>11      -0.0582
  21 H1        3.2314    -9.2521    -5.2971  H       1  <O>11       0.0278
  22 H2        3.4736   -10.7152    -4.3128  H       1  <O>11       0.0278
  23 H3        2.9942    -9.1880    -3.5342  H       1  <O>11       0.0278
  24 H4       -3.0625   -16.6380    -6.4523  H       1  <O>11       0.2923
  25 H5       -4.3251   -15.3440    -9.0482  H       1  <O>11       0.2924
  26 H6        1.3082   -11.1481    -2.7415  H       1  <O>11       0.0620
  27 H7       -1.0275   -11.7615    -3.0324  H       1  <O>11       0.0625
  28 H8       -2.2623   -13.8127    -4.5274  H       1  <O>11       0.0662
  29 H9       -2.8437   -12.3606   -10.2135  H       1  <O>11       0.3292
  30 H10      -3.7806   -11.2641    -7.5269  H       1  <O>11       0.0649
  31 H11      -1.0552    -9.8628    -6.7825  H       1  <O>11       0.0625
  32 H12       1.2744    -9.2420    -6.4983  H       1  <O>11       0.0620
@<TRIPOS>BOND
     1     1     2    1
     2     2     3   ar
     3     3     4   ar
     4     4     5   ar
     5     5     6    1
     6     6     7    2
     7     6     8    1
     8     8     9   ar
     9     9    10   ar
    10    10    11    1
    11    10    12   ar
    12    12    13    1
    13    12    14   ar
    14    14    15    1
    15    15    16    2
    16    15    17    1
    17    14    18   ar
    18     8    18   ar
    19     5    19   ar
    20    19    20   ar
    21     2    20   ar
    22     1    21    1
    23     1    22    1
    24     1    23    1
    25    11    24    1
    26    13    25    1
    27     3    26    1
    28     4    27    1
    29     9    28    1
    30    17    29    1
    31    18    30    1
    32    19    31    1
    33    20    32    1
@<TRIPOS>MOLECULE
mol41_1_23
 32 33 0 0 0
SMALL
USER_CHARGES
****
VDW energy = 154.77
@<TRIPOS>ATOM
   1 C1        2.8832    -9.8059    -4.4252  C.3     1  <O>11      -0.0397
   2 C2        1.4617   -10.1611    -4.6036  C.ar    1  <O>11      -0.0504
   3 C3        0.8050   -10.8783    -3.6012  C.ar    1  <O>11      -0.0582
   4 C4       -0.5391   -11.2290    -3.7692  C.ar    1  <O>11      -0.0507
   5 C5       -1.2224   -10.8607    -4.9311  C.ar    1  <O>11       0.0223
   6 C6       -2.6120   -11.2220    -5.1120  C.2     1  <O>11       0.1933
   7 O1       -3.4898   -10.5552    -4.5844  O.2     1  <O>11      -0.2867
   8 C7       -2.9644   -12.3813    -5.9211  C.ar    1  <O>11       0.0281
   9 C8       -3.0809   -13.6501    -5.3286  C.ar    1  <O>11      -0.0056
  10 C9       -3.4072   -14.7649    -6.1080  C.ar    1  <O>11       0.1612
  11 O2       -3.5110   -15.9296    -5.5534  O.3     1  <O>11      -0.5032
  12 C10      -3.6226   -14.6252    -7.4816  C.ar    1  <O>11       0.1889
  13 O3       -3.9205   -15.6531    -8.2086  O.3     1  <O>11      -0.5018
  14 C11      -3.5122   -13.3606    -8.0692  C.ar    1  <O>11       0.1671
  15 N1       -3.7369   -13.2203    -9.4860  N.4     1  <O>11       0.0097
  16 O4       -4.6881   -14.2217    -9.9265  O.2     1  <O>11      -0.1299
  17 O5       -2.4832   -13.3975   -10.1933  O.2     1  <O>11      -0.3960
  18 C12      -3.1905   -12.2417    -7.3010  C.ar    1  <O>11      -0.0169
  19 C13      -0.5527   -10.1366    -5.9237  C.ar    1  <O>11      -0.0507
  20 C14       0.7874    -9.7806    -5.7650  C.ar    1  <O>11      -0.0582
  21 H1        3.2314    -9.2521    -5.2971  H       1  <O>11       0.0278
  22 H2        3.4736   -10.7152    -4.3128  H       1  <O>11       0.0278
  23 H3        2.9942    -9.1880    -3.5342  H       1  <O>11       0.0278
  24 H4       -3.7402   -16.5905    -6.2253  H       1  <O>11       0.2923
  25 H5       -4.0339   -15.3747    -9.1309  H       1  <O>11       0.2924
  26 H6        1.3082   -11.1481    -2.7415  H       1  <O>11       0.0620
  27 H7       -1.0275   -11.7615    -3.0324  H       1  <O>11       0.0625
  28 H8       -2.9252   -13.7600    -4.3143  H       1  <O>11       0.0662
  29 H9       -1.7622   -12.8247   -10.0196  H       1  <O>11       0.3292
  30 H10      -3.1187   -11.3129    -7.7453  H       1  <O>11       0.0649
  31 H11      -1.0552    -9.8628    -6.7825  H       1  <O>11       0.0625
  32 H12       1.2744    -9.2420    -6.4983  H       1  <O>11       0.0620
@<TRIPOS>BOND
     1     1     2    1
     2     2     3   ar
     3     3     4   ar
     4     4     5   ar
     5     5     6    1
     6     6     7    2
     7     6     8    1
     8     8     9   ar
     9     9    10   ar
    10    10    11    1
    11    10    12   ar
    12    12    13    1
    13    12    14   ar
    14    14    15    1
    15    15    16    2
    16    15    17    1
    17    14    18   ar
    18     8    18   ar
    19     5    19   ar
    20    19    20   ar
    21     2    20   ar
    22     1    21    1
    23     1    22    1
    24     1    23    1
    25    11    24    1
    26    13    25    1
    27     3    26    1
    28     4    27    1
    29     9    28    1
    30    17    29    1
    31    18    30    1
    32    19    31    1
    33    20    32    1
@<TRIPOS>MOLECULE
mol41_1_24
 32 33 0 0 0
SMALL
USER_CHARGES
****
VDW energy = 155.78
@<TRIPOS>ATOM
   1 C1        2.8832    -9.8059    -4.4252  C.3     1  <O>11      -0.0397
   2 C2        1.4617   -10.1611    -4.6036  C.ar    1  <O>11      -0.0504
   3 C3        0.8050   -10.8783    -3.6012  C.ar    1  <O>11      -0.0582
   4 C4       -0.5391   -11.2290    -3.7692  C.ar    1  <O>11      -0.0507
   5 C5       -1.2224   -10.8607    -4.9311  C.ar    1  <O>11       0.0223
   6 C6       -2.6120   -11.2220    -5.1120  C.2     1  <O>11       0.1933
   7 O1       -3.4898   -10.5552    -4.5844  O.2     1  <O>11      -0.2867
   8 C7       -2.9644   -12.3813    -5.9211  C.ar    1  <O>11       0.0281
   9 C8       -3.0809   -13.6501    -5.3286  C.ar    1  <O>11      -0.0056
  10 C9       -3.4072   -14.7649    -6.1080  C.ar    1  <O>11       0.1612
  11 O2       -3.5110   -15.9296    -5.5534  O.3     1  <O>11      -0.5032
  12 C10      -3.6226   -14.6252    -7.4816  C.ar    1  <O>11       0.1889
  13 O3       -3.9205   -15.6531    -8.2086  O.3     1  <O>11      -0.5018
  14 C11      -3.5122   -13.3606    -8.0692  C.ar    1  <O>11       0.1671
  15 N1       -3.7369   -13.2203    -9.4860  N.4     1  <O>11       0.0097
  16 O4       -2.7850   -14.0397   -10.2102  O.2     1  <O>11      -0.1299
  17 O5       -3.5691   -11.8308    -9.8660  O.2     1  <O>11      -0.3960
  18 C12      -3.1905   -12.2417    -7.3010  C.ar    1  <O>11      -0.0169
  19 C13      -0.5527   -10.1366    -5.9237  C.ar    1  <O>11      -0.0507
  20 C14       0.7874    -9.7806    -5.7650  C.ar    1  <O>11      -0.0582
  21 H1        3.2314    -9.2521    -5.2971  H       1  <O>11       0.0278
  22 H2        3.4736   -10.7152    -4.3128  H       1  <O>11       0.0278
  23 H3        2.9942    -9.1880    -3.5342  H       1  <O>11       0.0278
  24 H4       -3.7402   -16.5905    -6.2253  H       1  <O>11       0.2923
  25 H5       -4.0339   -15.3747    -9.1309  H       1  <O>11       0.2924
  26 H6        1.3082   -11.1481    -2.7415  H       1  <O>11       0.0620
  27 H7       -1.0275   -11.7615    -3.0324  H       1  <O>11       0.0625
  28 H8       -2.9252   -13.7600    -4.3143  H       1  <O>11       0.0662
  29 H9       -4.1136   -11.1713    -9.4831  H       1  <O>11       0.3292
  30 H10      -3.1187   -11.3129    -7.7453  H       1  <O>11       0.0649
  31 H11      -1.0552    -9.8628    -6.7825  H       1  <O>11       0.0625
  32 H12       1.2744    -9.2420    -6.4983  H       1  <O>11       0.0620
@<TRIPOS>BOND
     1     1     2    1
     2     2     3   ar
     3     3     4   ar
     4     4     5   ar
     5     5     6    1
     6     6     7    2
     7     6     8    1
     8     8     9   ar
     9     9    10   ar
    10    10    11    1
    11    10    12   ar
    12    12    13    1
    13    12    14   ar
    14    14    15    1
    15    15    16    2
    16    15    17    1
    17    14    18   ar
    18     8    18   ar
    19     5    19   ar
    20    19    20   ar
    21     2    20   ar
    22     1    21    1
    23     1    22    1
    24     1    23    1
    25    11    24    1
    26    13    25    1
    27     3    26    1
    28     4    27    1
    29     9    28    1
    30    17    29    1
    31    18    30    1
    32    19    31    1
    33    20    32    1
@<TRIPOS>MOLECULE
mol41_1_25
 32 33 0 0 0
SMALL
USER_CHARGES
****
VDW energy = 157.46
@<TRIPOS>ATOM
   1 C1        2.8832    -9.8059    -4.4252  C.3     1  <O>11      -0.0397
   2 C2        1.4617   -10.1611    -4.6036  C.ar    1  <O>11      -0.0504
   3 C3        0.8050   -10.8783    -3.6012  C.ar    1  <O>11      -0.0582
   4 C4       -0.5391   -11.2290    -3.7692  C.ar    1  <O>11      -0.0507
   5 C5       -1.2224   -10.8607    -4.9311  C.ar    1  <O>11       0.0223
   6 C6       -2.6120   -11.2220    -5.1120  C.2     1  <O>11       0.1933
   7 O1       -3.4898   -10.5552    -4.5844  O.2     1  <O>11      -0.2867
   8 C7       -2.9644   -12.3813    -5.9211  C.ar    1  <O>11       0.0281
   9 C8       -2.5002   -13.6597    -5.5678  C.ar    1  <O>11      -0.0056
  10 C9       -2.8286   -14.7705    -6.3519  C.ar    1  <O>11       0.1612
  11 O2       -2.3953   -15.9437    -6.0191  O.3     1  <O>11      -0.5032
  12 C10      -3.6232   -14.6182    -7.4913  C.ar    1  <O>11       0.1889
  13 O3       -3.9269   -15.6412    -8.2229  O.3     1  <O>11      -0.5018
  14 C11      -4.0896   -13.3461    -7.8385  C.ar    1  <O>11       0.1671
  15 N1       -4.9105   -13.1934    -9.0135  N.4     1  <O>11       0.0097
  16 O4       -4.1734   -13.6389   -10.1797  O.2     1  <O>11      -0.1299
  17 O5       -5.2718   -11.7978    -9.1717  O.2     1  <O>11      -0.3960
  18 C12      -3.7710   -12.2320    -7.0622  C.ar    1  <O>11      -0.0169
  19 C13      -0.5527   -10.1366    -5.9237  C.ar    1  <O>11      -0.0507
  20 C14       0.7874    -9.7806    -5.7650  C.ar    1  <O>11      -0.0582
  21 H1        3.2314    -9.2521    -5.2971  H       1  <O>11       0.0278
  22 H2        3.4736   -10.7152    -4.3128  H       1  <O>11       0.0278
  23 H3        2.9942    -9.1880    -3.5342  H       1  <O>11       0.0278
  24 H4       -2.7086   -16.6002    -6.6607  H       1  <O>11       0.2923
  25 H5       -4.4797   -15.3540    -8.9665  H       1  <O>11       0.2924
  26 H6        1.3082   -11.1481    -2.7415  H       1  <O>11       0.0620
  27 H7       -1.0275   -11.7615    -3.0324  H       1  <O>11       0.0625
  28 H8       -1.9147   -13.7795    -4.7264  H       1  <O>11       0.0662
  29 H9       -5.7546   -11.3596    -8.4986  H       1  <O>11       0.3292
  30 H10      -4.1269   -11.2996    -7.3252  H       1  <O>11       0.0649
  31 H11      -1.0552    -9.8628    -6.7825  H       1  <O>11       0.0625
  32 H12       1.2744    -9.2420    -6.4983  H       1  <O>11       0.0620
@<TRIPOS>BOND
     1     1     2    1
     2     2     3   ar
     3     3     4   ar
     4     4     5   ar
     5     5     6    1
     6     6     7    2
     7     6     8    1
     8     8     9   ar
     9     9    10   ar
    10    10    11    1
    11    10    12   ar
    12    12    13    1
    13    12    14   ar
    14    14    15    1
    15    15    16    2
    16    15    17    1
    17    14    18   ar
    18     8    18   ar
    19     5    19   ar
    20    19    20   ar
    21     2    20   ar
    22     1    21    1
    23     1    22    1
    24     1    23    1
    25    11    24    1
    26    13    25    1
    27     3    26    1
    28     4    27    1
    29     9    28    1
    30    17    29    1
    31    18    30    1
    32    19    31    1
    33    20    32    1
@<TRIPOS>MOLECULE
mol41_1_26
 32 33 0 0 0
SMALL
USER_CHARGES
****
VDW energy = 157.75
@<TRIPOS>ATOM
   1 C1        2.8832    -9.8059    -4.4252  C.3     1  <O>11      -0.0397
   2 C2        1.4617   -10.1611    -4.6036  C.ar    1  <O>11      -0.0504
   3 C3        0.8050   -10.8783    -3.6012  C.ar    1  <O>11      -0.0582
   4 C4       -0.5391   -11.2290    -3.7692  C.ar    1  <O>11      -0.0507
   5 C5       -1.2224   -10.8607    -4.9311  C.ar    1  <O>11       0.0223
   6 C6       -2.6120   -11.2220    -5.1120  C.2     1  <O>11       0.1933
   7 O1       -3.4898   -10.5552    -4.5844  O.2     1  <O>11      -0.2867
   8 C7       -2.9644   -12.3813    -5.9211  C.ar    1  <O>11       0.0281
   9 C8       -3.1908   -12.2402    -7.3008  C.ar    1  <O>11      -0.0056
  10 C9       -3.5412   -13.3512    -8.0750  C.ar    1  <O>11       0.1612
  11 O2       -3.7488   -13.2111    -9.3446  O.3     1  <O>11      -0.5032
  12 C10      -3.6662   -14.6109    -7.4830  C.ar    1  <O>11       0.1889
  13 O3       -3.9941   -15.6416    -8.1929  O.3     1  <O>11      -0.5018
  14 C11      -3.4347   -14.7511    -6.1107  C.ar    1  <O>11       0.1671
  15 N1       -3.5630   -16.0523    -5.5042  N.4     1  <O>11       0.0097
  16 O4       -3.2269   -17.0743    -6.4759  O.2     1  <O>11      -0.1299
  17 O5       -4.9282   -16.2420    -5.0529  O.2     1  <O>11      -0.3960
  18 C12      -3.0818   -13.6506    -5.3298  C.ar    1  <O>11      -0.0169
  19 C13      -0.5527   -10.1366    -5.9237  C.ar    1  <O>11      -0.0507
  20 C14       0.7874    -9.7806    -5.7650  C.ar    1  <O>11      -0.0582
  21 H1        3.2314    -9.2521    -5.2971  H       1  <O>11       0.0278
  22 H2        3.4736   -10.7152    -4.3128  H       1  <O>11       0.0278
  23 H3        2.9942    -9.1880    -3.5342  H       1  <O>11       0.0278
  24 H4       -3.9813   -14.0690    -9.7329  H       1  <O>11       0.2923
  25 H5       -4.0346   -16.4263    -7.6240  H       1  <O>11       0.2924
  26 H6        1.3082   -11.1481    -2.7415  H       1  <O>11       0.0620
  27 H7       -1.0275   -11.7615    -3.0324  H       1  <O>11       0.0625
  28 H8       -3.0981   -11.3131    -7.7447  H       1  <O>11       0.0662
  29 H9       -5.2977   -15.6586    -4.4196  H       1  <O>11       0.3292
  30 H10      -2.9070   -13.7684    -4.3195  H       1  <O>11       0.0649
  31 H11      -1.0552    -9.8628    -6.7825  H       1  <O>11       0.0625
  32 H12       1.2744    -9.2420    -6.4983  H       1  <O>11       0.0620
@<TRIPOS>BOND
     1     1     2    1
     2     2     3   ar
     3     3     4   ar
     4     4     5   ar
     5     5     6    1
     6     6     7    2
     7     6     8    1
     8     8     9   ar
     9     9    10   ar
    10    10    11    1
    11    10    12   ar
    12    12    13    1
    13    12    14   ar
    14    14    15    1
    15    15    16    2
    16    15    17    1
    17    14    18   ar
    18     8    18   ar
    19     5    19   ar
    20    19    20   ar
    21     2    20   ar
    22     1    21    1
    23     1    22    1
    24     1    23    1
    25    11    24    1
    26    13    25    1
    27     3    26    1
    28     4    27    1
    29     9    28    1
    30    17    29    1
    31    18    30    1
    32    19    31    1
    33    20    32    1
@<TRIPOS>MOLECULE
mol41_1_27
 32 33 0 0 0
SMALL
USER_CHARGES
****
VDW energy = 159.36
@<TRIPOS>ATOM
   1 C1        2.8832    -9.8059    -4.4252  C.3     1  <O>11      -0.0397
   2 C2        1.4617   -10.1611    -4.6036  C.ar    1  <O>11      -0.0504
   3 C3        0.8050   -10.8783    -3.6012  C.ar    1  <O>11      -0.0582
   4 C4       -0.5391   -11.2290    -3.7692  C.ar    1  <O>11      -0.0507
   5 C5       -1.2224   -10.8607    -4.9311  C.ar    1  <O>11       0.0223
   6 C6       -2.6120   -11.2220    -5.1120  C.2     1  <O>11       0.1933
   7 O1       -3.4898   -10.5552    -4.5844  O.2     1  <O>11      -0.2867
   8 C7       -2.9644   -12.3813    -5.9211  C.ar    1  <O>11       0.0281
   9 C8       -2.5953   -12.4386    -7.2758  C.ar    1  <O>11      -0.0056
  10 C9       -2.9446   -13.5463    -8.0554  C.ar    1  <O>11       0.1612
  11 O2       -2.6013   -13.5894    -9.3024  O.3     1  <O>11      -0.5032
  12 C10      -3.6610   -14.6059    -7.4925  C.ar    1  <O>11       0.1889
  13 O3       -3.9907   -15.6312    -8.2093  O.3     1  <O>11      -0.5018
  14 C11      -4.0225   -14.5503    -6.1424  C.ar    1  <O>11       0.1671
  15 N1       -4.7599   -15.6460    -5.5651  N.4     1  <O>11       0.0097
  16 O4       -6.0167   -15.8078    -6.2695  O.2     1  <O>11      -0.1299
  17 O5       -5.0202   -15.3683    -4.1656  O.2     1  <O>11      -0.3960
  18 C12      -3.6768   -13.4521    -5.3550  C.ar    1  <O>11      -0.0169
  19 C13      -0.5527   -10.1366    -5.9237  C.ar    1  <O>11      -0.0507
  20 C14       0.7874    -9.7806    -5.7650  C.ar    1  <O>11      -0.0582
  21 H1        3.2314    -9.2521    -5.2971  H       1  <O>11       0.0278
  22 H2        3.4736   -10.7152    -4.3128  H       1  <O>11       0.0278
  23 H3        2.9942    -9.1880    -3.5342  H       1  <O>11       0.0278
  24 H4       -2.9173   -14.4166    -9.6983  H       1  <O>11       0.2923
  25 H5       -4.4803   -16.2646    -7.6615  H       1  <O>11       0.2924
  26 H6        1.3082   -11.1481    -2.7415  H       1  <O>11       0.0620
  27 H7       -1.0275   -11.7615    -3.0324  H       1  <O>11       0.0625
  28 H8       -2.0644   -11.6604    -7.6973  H       1  <O>11       0.0662
  29 H9       -4.3060   -15.2378    -3.5732  H       1  <O>11       0.3292
  30 H10      -3.9436   -13.4261    -4.3584  H       1  <O>11       0.0649
  31 H11      -1.0552    -9.8628    -6.7825  H       1  <O>11       0.0625
  32 H12       1.2744    -9.2420    -6.4983  H       1  <O>11       0.0620
@<TRIPOS>BOND
     1     1     2    1
     2     2     3   ar
     3     3     4   ar
     4     4     5   ar
     5     5     6    1
     6     6     7    2
     7     6     8    1
     8     8     9   ar
     9     9    10   ar
    10    10    11    1
    11    10    12   ar
    12    12    13    1
    13    12    14   ar
    14    14    15    1
    15    15    16    2
    16    15    17    1
    17    14    18   ar
    18     8    18   ar
    19     5    19   ar
    20    19    20   ar
    21     2    20   ar
    22     1    21    1
    23     1    22    1
    24     1    23    1
    25    11    24    1
    26    13    25    1
    27     3    26    1
    28     4    27    1
    29     9    28    1
    30    17    29    1
    31    18    30    1
    32    19    31    1
    33    20    32    1
@<TRIPOS>MOLECULE
mol41_1_28
 32 33 0 0 0
SMALL
USER_CHARGES
****
VDW energy = 160.59
@<TRIPOS>ATOM
   1 C1        2.8832    -9.8059    -4.4252  C.3     1  <O>11      -0.0397
   2 C2        1.4617   -10.1611    -4.6036  C.ar    1  <O>11      -0.0504
   3 C3        0.8050   -10.8783    -3.6012  C.ar    1  <O>11      -0.0582
   4 C4       -0.5391   -11.2290    -3.7692  C.ar    1  <O>11      -0.0507
   5 C5       -1.2224   -10.8607    -4.9311  C.ar    1  <O>11       0.0223
   6 C6       -2.6120   -11.2220    -5.1120  C.2     1  <O>11       0.1933
   7 O1       -3.4898   -10.5552    -4.5844  O.2     1  <O>11      -0.2867
   8 C7       -2.9644   -12.3813    -5.9211  C.ar    1  <O>11       0.0281
   9 C8       -4.3120   -12.7371    -6.1005  C.ar    1  <O>11      -0.0056
  10 C9       -4.6492   -13.8574    -6.8672  C.ar    1  <O>11       0.1612
  11 O2       -5.8930   -14.1779    -7.0256  O.3     1  <O>11      -0.5032
  12 C10      -3.6489   -14.6300    -7.4632  C.ar    1  <O>11       0.1889
  13 O3       -3.9542   -15.6697    -8.1701  O.3     1  <O>11      -0.5018
  14 C11      -2.3083   -14.2712    -7.2889  C.ar    1  <O>11       0.1671
  15 N1       -1.2795   -15.0696    -7.9067  N.4     1  <O>11       0.0097
  16 O4       -1.3576   -16.4289    -7.4087  O.2     1  <O>11      -0.1299
  17 O5        0.0207   -14.5107    -7.5900  O.2     1  <O>11      -0.3960
  18 C12      -1.9607   -13.1544    -6.5291  C.ar    1  <O>11      -0.0169
  19 C13      -0.5527   -10.1366    -5.9237  C.ar    1  <O>11      -0.0507
  20 C14       0.7874    -9.7806    -5.7650  C.ar    1  <O>11      -0.0582
  21 H1        3.2314    -9.2521    -5.2971  H       1  <O>11       0.0278
  22 H2        3.4736   -10.7152    -4.3128  H       1  <O>11       0.0278
  23 H3        2.9942    -9.1880    -3.5342  H       1  <O>11       0.0278
  24 H4       -5.9563   -14.9725    -7.5783  H       1  <O>11       0.2923
  25 H5       -3.1428   -16.0830    -8.5044  H       1  <O>11       0.2924
  26 H6        1.3082   -11.1481    -2.7415  H       1  <O>11       0.0620
  27 H7       -1.0275   -11.7615    -3.0324  H       1  <O>11       0.0625
  28 H8       -5.0558   -12.1697    -5.6648  H       1  <O>11       0.0662
  29 H9        0.2288   -13.6337    -7.8464  H       1  <O>11       0.3292
  30 H10      -0.9682   -12.8962    -6.4135  H       1  <O>11       0.0649
  31 H11      -1.0552    -9.8628    -6.7825  H       1  <O>11       0.0625
  32 H12       1.2744    -9.2420    -6.4983  H       1  <O>11       0.0620
@<TRIPOS>BOND
     1     1     2    1
     2     2     3   ar
     3     3     4   ar
     4     4     5   ar
     5     5     6    1
     6     6     7    2
     7     6     8    1
     8     8     9   ar
     9     9    10   ar
    10    10    11    1
    11    10    12   ar
    12    12    13    1
    13    12    14   ar
    14    14    15    1
    15    15    16    2
    16    15    17    1
    17    14    18   ar
    18     8    18   ar
    19     5    19   ar
    20    19    20   ar
    21     2    20   ar
    22     1    21    1
    23     1    22    1
    24     1    23    1
    25    11    24    1
    26    13    25    1
    27     3    26    1
    28     4    27    1
    29     9    28    1
    30    17    29    1
    31    18    30    1
    32    19    31    1
    33    20    32    1
@<TRIPOS>MOLECULE
mol41_1_29
 32 33 0 0 0
SMALL
USER_CHARGES
****
VDW energy = 163.00
@<TRIPOS>ATOM
   1 C1        2.8832    -9.8059    -4.4252  C.3     1  <O>11      -0.0397
   2 C2        1.4617   -10.1611    -4.6036  C.ar    1  <O>11      -0.0504
   3 C3        0.8050   -10.8783    -3.6012  C.ar    1  <O>11      -0.0582
   4 C4       -0.5391   -11.2290    -3.7692  C.ar    1  <O>11      -0.0507
   5 C5       -1.2224   -10.8607    -4.9311  C.ar    1  <O>11       0.0223
   6 C6       -2.6120   -11.2220    -5.1120  C.2     1  <O>11       0.1933
   7 O1       -3.4898   -10.5552    -4.5844  O.2     1  <O>11      -0.2867
   8 C7       -2.9644   -12.3813    -5.9211  C.ar    1  <O>11       0.0281
   9 C8       -4.3120   -12.7371    -6.1005  C.ar    1  <O>11      -0.0056
  10 C9       -4.6492   -13.8574    -6.8672  C.ar    1  <O>11       0.1612
  11 O2       -5.8930   -14.1779    -7.0256  O.3     1  <O>11      -0.5032
  12 C10      -3.6489   -14.6300    -7.4632  C.ar    1  <O>11       0.1889
  13 O3       -3.9542   -15.6697    -8.1701  O.3     1  <O>11      -0.5018
  14 C11      -2.3083   -14.2712    -7.2889  C.ar    1  <O>11       0.1671
  15 N1       -1.2795   -15.0696    -7.9067  N.4     1  <O>11       0.0097
  16 O4       -1.7927   -15.6596    -9.1276  O.2     1  <O>11      -0.1299
  17 O5       -0.8708   -16.1204    -6.9944  O.2     1  <O>11      -0.3960
  18 C12      -1.9607   -13.1544    -6.5291  C.ar    1  <O>11      -0.0169
  19 C13      -0.5527   -10.1366    -5.9237  C.ar    1  <O>11      -0.0507
  20 C14       0.7874    -9.7806    -5.7650  C.ar    1  <O>11      -0.0582
  21 H1        3.2314    -9.2521    -5.2971  H       1  <O>11       0.0278
  22 H2        3.4736   -10.7152    -4.3128  H       1  <O>11       0.0278
  23 H3        2.9942    -9.1880    -3.5342  H       1  <O>11       0.0278
  24 H4       -5.9563   -14.9725    -7.5783  H       1  <O>11       0.2923
  25 H5       -3.1428   -16.0830    -8.5044  H       1  <O>11       0.2924
  26 H6        1.3082   -11.1481    -2.7415  H       1  <O>11       0.0620
  27 H7       -1.0275   -11.7615    -3.0324  H       1  <O>11       0.0625
  28 H8       -5.0558   -12.1697    -5.6648  H       1  <O>11       0.0662
  29 H9       -0.5152   -15.9006    -6.1558  H       1  <O>11       0.3292
  30 H10      -0.9682   -12.8962    -6.4135  H       1  <O>11       0.0649
  31 H11      -1.0552    -9.8628    -6.7825  H       1  <O>11       0.0625
  32 H12       1.2744    -9.2420    -6.4983  H       1  <O>11       0.0620
@<TRIPOS>BOND
     1     1     2    1
     2     2     3   ar
     3     3     4   ar
     4     4     5   ar
     5     5     6    1
     6     6     7    2
     7     6     8    1
     8     8     9   ar
     9     9    10   ar
    10    10    11    1
    11    10    12   ar
    12    12    13    1
    13    12    14   ar
    14    14    15    1
    15    15    16    2
    16    15    17    1
    17    14    18   ar
    18     8    18   ar
    19     5    19   ar
    20    19    20   ar
    21     2    20   ar
    22     1    21    1
    23     1    22    1
    24     1    23    1
    25    11    24    1
    26    13    25    1
    27     3    26    1
    28     4    27    1
    29     9    28    1
    30    17    29    1
    31    18    30    1
    32    19    31    1
    33    20    32    1
@<TRIPOS>MOLECULE
mol41_1_30
 32 33 0 0 0
SMALL
USER_CHARGES
****
VDW energy = 171.28
@<TRIPOS>ATOM
   1 C1        2.8832    -9.8059    -4.4252  C.3     1  <O>11      -0.0397
   2 C2        1.4617   -10.1611    -4.6036  C.ar    1  <O>11      -0.0504
   3 C3        0.8050   -10.8783    -3.6012  C.ar    1  <O>11      -0.0582
   4 C4       -0.5391   -11.2290    -3.7692  C.ar    1  <O>11      -0.0507
   5 C5       -1.2224   -10.8607    -4.9311  C.ar    1  <O>11       0.0223
   6 C6       -2.6120   -11.2220    -5.1120  C.2     1  <O>11       0.1933
   7 O1       -3.3887   -10.4260    -5.6185  O.2     1  <O>11      -0.2867
   8 C7       -3.0853   -12.5333    -4.6888  C.ar    1  <O>11       0.0281
   9 C8       -2.9811   -12.9240    -3.3429  C.ar    1  <O>11      -0.0056
  10 C9       -3.4244   -14.1878    -2.9394  C.ar    1  <O>11       0.1612
  11 O2       -3.3231   -14.5390    -1.6979  O.3     1  <O>11      -0.5032
  12 C10      -3.9768   -15.0710    -3.8708  C.ar    1  <O>11       0.1889
  13 O3       -4.3847   -16.2429    -3.5045  O.3     1  <O>11      -0.5018
  14 C11      -4.0855   -14.6786    -5.2090  C.ar    1  <O>11       0.1671
  15 N1       -4.6575   -15.5917    -6.1664  N.4     1  <O>11       0.0097
  16 O4       -3.8668   -16.8062    -6.2089  O.2     1  <O>11      -0.1299
  17 O5       -4.6669   -14.9726    -7.4779  O.2     1  <O>11      -0.3960
  18 C12      -3.6497   -13.4196    -5.6219  C.ar    1  <O>11      -0.0169
  19 C13      -0.5527   -10.1366    -5.9237  C.ar    1  <O>11      -0.0507
  20 C14       0.7874    -9.7806    -5.7650  C.ar    1  <O>11      -0.0582
  21 H1        3.2314    -9.2521    -5.2971  H       1  <O>11       0.0278
  22 H2        3.4736   -10.7152    -4.3128  H       1  <O>11       0.0278
  23 H3        2.9942    -9.1880    -3.5342  H       1  <O>11       0.0278
  24 H4       -3.6719   -15.4369    -1.5844  H       1  <O>11       0.2923
  25 H5       -4.7360   -16.7179    -4.2739  H       1  <O>11       0.2924
  26 H6        1.3082   -11.1481    -2.7415  H       1  <O>11       0.0620
  27 H7       -1.0275   -11.7615    -3.0324  H       1  <O>11       0.0625
  28 H8       -2.5760   -12.2758    -2.6495  H       1  <O>11       0.0662
  29 H9       -5.1377   -14.1743    -7.6158  H       1  <O>11       0.3292
  30 H10      -3.7415   -13.1395    -6.6109  H       1  <O>11       0.0649
  31 H11      -1.0552    -9.8628    -6.7825  H       1  <O>11       0.0625
  32 H12       1.2744    -9.2420    -6.4983  H       1  <O>11       0.0620
@<TRIPOS>BOND
     1     1     2    1
     2     2     3   ar
     3     3     4   ar
     4     4     5   ar
     5     5     6    1
     6     6     7    2
     7     6     8    1
     8     8     9   ar
     9     9    10   ar
    10    10    11    1
    11    10    12   ar
    12    12    13    1
    13    12    14   ar
    14    14    15    1
    15    15    16    2
    16    15    17    1
    17    14    18   ar
    18     8    18   ar
    19     5    19   ar
    20    19    20   ar
    21     2    20   ar
    22     1    21    1
    23     1    22    1
    24     1    23    1
    25    11    24    1
    26    13    25    1
    27     3    26    1
    28     4    27    1
    29     9    28    1
    30    17    29    1
    31    18    30    1
    32    19    31    1
    33    20    32    1
