@<TRIPOS>MOLECULE
mol54_1_1
 35 37 0 0 0
SMALL
USER_CHARGES
****
VDW energy = -74.87
@<TRIPOS>ATOM
   1 N1        3.5126    -9.1101    -5.4025  N.am    1  <O>11      -0.3253
   2 C1        2.8552    -9.8129    -4.4288  C.2     1  <O>11       0.2416
   3 O1        3.4454   -10.1461    -3.4119  O.2     1  <O>11      -0.2704
   4 C2        1.4620   -10.1610    -4.6040  C.ar    1  <O>11       0.0400
   5 C3        1.1317   -11.3708    -5.2197  C.ar    1  <O>11      -0.0494
   6 C4       -0.2136   -11.7084    -5.4038  C.ar    1  <O>11      -0.0576
   7 C5       -1.2215   -10.8431    -4.9705  C.ar    1  <O>11      -0.0192
   8 C6       -0.8757    -9.6381    -4.3492  C.ar    1  <O>11       0.1326
   9 O2       -1.8640    -8.7965    -3.9259  O.3     1  <O>11      -0.4236
  10 C7       -2.2069    -9.1048    -2.6296  C.ar    1  <O>11       0.3239
  11 N2       -2.6756   -10.3435    -2.3504  N.ar    1  <O>11      -0.2030
  12 C8       -3.0033   -10.6217    -1.0751  C.ar    1  <O>11       0.0350
  13 C9       -2.8888    -9.7194    -0.0496  C.ar    1  <O>11      -0.0173
  14 C10      -2.4079    -8.4868    -0.4103  C.ar    1  <O>11       0.0778
  15 C11      -2.2526    -7.4760     0.5834  C.ar    1  <O>11       0.0006
  16 C12      -1.0416    -7.3535     1.2865  C.ar    1  <O>11      -0.0526
  17 C13      -0.8960    -6.3684     2.2700  C.ar    1  <O>11      -0.0611
  18 C14      -1.9504    -5.4992     2.5594  C.ar    1  <O>11      -0.0617
  19 C15      -3.1538    -5.6187     1.8544  C.ar    1  <O>11      -0.0611
  20 C16      -3.3080    -6.5954     0.8698  C.ar    1  <O>11      -0.0526
  21 N3       -2.0657    -8.1601    -1.6713  N.ar    1  <O>11      -0.1946
  22 C17       0.4633    -9.2931    -4.1598  C.ar    1  <O>11      -0.0071
  23 H1        3.0200    -8.8319    -6.2513  H       1  <O>11       0.1453
  24 H2        4.4949    -8.8646    -5.2793  H       1  <O>11       0.1453
  25 H3        1.8757   -12.0117    -5.5369  H       1  <O>11       0.0625
  26 H4       -0.4623   -12.5995    -5.8611  H       1  <O>11       0.0619
  27 H5       -2.2138   -11.0910    -5.1078  H       1  <O>11       0.0654
  28 H6       -3.3601   -11.5653    -0.8575  H       1  <O>11       0.0832
  29 H7       -3.1457    -9.9508     0.9228  H       1  <O>11       0.0654
  30 H8       -0.2580    -7.9916     1.0771  H       1  <O>11       0.0624
  31 H9       -0.0051    -6.2838     2.7839  H       1  <O>11       0.0618
  32 H10      -1.8431    -4.7750     3.2868  H       1  <O>11       0.0618
  33 H11      -3.9349    -4.9779     2.0650  H       1  <O>11       0.0618
  34 H12      -4.1976    -6.6704     0.3522  H       1  <O>11       0.0624
  35 H13       0.7123    -8.4055    -3.6961  H       1  <O>11       0.0662
@<TRIPOS>BOND
     1     1     2   am
     2     2     3    2
     3     2     4    1
     4     4     5   ar
     5     5     6   ar
     6     6     7   ar
     7     7     8   ar
     8     8     9    1
     9     9    10    1
    10    10    11   ar
    11    11    12   ar
    12    12    13   ar
    13    13    14   ar
    14    14    15    1
    15    15    16   ar
    16    16    17   ar
    17    17    18   ar
    18    18    19   ar
    19    19    20   ar
    20    15    20   ar
    21    14    21   ar
    22    10    21   ar
    23     8    22   ar
    24     4    22   ar
    25     1    23    1
    26     1    24    1
    27     5    25    1
    28     6    26    1
    29     7    27    1
    30    12    28    1
    31    13    29    1
    32    16    30    1
    33    17    31    1
    34    18    32    1
    35    19    33    1
    36    20    34    1
    37    22    35    1
@<TRIPOS>MOLECULE
mol54_1_2
 35 37 0 0 0
SMALL
USER_CHARGES
****
VDW energy = -73.95
@<TRIPOS>ATOM
   1 N1        3.5126    -9.1101    -5.4025  N.am    1  <O>11      -0.3253
   2 C1        2.8552    -9.8129    -4.4288  C.2     1  <O>11       0.2416
   3 O1        3.4454   -10.1461    -3.4119  O.2     1  <O>11      -0.2704
   4 C2        1.4620   -10.1610    -4.6040  C.ar    1  <O>11       0.0400
   5 C3        1.1317   -11.3708    -5.2197  C.ar    1  <O>11      -0.0494
   6 C4       -0.2136   -11.7084    -5.4038  C.ar    1  <O>11      -0.0576
   7 C5       -1.2215   -10.8431    -4.9705  C.ar    1  <O>11      -0.0192
   8 C6       -0.8757    -9.6381    -4.3492  C.ar    1  <O>11       0.1326
   9 O2       -1.8640    -8.7965    -3.9259  O.3     1  <O>11      -0.4236
  10 C7       -2.2069    -9.1048    -2.6296  C.ar    1  <O>11       0.3239
  11 N2       -3.1748    -8.3843    -2.0164  N.ar    1  <O>11      -0.2030
  12 C8       -3.4935    -8.7054    -0.7490  C.ar    1  <O>11       0.0350
  13 C9       -2.8905    -9.7185    -0.0498  C.ar    1  <O>11      -0.0173
  14 C10      -1.9201   -10.4020    -0.7368  C.ar    1  <O>11       0.0778
  15 C11      -1.2310   -11.4742    -0.0973  C.ar    1  <O>11       0.0006
  16 C12      -1.7247   -12.7872    -0.1866  C.ar    1  <O>11      -0.0526
  17 C13      -1.0532   -13.8359     0.4523  C.ar    1  <O>11      -0.0611
  18 C14       0.1121   -13.5872     1.1813  C.ar    1  <O>11      -0.0617
  19 C15       0.6056   -12.2799     1.2645  C.ar    1  <O>11      -0.0611
  20 C16      -0.0546   -11.2279     0.6286  C.ar    1  <O>11      -0.0526
  21 N3       -1.5660   -10.1198    -2.0052  N.ar    1  <O>11      -0.1946
  22 C17       0.4633    -9.2931    -4.1598  C.ar    1  <O>11      -0.0071
  23 H1        3.0200    -8.8319    -6.2513  H       1  <O>11       0.1453
  24 H2        4.4949    -8.8646    -5.2793  H       1  <O>11       0.1453
  25 H3        1.8757   -12.0117    -5.5369  H       1  <O>11       0.0625
  26 H4       -0.4623   -12.5995    -5.8611  H       1  <O>11       0.0619
  27 H5       -2.2138   -11.0910    -5.1078  H       1  <O>11       0.0654
  28 H6       -4.2317    -8.1593    -0.2780  H       1  <O>11       0.0832
  29 H7       -3.1480    -9.9500     0.9223  H       1  <O>11       0.0654
  30 H8       -2.5845   -12.9785    -0.7244  H       1  <O>11       0.0624
  31 H9       -1.4207   -14.7978     0.3844  H       1  <O>11       0.0618
  32 H10       0.6049   -14.3607     1.6544  H       1  <O>11       0.0618
  33 H11       1.4666   -12.0923     1.8017  H       1  <O>11       0.0618
  34 H12       0.3216   -10.2690     0.6918  H       1  <O>11       0.0624
  35 H13       0.7123    -8.4055    -3.6961  H       1  <O>11       0.0662
@<TRIPOS>BOND
     1     1     2   am
     2     2     3    2
     3     2     4    1
     4     4     5   ar
     5     5     6   ar
     6     6     7   ar
     7     7     8   ar
     8     8     9    1
     9     9    10    1
    10    10    11   ar
    11    11    12   ar
    12    12    13   ar
    13    13    14   ar
    14    14    15    1
    15    15    16   ar
    16    16    17   ar
    17    17    18   ar
    18    18    19   ar
    19    19    20   ar
    20    15    20   ar
    21    14    21   ar
    22    10    21   ar
    23     8    22   ar
    24     4    22   ar
    25     1    23    1
    26     1    24    1
    27     5    25    1
    28     6    26    1
    29     7    27    1
    30    12    28    1
    31    13    29    1
    32    16    30    1
    33    17    31    1
    34    18    32    1
    35    19    33    1
    36    20    34    1
    37    22    35    1
@<TRIPOS>MOLECULE
mol54_1_3
 35 37 0 0 0
SMALL
USER_CHARGES
****
VDW energy = -65.34
@<TRIPOS>ATOM
   1 N1        3.5126    -9.1101    -5.4025  N.am    1  <O>11      -0.3253
   2 C1        2.8552    -9.8129    -4.4288  C.2     1  <O>11       0.2416
   3 O1        3.4454   -10.1461    -3.4119  O.2     1  <O>11      -0.2704
   4 C2        1.4620   -10.1610    -4.6040  C.ar    1  <O>11       0.0400
   5 C3        0.9118   -11.1883    -3.8335  C.ar    1  <O>11      -0.0494
   6 C4       -0.4317   -11.5388    -4.0063  C.ar    1  <O>11      -0.0576
   7 C5       -1.2203   -10.8628    -4.9408  C.ar    1  <O>11      -0.0192
   8 C6       -0.6575    -9.8313    -5.7005  C.ar    1  <O>11       0.1326
   9 O2       -1.4324    -9.1723    -6.6112  O.3     1  <O>11      -0.4236
  10 C7       -1.9036   -10.0651    -7.5461  C.ar    1  <O>11       0.3239
  11 N2       -3.0838   -10.6890    -7.3231  N.ar    1  <O>11      -0.2030
  12 C8       -3.5244   -11.5569    -8.2524  C.ar    1  <O>11       0.0350
  13 C9       -2.8424   -11.8413    -9.4069  C.ar    1  <O>11      -0.0173
  14 C10      -1.6559   -11.1713    -9.5616  C.ar    1  <O>11       0.0778
  15 C11      -0.8692   -11.3981   -10.7291  C.ar    1  <O>11       0.0006
  16 C12      -0.5679   -10.3352   -11.5982  C.ar    1  <O>11      -0.0526
  17 C13       0.1942   -10.5628   -12.7498  C.ar    1  <O>11      -0.0611
  18 C14       0.6622   -11.8456   -13.0439  C.ar    1  <O>11      -0.0617
  19 C15       0.3661   -12.9020   -12.1745  C.ar    1  <O>11      -0.0611
  20 C16      -0.3901   -12.6850   -11.0221  C.ar    1  <O>11      -0.0526
  21 N3       -1.1728   -10.2934    -8.6617  N.ar    1  <O>11      -0.1946
  22 C17       0.6812    -9.4735    -5.5343  C.ar    1  <O>11      -0.0071
  23 H1        3.0200    -8.8319    -6.2513  H       1  <O>11       0.1453
  24 H2        4.4949    -8.8646    -5.2793  H       1  <O>11       0.1453
  25 H3        1.4929   -11.6857    -3.1408  H       1  <O>11       0.0625
  26 H4       -0.8415   -12.2992    -3.4417  H       1  <O>11       0.0619
  27 H5       -2.2108   -11.1223    -5.0698  H       1  <O>11       0.0654
  28 H6       -4.4243   -12.0341    -8.0869  H       1  <O>11       0.0832
  29 H7       -3.1960   -12.5106   -10.1083  H       1  <O>11       0.0654
  30 H8       -0.9095    -9.3845   -11.3866  H       1  <O>11       0.0624
  31 H9        0.4113    -9.7790   -13.3849  H       1  <O>11       0.0618
  32 H10       1.2215   -12.0130   -13.8949  H       1  <O>11       0.0618
  33 H11       0.7107   -13.8511   -12.3881  H       1  <O>11       0.0618
  34 H12      -0.5972   -13.4701   -10.3852  H       1  <O>11       0.0624
  35 H13       1.0895    -8.7083    -6.0937  H       1  <O>11       0.0662
@<TRIPOS>BOND
     1     1     2   am
     2     2     3    2
     3     2     4    1
     4     4     5   ar
     5     5     6   ar
     6     6     7   ar
     7     7     8   ar
     8     8     9    1
     9     9    10    1
    10    10    11   ar
    11    11    12   ar
    12    12    13   ar
    13    13    14   ar
    14    14    15    1
    15    15    16   ar
    16    16    17   ar
    17    17    18   ar
    18    18    19   ar
    19    19    20   ar
    20    15    20   ar
    21    14    21   ar
    22    10    21   ar
    23     8    22   ar
    24     4    22   ar
    25     1    23    1
    26     1    24    1
    27     5    25    1
    28     6    26    1
    29     7    27    1
    30    12    28    1
    31    13    29    1
    32    16    30    1
    33    17    31    1
    34    18    32    1
    35    19    33    1
    36    20    34    1
    37    22    35    1
@<TRIPOS>MOLECULE
mol54_1_4
 35 37 0 0 0
SMALL
USER_CHARGES
****
VDW energy = -64.79
@<TRIPOS>ATOM
   1 N1        3.5126    -9.1101    -5.4025  N.am    1  <O>11      -0.3253
   2 C1        2.8552    -9.8129    -4.4288  C.2     1  <O>11       0.2416
   3 O1        3.4454   -10.1461    -3.4119  O.2     1  <O>11      -0.2704
   4 C2        1.4620   -10.1610    -4.6040  C.ar    1  <O>11       0.0400
   5 C3        1.1317   -11.3708    -5.2197  C.ar    1  <O>11      -0.0494
   6 C4       -0.2136   -11.7084    -5.4038  C.ar    1  <O>11      -0.0576
   7 C5       -1.2215   -10.8431    -4.9705  C.ar    1  <O>11      -0.0192
   8 C6       -0.8757    -9.6381    -4.3492  C.ar    1  <O>11       0.1326
   9 O2       -1.8640    -8.7965    -3.9259  O.3     1  <O>11      -0.4236
  10 C7       -1.3544    -7.9189    -2.9968  C.ar    1  <O>11       0.3239
  11 N2       -0.8163    -8.4088    -1.8556  N.ar    1  <O>11      -0.2030
  12 C8       -0.3233    -7.5310    -0.9626  C.ar    1  <O>11       0.0350
  13 C9       -0.3391    -6.1729    -1.1475  C.ar    1  <O>11      -0.0173
  14 C10      -0.9006    -5.7529    -2.3262  C.ar    1  <O>11       0.0778
  15 C11      -0.9669    -4.3578    -2.6138  C.ar    1  <O>11       0.0006
  16 C12       0.0859    -3.7240    -3.2964  C.ar    1  <O>11      -0.0526
  17 C13       0.0237    -2.3522    -3.5666  C.ar    1  <O>11      -0.0611
  18 C14      -1.0836    -1.6029    -3.1624  C.ar    1  <O>11      -0.0617
  19 C15      -2.1338    -2.2366    -2.4877  C.ar    1  <O>11      -0.0611
  20 C16      -2.0831    -3.6044    -2.2163  C.ar    1  <O>11      -0.0526
  21 N3       -1.4063    -6.5910    -3.2512  N.ar    1  <O>11      -0.1946
  22 C17       0.4633    -9.2931    -4.1598  C.ar    1  <O>11      -0.0071
  23 H1        3.0200    -8.8319    -6.2513  H       1  <O>11       0.1453
  24 H2        4.4949    -8.8646    -5.2793  H       1  <O>11       0.1453
  25 H3        1.8757   -12.0117    -5.5369  H       1  <O>11       0.0625
  26 H4       -0.4623   -12.5995    -5.8611  H       1  <O>11       0.0619
  27 H5       -2.2138   -11.0910    -5.1078  H       1  <O>11       0.0654
  28 H6        0.0889    -7.9002    -0.0915  H       1  <O>11       0.0832
  29 H7        0.0434    -5.5146    -0.4509  H       1  <O>11       0.0654
  30 H8        0.9066    -4.2716    -3.5990  H       1  <O>11       0.0624
  31 H9        0.8000    -1.8919    -4.0670  H       1  <O>11       0.0618
  32 H10      -1.1272    -0.5909    -3.3595  H       1  <O>11       0.0618
  33 H11      -2.9539    -1.6865    -2.1880  H       1  <O>11       0.0618
  34 H12      -2.8658    -4.0621    -1.7236  H       1  <O>11       0.0624
  35 H13       0.7123    -8.4055    -3.6961  H       1  <O>11       0.0662
@<TRIPOS>BOND
     1     1     2   am
     2     2     3    2
     3     2     4    1
     4     4     5   ar
     5     5     6   ar
     6     6     7   ar
     7     7     8   ar
     8     8     9    1
     9     9    10    1
    10    10    11   ar
    11    11    12   ar
    12    12    13   ar
    13    13    14   ar
    14    14    15    1
    15    15    16   ar
    16    16    17   ar
    17    17    18   ar
    18    18    19   ar
    19    19    20   ar
    20    15    20   ar
    21    14    21   ar
    22    10    21   ar
    23     8    22   ar
    24     4    22   ar
    25     1    23    1
    26     1    24    1
    27     5    25    1
    28     6    26    1
    29     7    27    1
    30    12    28    1
    31    13    29    1
    32    16    30    1
    33    17    31    1
    34    18    32    1
    35    19    33    1
    36    20    34    1
    37    22    35    1
@<TRIPOS>MOLECULE
mol54_1_5
 35 37 0 0 0
SMALL
USER_CHARGES
****
VDW energy = -64.79
@<TRIPOS>ATOM
   1 N1        3.5126    -9.1101    -5.4025  N.am    1  <O>11      -0.3253
   2 C1        2.8552    -9.8129    -4.4288  C.2     1  <O>11       0.2416
   3 O1        3.4454   -10.1461    -3.4119  O.2     1  <O>11      -0.2704
   4 C2        1.4620   -10.1610    -4.6040  C.ar    1  <O>11       0.0400
   5 C3        1.1317   -11.3708    -5.2197  C.ar    1  <O>11      -0.0494
   6 C4       -0.2136   -11.7084    -5.4038  C.ar    1  <O>11      -0.0576
   7 C5       -1.2215   -10.8431    -4.9705  C.ar    1  <O>11      -0.0192
   8 C6       -0.8757    -9.6381    -4.3492  C.ar    1  <O>11       0.1326
   9 O2       -1.8640    -8.7965    -3.9259  O.3     1  <O>11      -0.4236
  10 C7       -1.3544    -7.9189    -2.9968  C.ar    1  <O>11       0.3239
  11 N2       -1.3851    -8.2573    -1.6867  N.ar    1  <O>11      -0.2030
  12 C8       -0.8798    -7.3832    -0.7970  C.ar    1  <O>11       0.0350
  13 C9       -0.3395    -6.1731    -1.1471  C.ar    1  <O>11      -0.0173
  14 C10      -0.3445    -5.9010    -2.4913  C.ar    1  <O>11       0.0778
  15 C11       0.1941    -4.6663    -2.9592  C.ar    1  <O>11       0.0006
  16 C12       1.2750    -4.6599    -3.8577  C.ar    1  <O>11      -0.0526
  17 C13       1.8096    -3.4465    -4.3059  C.ar    1  <O>11      -0.0611
  18 C14       1.2736    -2.2340    -3.8661  C.ar    1  <O>11      -0.0617
  19 C15       0.1935    -2.2422    -2.9756  C.ar    1  <O>11      -0.0611
  20 C16      -0.3489    -3.4463    -2.5253  C.ar    1  <O>11      -0.0526
  21 N3       -0.8373    -6.7425    -3.4202  N.ar    1  <O>11      -0.1946
  22 C17       0.4633    -9.2931    -4.1598  C.ar    1  <O>11      -0.0071
  23 H1        3.0200    -8.8319    -6.2513  H       1  <O>11       0.1453
  24 H2        4.4949    -8.8646    -5.2793  H       1  <O>11       0.1453
  25 H3        1.8757   -12.0117    -5.5369  H       1  <O>11       0.0625
  26 H4       -0.4623   -12.5995    -5.8611  H       1  <O>11       0.0619
  27 H5       -2.2138   -11.0910    -5.1078  H       1  <O>11       0.0654
  28 H6       -0.9002    -7.6376     0.2030  H       1  <O>11       0.0832
  29 H7        0.0431    -5.5150    -0.4503  H       1  <O>11       0.0654
  30 H8        1.6754    -5.5520    -4.1878  H       1  <O>11       0.0624
  31 H9        2.6039    -3.4477    -4.9647  H       1  <O>11       0.0618
  32 H10       1.6704    -1.3399    -4.1947  H       1  <O>11       0.0618
  33 H11      -0.2057    -1.3483    -2.6488  H       1  <O>11       0.0618
  34 H12      -1.1490    -3.4403    -1.8736  H       1  <O>11       0.0624
  35 H13       0.7123    -8.4055    -3.6961  H       1  <O>11       0.0662
@<TRIPOS>BOND
     1     1     2   am
     2     2     3    2
     3     2     4    1
     4     4     5   ar
     5     5     6   ar
     6     6     7   ar
     7     7     8   ar
     8     8     9    1
     9     9    10    1
    10    10    11   ar
    11    11    12   ar
    12    12    13   ar
    13    13    14   ar
    14    14    15    1
    15    15    16   ar
    16    16    17   ar
    17    17    18   ar
    18    18    19   ar
    19    19    20   ar
    20    15    20   ar
    21    14    21   ar
    22    10    21   ar
    23     8    22   ar
    24     4    22   ar
    25     1    23    1
    26     1    24    1
    27     5    25    1
    28     6    26    1
    29     7    27    1
    30    12    28    1
    31    13    29    1
    32    16    30    1
    33    17    31    1
    34    18    32    1
    35    19    33    1
    36    20    34    1
    37    22    35    1
@<TRIPOS>MOLECULE
mol54_1_6
 35 37 0 0 0
SMALL
USER_CHARGES
****
VDW energy = -64.51
@<TRIPOS>ATOM
   1 N1        3.5126    -9.1101    -5.4025  N.am    1  <O>11      -0.3253
   2 C1        2.8552    -9.8129    -4.4288  C.2     1  <O>11       0.2416
   3 O1        3.4454   -10.1461    -3.4119  O.2     1  <O>11      -0.2704
   4 C2        1.4620   -10.1610    -4.6040  C.ar    1  <O>11       0.0400
   5 C3        1.1317   -11.3708    -5.2197  C.ar    1  <O>11      -0.0494
   6 C4       -0.2136   -11.7084    -5.4038  C.ar    1  <O>11      -0.0576
   7 C5       -1.2215   -10.8431    -4.9705  C.ar    1  <O>11      -0.0192
   8 C6       -0.8757    -9.6381    -4.3492  C.ar    1  <O>11       0.1326
   9 O2       -1.8640    -8.7965    -3.9259  O.3     1  <O>11      -0.4236
  10 C7       -1.3544    -7.9189    -2.9968  C.ar    1  <O>11       0.3239
  11 N2       -0.8366    -6.7418    -3.4190  N.ar    1  <O>11      -0.2030
  12 C8       -0.3452    -5.8996    -2.4915  C.ar    1  <O>11       0.0350
  13 C9       -0.3407    -6.1714    -1.1481  C.ar    1  <O>11      -0.0173
  14 C10      -0.8809    -7.3824    -0.7979  C.ar    1  <O>11       0.0778
  15 C11      -0.9224    -7.7611     0.5763  C.ar    1  <O>11       0.0006
  16 C12      -0.2610    -8.9225     1.0116  C.ar    1  <O>11      -0.0526
  17 C13      -0.3135    -9.2985     2.3587  C.ar    1  <O>11      -0.0611
  18 C14      -1.0211    -8.5234     3.2805  C.ar    1  <O>11      -0.0617
  19 C15      -1.6745    -7.3641     2.8464  C.ar    1  <O>11      -0.0611
  20 C16      -1.6255    -6.9786     1.5062  C.ar    1  <O>11      -0.0526
  21 N3       -1.3855    -8.2586    -1.6875  N.ar    1  <O>11      -0.1946
  22 C17       0.4633    -9.2931    -4.1598  C.ar    1  <O>11      -0.0071
  23 H1        3.0200    -8.8319    -6.2513  H       1  <O>11       0.1453
  24 H2        4.4949    -8.8646    -5.2793  H       1  <O>11       0.1453
  25 H3        1.8757   -12.0117    -5.5369  H       1  <O>11       0.0625
  26 H4       -0.4623   -12.5995    -5.8611  H       1  <O>11       0.0619
  27 H5       -2.2138   -11.0910    -5.1078  H       1  <O>11       0.0654
  28 H6        0.0495    -5.0004    -2.8089  H       1  <O>11       0.0832
  29 H7        0.0412    -5.5131    -0.4511  H       1  <O>11       0.0654
  30 H8        0.2646    -9.4993     0.3363  H       1  <O>11       0.0624
  31 H9        0.1729   -10.1528     2.6726  H       1  <O>11       0.0618
  32 H10      -1.0617    -8.8031     4.2730  H       1  <O>11       0.0618
  33 H11      -2.1978    -6.7885     3.5246  H       1  <O>11       0.0618
  34 H12      -2.1060    -6.1187     1.1986  H       1  <O>11       0.0624
  35 H13       0.7123    -8.4055    -3.6961  H       1  <O>11       0.0662
@<TRIPOS>BOND
     1     1     2   am
     2     2     3    2
     3     2     4    1
     4     4     5   ar
     5     5     6   ar
     6     6     7   ar
     7     7     8   ar
     8     8     9    1
     9     9    10    1
    10    10    11   ar
    11    11    12   ar
    12    12    13   ar
    13    13    14   ar
    14    14    15    1
    15    15    16   ar
    16    16    17   ar
    17    17    18   ar
    18    18    19   ar
    19    19    20   ar
    20    15    20   ar
    21    14    21   ar
    22    10    21   ar
    23     8    22   ar
    24     4    22   ar
    25     1    23    1
    26     1    24    1
    27     5    25    1
    28     6    26    1
    29     7    27    1
    30    12    28    1
    31    13    29    1
    32    16    30    1
    33    17    31    1
    34    18    32    1
    35    19    33    1
    36    20    34    1
    37    22    35    1
@<TRIPOS>MOLECULE
mol54_1_7
 35 37 0 0 0
SMALL
USER_CHARGES
****
VDW energy = -64.42
@<TRIPOS>ATOM
   1 N1        3.5126    -9.1101    -5.4025  N.am    1  <O>11      -0.3253
   2 C1        2.8552    -9.8129    -4.4288  C.2     1  <O>11       0.2416
   3 O1        3.4454   -10.1461    -3.4119  O.2     1  <O>11      -0.2704
   4 C2        1.4620   -10.1610    -4.6040  C.ar    1  <O>11       0.0400
   5 C3        1.1317   -11.3708    -5.2197  C.ar    1  <O>11      -0.0494
   6 C4       -0.2136   -11.7084    -5.4038  C.ar    1  <O>11      -0.0576
   7 C5       -1.2215   -10.8431    -4.9705  C.ar    1  <O>11      -0.0192
   8 C6       -0.8757    -9.6381    -4.3492  C.ar    1  <O>11       0.1326
   9 O2       -1.8640    -8.7965    -3.9259  O.3     1  <O>11      -0.4236
  10 C7       -1.3544    -7.9189    -2.9968  C.ar    1  <O>11       0.3239
  11 N2       -0.8366    -6.7418    -3.4190  N.ar    1  <O>11      -0.2030
  12 C8       -0.3452    -5.8996    -2.4915  C.ar    1  <O>11       0.0350
  13 C9       -0.3407    -6.1714    -1.1481  C.ar    1  <O>11      -0.0173
  14 C10      -0.8809    -7.3824    -0.7979  C.ar    1  <O>11       0.0778
  15 C11      -0.9224    -7.7611     0.5763  C.ar    1  <O>11       0.0006
  16 C12      -2.1531    -8.0256     1.2016  C.ar    1  <O>11      -0.0526
  17 C13      -2.1920    -8.3851     2.5537  C.ar    1  <O>11      -0.0611
  18 C14      -1.0101    -8.4855     3.2913  C.ar    1  <O>11      -0.0617
  19 C15       0.2152    -8.2272     2.6656  C.ar    1  <O>11      -0.0611
  20 C16       0.2651    -7.8712     1.3174  C.ar    1  <O>11      -0.0526
  21 N3       -1.3855    -8.2586    -1.6875  N.ar    1  <O>11      -0.1946
  22 C17       0.4633    -9.2931    -4.1598  C.ar    1  <O>11      -0.0071
  23 H1        3.0200    -8.8319    -6.2513  H       1  <O>11       0.1453
  24 H2        4.4949    -8.8646    -5.2793  H       1  <O>11       0.1453
  25 H3        1.8757   -12.0117    -5.5369  H       1  <O>11       0.0625
  26 H4       -0.4623   -12.5995    -5.8611  H       1  <O>11       0.0619
  27 H5       -2.2138   -11.0910    -5.1078  H       1  <O>11       0.0654
  28 H6        0.0495    -5.0004    -2.8089  H       1  <O>11       0.0832
  29 H7        0.0412    -5.5131    -0.4511  H       1  <O>11       0.0654
  30 H8       -3.0303    -7.9545     0.6625  H       1  <O>11       0.0624
  31 H9       -3.0985    -8.5771     3.0080  H       1  <O>11       0.0618
  32 H10      -1.0400    -8.7478     4.2889  H       1  <O>11       0.0618
  33 H11       1.0907    -8.3009     3.2072  H       1  <O>11       0.0618
  34 H12       1.1746    -7.6890     0.8650  H       1  <O>11       0.0624
  35 H13       0.7123    -8.4055    -3.6961  H       1  <O>11       0.0662
@<TRIPOS>BOND
     1     1     2   am
     2     2     3    2
     3     2     4    1
     4     4     5   ar
     5     5     6   ar
     6     6     7   ar
     7     7     8   ar
     8     8     9    1
     9     9    10    1
    10    10    11   ar
    11    11    12   ar
    12    12    13   ar
    13    13    14   ar
    14    14    15    1
    15    15    16   ar
    16    16    17   ar
    17    17    18   ar
    18    18    19   ar
    19    19    20   ar
    20    15    20   ar
    21    14    21   ar
    22    10    21   ar
    23     8    22   ar
    24     4    22   ar
    25     1    23    1
    26     1    24    1
    27     5    25    1
    28     6    26    1
    29     7    27    1
    30    12    28    1
    31    13    29    1
    32    16    30    1
    33    17    31    1
    34    18    32    1
    35    19    33    1
    36    20    34    1
    37    22    35    1
@<TRIPOS>MOLECULE
mol54_1_8
 35 37 0 0 0
SMALL
USER_CHARGES
****
VDW energy = -63.57
@<TRIPOS>ATOM
   1 N1        3.5126    -9.1101    -5.4025  N.am    1  <O>11      -0.3253
   2 C1        2.8552    -9.8129    -4.4288  C.2     1  <O>11       0.2416
   3 O1        3.4454   -10.1461    -3.4119  O.2     1  <O>11      -0.2704
   4 C2        1.4620   -10.1610    -4.6040  C.ar    1  <O>11       0.0400
   5 C3        0.4753    -9.2803    -4.1539  C.ar    1  <O>11      -0.0494
   6 C4       -0.8742    -9.6160    -4.3087  C.ar    1  <O>11      -0.0576
   7 C5       -1.2337   -10.8229    -4.9139  C.ar    1  <O>11      -0.0192
   8 C6       -0.2346   -11.6920    -5.3661  C.ar    1  <O>11       0.1326
   9 O2       -0.5907   -12.8694    -5.9585  O.3     1  <O>11      -0.4236
  10 C7        0.4684   -13.3550    -6.6903  C.ar    1  <O>11       0.3239
  11 N2        0.9675   -12.6060    -7.7011  N.ar    1  <O>11      -0.2030
  12 C8        2.0041   -13.1017    -8.4017  C.ar    1  <O>11       0.0350
  13 C9        2.5768   -14.3206    -8.1468  C.ar    1  <O>11      -0.0173
  14 C10       2.0166   -15.0209    -7.1092  C.ar    1  <O>11       0.0778
  15 C11       2.5393   -16.3019    -6.7642  C.ar    1  <O>11       0.0006
  16 C12       1.7173   -17.4409    -6.8185  C.ar    1  <O>11      -0.0526
  17 C13       2.2295   -18.6952    -6.4676  C.ar    1  <O>11      -0.0611
  18 C14       3.5599   -18.8258    -6.0626  C.ar    1  <O>11      -0.0617
  19 C15       4.3788   -17.6915    -6.0144  C.ar    1  <O>11      -0.0611
  20 C16       3.8788   -16.4370    -6.3653  C.ar    1  <O>11      -0.0526
  21 N3        0.9800   -14.5681    -6.3781  N.ar    1  <O>11      -0.1946
  22 C17       1.1140   -11.3653    -5.2175  C.ar    1  <O>11      -0.0071
  23 H1        3.0200    -8.8319    -6.2513  H       1  <O>11       0.1453
  24 H2        4.4949    -8.8646    -5.2793  H       1  <O>11       0.1453
  25 H3        0.7403    -8.3872    -3.7098  H       1  <O>11       0.0625
  26 H4       -1.6064    -8.9700    -3.9748  H       1  <O>11       0.0619
  27 H5       -2.2289   -11.0716    -5.0266  H       1  <O>11       0.0654
  28 H6        2.3885   -12.5334    -9.1726  H       1  <O>11       0.0832
  29 H7        3.3714   -14.6847    -8.6954  H       1  <O>11       0.0654
  30 H8        0.7336   -17.3519    -7.1179  H       1  <O>11       0.0624
  31 H9        1.6212   -19.5278    -6.5083  H       1  <O>11       0.0618
  32 H10       3.9359   -19.7506    -5.8012  H       1  <O>11       0.0618
  33 H11       5.3625   -17.7841    -5.7162  H       1  <O>11       0.0618
  34 H12       4.4933   -15.6086    -6.3317  H       1  <O>11       0.0624
  35 H13       1.8465   -12.0078    -5.5578  H       1  <O>11       0.0662
@<TRIPOS>BOND
     1     1     2   am
     2     2     3    2
     3     2     4    1
     4     4     5   ar
     5     5     6   ar
     6     6     7   ar
     7     7     8   ar
     8     8     9    1
     9     9    10    1
    10    10    11   ar
    11    11    12   ar
    12    12    13   ar
    13    13    14   ar
    14    14    15    1
    15    15    16   ar
    16    16    17   ar
    17    17    18   ar
    18    18    19   ar
    19    19    20   ar
    20    15    20   ar
    21    14    21   ar
    22    10    21   ar
    23     8    22   ar
    24     4    22   ar
    25     1    23    1
    26     1    24    1
    27     5    25    1
    28     6    26    1
    29     7    27    1
    30    12    28    1
    31    13    29    1
    32    16    30    1
    33    17    31    1
    34    18    32    1
    35    19    33    1
    36    20    34    1
    37    22    35    1
@<TRIPOS>MOLECULE
mol54_1_9
 35 37 0 0 0
SMALL
USER_CHARGES
****
VDW energy = -63.17
@<TRIPOS>ATOM
   1 N1        3.5126    -9.1101    -5.4025  N.am    1  <O>11      -0.3253
   2 C1        2.8552    -9.8129    -4.4288  C.2     1  <O>11       0.2416
   3 O1        3.4454   -10.1461    -3.4119  O.2     1  <O>11      -0.2704
   4 C2        1.4620   -10.1610    -4.6040  C.ar    1  <O>11       0.0400
   5 C3        1.1317   -11.3708    -5.2197  C.ar    1  <O>11      -0.0494
   6 C4       -0.2136   -11.7084    -5.4038  C.ar    1  <O>11      -0.0576
   7 C5       -1.2215   -10.8431    -4.9705  C.ar    1  <O>11      -0.0192
   8 C6       -0.8757    -9.6381    -4.3492  C.ar    1  <O>11       0.1326
   9 O2       -1.8640    -8.7965    -3.9259  O.3     1  <O>11      -0.4236
  10 C7       -1.3544    -7.9189    -2.9968  C.ar    1  <O>11       0.3239
  11 N2       -0.8163    -8.4088    -1.8556  N.ar    1  <O>11      -0.2030
  12 C8       -0.3233    -7.5310    -0.9626  C.ar    1  <O>11       0.0350
  13 C9       -0.3391    -6.1729    -1.1475  C.ar    1  <O>11      -0.0173
  14 C10      -0.9006    -5.7529    -2.3262  C.ar    1  <O>11       0.0778
  15 C11      -0.9669    -4.3578    -2.6138  C.ar    1  <O>11       0.0006
  16 C12      -0.3296    -3.8381    -3.7538  C.ar    1  <O>11      -0.0526
  17 C13      -0.3860    -2.4666    -4.0272  C.ar    1  <O>11      -0.0611
  18 C14      -1.0761    -1.6045    -3.1719  C.ar    1  <O>11      -0.0617
  19 C15      -1.7150    -2.1244    -2.0400  C.ar    1  <O>11      -0.0611
  20 C16      -1.6675    -3.4906    -1.7602  C.ar    1  <O>11      -0.0526
  21 N3       -1.4063    -6.5910    -3.2512  N.ar    1  <O>11      -0.1946
  22 C17       0.4633    -9.2931    -4.1598  C.ar    1  <O>11      -0.0071
  23 H1        3.0200    -8.8319    -6.2513  H       1  <O>11       0.1453
  24 H2        4.4949    -8.8646    -5.2793  H       1  <O>11       0.1453
  25 H3        1.8757   -12.0117    -5.5369  H       1  <O>11       0.0625
  26 H4       -0.4623   -12.5995    -5.8611  H       1  <O>11       0.0619
  27 H5       -2.2138   -11.0910    -5.1078  H       1  <O>11       0.0654
  28 H6        0.0889    -7.9002    -0.0915  H       1  <O>11       0.0832
  29 H7        0.0434    -5.5146    -0.4509  H       1  <O>11       0.0654
  30 H8        0.1812    -4.4694    -4.3908  H       1  <O>11       0.0624
  31 H9        0.0847    -2.0904    -4.8649  H       1  <O>11       0.0618
  32 H10      -1.1146    -0.5930    -3.3727  H       1  <O>11       0.0618
  33 H11      -2.2264    -1.4907    -1.4060  H       1  <O>11       0.0618
  34 H12      -2.1473    -3.8636    -0.9262  H       1  <O>11       0.0624
  35 H13       0.7123    -8.4055    -3.6961  H       1  <O>11       0.0662
@<TRIPOS>BOND
     1     1     2   am
     2     2     3    2
     3     2     4    1
     4     4     5   ar
     5     5     6   ar
     6     6     7   ar
     7     7     8   ar
     8     8     9    1
     9     9    10    1
    10    10    11   ar
    11    11    12   ar
    12    12    13   ar
    13    13    14   ar
    14    14    15    1
    15    15    16   ar
    16    16    17   ar
    17    17    18   ar
    18    18    19   ar
    19    19    20   ar
    20    15    20   ar
    21    14    21   ar
    22    10    21   ar
    23     8    22   ar
    24     4    22   ar
    25     1    23    1
    26     1    24    1
    27     5    25    1
    28     6    26    1
    29     7    27    1
    30    12    28    1
    31    13    29    1
    32    16    30    1
    33    17    31    1
    34    18    32    1
    35    19    33    1
    36    20    34    1
    37    22    35    1
@<TRIPOS>MOLECULE
mol54_1_10
 35 37 0 0 0
SMALL
USER_CHARGES
****
VDW energy = -63.08
@<TRIPOS>ATOM
   1 N1        3.5126    -9.1101    -5.4025  N.am    1  <O>11      -0.3253
   2 C1        2.8552    -9.8129    -4.4288  C.2     1  <O>11       0.2416
   3 O1        3.4454   -10.1461    -3.4119  O.2     1  <O>11      -0.2704
   4 C2        1.4620   -10.1610    -4.6040  C.ar    1  <O>11       0.0400
   5 C3        1.1317   -11.3708    -5.2197  C.ar    1  <O>11      -0.0494
   6 C4       -0.2136   -11.7084    -5.4038  C.ar    1  <O>11      -0.0576
   7 C5       -1.2215   -10.8431    -4.9705  C.ar    1  <O>11      -0.0192
   8 C6       -0.8757    -9.6381    -4.3492  C.ar    1  <O>11       0.1326
   9 O2       -1.8640    -8.7965    -3.9259  O.3     1  <O>11      -0.4236
  10 C7       -1.3544    -7.9189    -2.9968  C.ar    1  <O>11       0.3239
  11 N2       -0.8163    -8.4088    -1.8556  N.ar    1  <O>11      -0.2030
  12 C8       -0.3233    -7.5310    -0.9626  C.ar    1  <O>11       0.0350
  13 C9       -0.3391    -6.1729    -1.1475  C.ar    1  <O>11      -0.0173
  14 C10      -0.9006    -5.7529    -2.3262  C.ar    1  <O>11       0.0778
  15 C11      -0.9669    -4.3578    -2.6138  C.ar    1  <O>11       0.0006
  16 C12      -2.2102    -3.7349    -2.8192  C.ar    1  <O>11      -0.0526
  17 C13      -2.2717    -2.3680    -3.1134  C.ar    1  <O>11      -0.0611
  18 C14      -1.1005    -1.6123    -3.2038  C.ar    1  <O>11      -0.0617
  19 C15       0.1365    -2.2329    -2.9935  C.ar    1  <O>11      -0.0611
  20 C16       0.2086    -3.5943    -2.6964  C.ar    1  <O>11      -0.0526
  21 N3       -1.4063    -6.5910    -3.2512  N.ar    1  <O>11      -0.1946
  22 C17       0.4633    -9.2931    -4.1598  C.ar    1  <O>11      -0.0071
  23 H1        3.0200    -8.8319    -6.2513  H       1  <O>11       0.1453
  24 H2        4.4949    -8.8646    -5.2793  H       1  <O>11       0.1453
  25 H3        1.8757   -12.0117    -5.5369  H       1  <O>11       0.0625
  26 H4       -0.4623   -12.5995    -5.8611  H       1  <O>11       0.0619
  27 H5       -2.2138   -11.0910    -5.1078  H       1  <O>11       0.0654
  28 H6        0.0889    -7.9002    -0.0915  H       1  <O>11       0.0832
  29 H7        0.0434    -5.5146    -0.4509  H       1  <O>11       0.0654
  30 H8       -3.0797    -4.2868    -2.7528  H       1  <O>11       0.0624
  31 H9       -3.1871    -1.9161    -3.2643  H       1  <O>11       0.0618
  32 H10      -1.1467    -0.6051    -3.4238  H       1  <O>11       0.0618
  33 H11       1.0041    -1.6777    -3.0589  H       1  <O>11       0.0618
  34 H12       1.1256    -4.0401    -2.5374  H       1  <O>11       0.0624
  35 H13       0.7123    -8.4055    -3.6961  H       1  <O>11       0.0662
@<TRIPOS>BOND
     1     1     2   am
     2     2     3    2
     3     2     4    1
     4     4     5   ar
     5     5     6   ar
     6     6     7   ar
     7     7     8   ar
     8     8     9    1
     9     9    10    1
    10    10    11   ar
    11    11    12   ar
    12    12    13   ar
    13    13    14   ar
    14    14    15    1
    15    15    16   ar
    16    16    17   ar
    17    17    18   ar
    18    18    19   ar
    19    19    20   ar
    20    15    20   ar
    21    14    21   ar
    22    10    21   ar
    23     8    22   ar
    24     4    22   ar
    25     1    23    1
    26     1    24    1
    27     5    25    1
    28     6    26    1
    29     7    27    1
    30    12    28    1
    31    13    29    1
    32    16    30    1
    33    17    31    1
    34    18    32    1
    35    19    33    1
    36    20    34    1
    37    22    35    1
@<TRIPOS>MOLECULE
mol54_1_11
 35 37 0 0 0
SMALL
USER_CHARGES
****
VDW energy = -62.48
@<TRIPOS>ATOM
   1 N1        3.5126    -9.1101    -5.4025  N.am    1  <O>11      -0.3253
   2 C1        2.8552    -9.8129    -4.4288  C.2     1  <O>11       0.2416
   3 O1        3.4454   -10.1461    -3.4119  O.2     1  <O>11      -0.2704
   4 C2        1.4620   -10.1610    -4.6040  C.ar    1  <O>11       0.0400
   5 C3        1.1317   -11.3708    -5.2197  C.ar    1  <O>11      -0.0494
   6 C4       -0.2136   -11.7084    -5.4038  C.ar    1  <O>11      -0.0576
   7 C5       -1.2215   -10.8431    -4.9705  C.ar    1  <O>11      -0.0192
   8 C6       -0.8757    -9.6381    -4.3492  C.ar    1  <O>11       0.1326
   9 O2       -1.8640    -8.7965    -3.9259  O.3     1  <O>11      -0.4236
  10 C7       -2.2069    -9.1048    -2.6296  C.ar    1  <O>11       0.3239
  11 N2       -2.6756   -10.3435    -2.3504  N.ar    1  <O>11      -0.2030
  12 C8       -3.0033   -10.6217    -1.0751  C.ar    1  <O>11       0.0350
  13 C9       -2.8888    -9.7194    -0.0496  C.ar    1  <O>11      -0.0173
  14 C10      -2.4079    -8.4868    -0.4103  C.ar    1  <O>11       0.0778
  15 C11      -2.2526    -7.4760     0.5834  C.ar    1  <O>11       0.0006
  16 C12      -2.7251    -7.6882     1.8901  C.ar    1  <O>11      -0.0526
  17 C13      -2.5824    -6.6897     2.8603  C.ar    1  <O>11      -0.0611
  18 C14      -1.9689    -5.4766     2.5393  C.ar    1  <O>11      -0.0617
  19 C15      -1.4938    -5.2689     1.2391  C.ar    1  <O>11      -0.0611
  20 C16      -1.6282    -6.2592     0.2653  C.ar    1  <O>11      -0.0526
  21 N3       -2.0657    -8.1601    -1.6713  N.ar    1  <O>11      -0.1946
  22 C17       0.4633    -9.2931    -4.1598  C.ar    1  <O>11      -0.0071
  23 H1        3.0200    -8.8319    -6.2513  H       1  <O>11       0.1453
  24 H2        4.4949    -8.8646    -5.2793  H       1  <O>11       0.1453
  25 H3        1.8757   -12.0117    -5.5369  H       1  <O>11       0.0625
  26 H4       -0.4623   -12.5995    -5.8611  H       1  <O>11       0.0619
  27 H5       -2.2138   -11.0910    -5.1078  H       1  <O>11       0.0654
  28 H6       -3.3601   -11.5653    -0.8575  H       1  <O>11       0.0832
  29 H7       -3.1457    -9.9508     0.9228  H       1  <O>11       0.0654
  30 H8       -3.1785    -8.5825     2.1347  H       1  <O>11       0.0624
  31 H9       -2.9322    -6.8505     3.8178  H       1  <O>11       0.0618
  32 H10      -1.8667    -4.7398     3.2546  H       1  <O>11       0.0618
  33 H11      -1.0394    -4.3741     0.9982  H       1  <O>11       0.0618
  34 H12      -1.2688    -6.0974    -0.6884  H       1  <O>11       0.0624
  35 H13       0.7123    -8.4055    -3.6961  H       1  <O>11       0.0662
@<TRIPOS>BOND
     1     1     2   am
     2     2     3    2
     3     2     4    1
     4     4     5   ar
     5     5     6   ar
     6     6     7   ar
     7     7     8   ar
     8     8     9    1
     9     9    10    1
    10    10    11   ar
    11    11    12   ar
    12    12    13   ar
    13    13    14   ar
    14    14    15    1
    15    15    16   ar
    16    16    17   ar
    17    17    18   ar
    18    18    19   ar
    19    19    20   ar
    20    15    20   ar
    21    14    21   ar
    22    10    21   ar
    23     8    22   ar
    24     4    22   ar
    25     1    23    1
    26     1    24    1
    27     5    25    1
    28     6    26    1
    29     7    27    1
    30    12    28    1
    31    13    29    1
    32    16    30    1
    33    17    31    1
    34    18    32    1
    35    19    33    1
    36    20    34    1
    37    22    35    1
@<TRIPOS>MOLECULE
mol54_1_12
 35 37 0 0 0
SMALL
USER_CHARGES
****
VDW energy = -62.28
@<TRIPOS>ATOM
   1 N1        3.5126    -9.1101    -5.4025  N.am    1  <O>11      -0.3253
   2 C1        2.8552    -9.8129    -4.4288  C.2     1  <O>11       0.2416
   3 O1        3.4454   -10.1461    -3.4119  O.2     1  <O>11      -0.2704
   4 C2        1.4620   -10.1610    -4.6040  C.ar    1  <O>11       0.0400
   5 C3        0.5926    -9.2324    -5.1817  C.ar    1  <O>11      -0.0494
   6 C4       -0.7587    -9.5574    -5.3429  C.ar    1  <O>11      -0.0576
   7 C5       -1.2358   -10.8050    -4.9328  C.ar    1  <O>11      -0.0192
   8 C6       -0.3520   -11.7276    -4.3622  C.ar    1  <O>11       0.1326
   9 O2       -0.8223   -12.9461    -3.9646  O.3     1  <O>11      -0.4236
  10 C7        0.2278   -13.8265    -3.8405  C.ar    1  <O>11       0.3239
  11 N2        0.9909   -14.0967    -4.9252  N.ar    1  <O>11      -0.2030
  12 C8        2.0128   -14.9599    -4.7788  C.ar    1  <O>11       0.0350
  13 C9        2.3184   -15.5779    -3.5941  C.ar    1  <O>11      -0.0173
  14 C10       1.5007   -15.2548    -2.5417  C.ar    1  <O>11       0.0778
  15 C11       1.7338   -15.8456    -1.2649  C.ar    1  <O>11       0.0006
  16 C12       1.1131   -17.0592    -0.9216  C.ar    1  <O>11      -0.0526
  17 C13       1.3339   -17.6306     0.3367  C.ar    1  <O>11      -0.0611
  18 C14       2.1726   -17.0017     1.2598  C.ar    1  <O>11      -0.0617
  19 C15       2.7945   -15.7961     0.9144  C.ar    1  <O>11      -0.0611
  20 C16       2.5835   -15.2198    -0.3388  C.ar    1  <O>11      -0.0526
  21 N3        0.4668   -14.3969    -2.6371  N.ar    1  <O>11      -0.1946
  22 C17       0.9978   -11.4132    -4.1985  C.ar    1  <O>11      -0.0071
  23 H1        3.0200    -8.8319    -6.2513  H       1  <O>11       0.1453
  24 H2        4.4949    -8.8646    -5.2793  H       1  <O>11       0.1453
  25 H3        0.9451    -8.3121    -5.4877  H       1  <O>11       0.0625
  26 H4       -1.4052    -8.8734    -5.7660  H       1  <O>11       0.0619
  27 H5       -2.2328   -11.0443    -5.0499  H       1  <O>11       0.0654
  28 H6        2.5979   -15.1680    -5.6031  H       1  <O>11       0.0832
  29 H7        3.1063   -16.2379    -3.5009  H       1  <O>11       0.0654
  30 H8        0.4930   -17.5299    -1.5991  H       1  <O>11       0.0624
  31 H9        0.8748   -18.5211     0.5839  H       1  <O>11       0.0618
  32 H10       2.3325   -17.4223     2.1885  H       1  <O>11       0.0618
  33 H11       3.4153   -15.3288     1.5935  H       1  <O>11       0.0618
  34 H12       3.0519   -14.3337    -0.5848  H       1  <O>11       0.0624
  35 H13       1.6461   -12.0997    -3.7820  H       1  <O>11       0.0662
@<TRIPOS>BOND
     1     1     2   am
     2     2     3    2
     3     2     4    1
     4     4     5   ar
     5     5     6   ar
     6     6     7   ar
     7     7     8   ar
     8     8     9    1
     9     9    10    1
    10    10    11   ar
    11    11    12   ar
    12    12    13   ar
    13    13    14   ar
    14    14    15    1
    15    15    16   ar
    16    16    17   ar
    17    17    18   ar
    18    18    19   ar
    19    19    20   ar
    20    15    20   ar
    21    14    21   ar
    22    10    21   ar
    23     8    22   ar
    24     4    22   ar
    25     1    23    1
    26     1    24    1
    27     5    25    1
    28     6    26    1
    29     7    27    1
    30    12    28    1
    31    13    29    1
    32    16    30    1
    33    17    31    1
    34    18    32    1
    35    19    33    1
    36    20    34    1
    37    22    35    1
@<TRIPOS>MOLECULE
mol54_1_13
 35 37 0 0 0
SMALL
USER_CHARGES
****
VDW energy = -61.70
@<TRIPOS>ATOM
   1 N1        3.5126    -9.1101    -5.4025  N.am    1  <O>11      -0.3253
   2 C1        2.8552    -9.8129    -4.4288  C.2     1  <O>11       0.2416
   3 O1        3.4454   -10.1461    -3.4119  O.2     1  <O>11      -0.2704
   4 C2        1.4620   -10.1610    -4.6040  C.ar    1  <O>11       0.0400
   5 C3        1.1317   -11.3708    -5.2197  C.ar    1  <O>11      -0.0494
   6 C4       -0.2136   -11.7084    -5.4038  C.ar    1  <O>11      -0.0576
   7 C5       -1.2215   -10.8431    -4.9705  C.ar    1  <O>11      -0.0192
   8 C6       -0.8757    -9.6381    -4.3492  C.ar    1  <O>11       0.1326
   9 O2       -1.8640    -8.7965    -3.9259  O.3     1  <O>11      -0.4236
  10 C7       -2.6358    -8.4162    -4.9996  C.ar    1  <O>11       0.3239
  11 N2       -2.0520    -7.7602    -6.0295  N.ar    1  <O>11      -0.2030
  12 C8       -2.8271    -7.3997    -7.0687  C.ar    1  <O>11       0.0350
  13 C9       -4.1712    -7.6599    -7.1373  C.ar    1  <O>11      -0.0173
  14 C10      -4.6903    -8.3266    -6.0570  C.ar    1  <O>11       0.0778
  15 C11      -6.0803    -8.6440    -6.0302  C.ar    1  <O>11       0.0006
  16 C12      -6.9392    -8.1509    -7.0277  C.ar    1  <O>11      -0.0526
  17 C13      -8.3051    -8.4539    -6.9921  C.ar    1  <O>11      -0.0611
  18 C14      -8.8251    -9.2486    -5.9679  C.ar    1  <O>11      -0.0617
  19 C15      -7.9675    -9.7436    -4.9785  C.ar    1  <O>11      -0.0611
  20 C16      -6.6036    -9.4501    -5.0066  C.ar    1  <O>11      -0.0526
  21 N3       -3.9567    -8.7092    -4.9944  N.ar    1  <O>11      -0.1946
  22 C17       0.4633    -9.2931    -4.1598  C.ar    1  <O>11      -0.0071
  23 H1        3.0200    -8.8319    -6.2513  H       1  <O>11       0.1453
  24 H2        4.4949    -8.8646    -5.2793  H       1  <O>11       0.1453
  25 H3        1.8757   -12.0117    -5.5369  H       1  <O>11       0.0625
  26 H4       -0.4623   -12.5995    -5.8611  H       1  <O>11       0.0619
  27 H5       -2.2138   -11.0910    -5.1078  H       1  <O>11       0.0654
  28 H6       -2.3859    -6.9002    -7.8567  H       1  <O>11       0.0832
  29 H7       -4.7500    -7.3751    -7.9427  H       1  <O>11       0.0654
  30 H8       -6.5617    -7.5640    -7.7881  H       1  <O>11       0.0624
  31 H9       -8.9313    -8.0882    -7.7264  H       1  <O>11       0.0618
  32 H10      -9.8329    -9.4690    -5.9409  H       1  <O>11       0.0618
  33 H11      -8.3479   -10.3316    -4.2204  H       1  <O>11       0.0618
  34 H12      -5.9798    -9.8254    -4.2752  H       1  <O>11       0.0624
  35 H13       0.7123    -8.4055    -3.6961  H       1  <O>11       0.0662
@<TRIPOS>BOND
     1     1     2   am
     2     2     3    2
     3     2     4    1
     4     4     5   ar
     5     5     6   ar
     6     6     7   ar
     7     7     8   ar
     8     8     9    1
     9     9    10    1
    10    10    11   ar
    11    11    12   ar
    12    12    13   ar
    13    13    14   ar
    14    14    15    1
    15    15    16   ar
    16    16    17   ar
    17    17    18   ar
    18    18    19   ar
    19    19    20   ar
    20    15    20   ar
    21    14    21   ar
    22    10    21   ar
    23     8    22   ar
    24     4    22   ar
    25     1    23    1
    26     1    24    1
    27     5    25    1
    28     6    26    1
    29     7    27    1
    30    12    28    1
    31    13    29    1
    32    16    30    1
    33    17    31    1
    34    18    32    1
    35    19    33    1
    36    20    34    1
    37    22    35    1
@<TRIPOS>MOLECULE
mol54_1_14
 35 37 0 0 0
SMALL
USER_CHARGES
****
VDW energy = -61.55
@<TRIPOS>ATOM
   1 N1        3.5126    -9.1101    -5.4025  N.am    1  <O>11      -0.3253
   2 C1        2.8552    -9.8129    -4.4288  C.2     1  <O>11       0.2416
   3 O1        3.4454   -10.1461    -3.4119  O.2     1  <O>11      -0.2704
   4 C2        1.4620   -10.1610    -4.6040  C.ar    1  <O>11       0.0400
   5 C3        0.4753    -9.2803    -4.1539  C.ar    1  <O>11      -0.0494
   6 C4       -0.8742    -9.6160    -4.3087  C.ar    1  <O>11      -0.0576
   7 C5       -1.2337   -10.8229    -4.9139  C.ar    1  <O>11      -0.0192
   8 C6       -0.2346   -11.6920    -5.3661  C.ar    1  <O>11       0.1326
   9 O2       -0.5907   -12.8694    -5.9585  O.3     1  <O>11      -0.4236
  10 C7       -0.7244   -12.6802    -7.3148  C.ar    1  <O>11       0.3239
  11 N2       -1.6340   -11.7859    -7.7673  N.ar    1  <O>11      -0.2030
  12 C8       -1.7456   -11.6175    -9.0978  C.ar    1  <O>11       0.0350
  13 C9       -0.9904   -12.3024   -10.0139  C.ar    1  <O>11      -0.0173
  14 C10      -0.0921   -13.1904    -9.4797  C.ar    1  <O>11       0.0778
  15 C11       0.7409   -13.9543   -10.3492  C.ar    1  <O>11       0.0006
  16 C12       0.5434   -13.9095   -11.7402  C.ar    1  <O>11      -0.0526
  17 C13       1.3545   -14.6697   -12.5904  C.ar    1  <O>11      -0.0611
  18 C14       2.3663   -15.4767   -12.0651  C.ar    1  <O>11      -0.0617
  19 C15       2.5654   -15.5159   -10.6800  C.ar    1  <O>11      -0.0611
  20 C16       1.7644   -14.7593    -9.8239  C.ar    1  <O>11      -0.0526
  21 N3        0.0577   -13.3942    -8.1569  N.ar    1  <O>11      -0.1946
  22 C17       1.1140   -11.3653    -5.2175  C.ar    1  <O>11      -0.0071
  23 H1        3.0200    -8.8319    -6.2513  H       1  <O>11       0.1453
  24 H2        4.4949    -8.8646    -5.2793  H       1  <O>11       0.1453
  25 H3        0.7403    -8.3872    -3.7098  H       1  <O>11       0.0625
  26 H4       -1.6064    -8.9700    -3.9748  H       1  <O>11       0.0619
  27 H5       -2.2289   -11.0716    -5.0266  H       1  <O>11       0.0654
  28 H6       -2.4372   -10.9358    -9.4472  H       1  <O>11       0.0832
  29 H7       -1.0904   -12.1602   -11.0312  H       1  <O>11       0.0654
  30 H8       -0.2016   -13.3146   -12.1354  H       1  <O>11       0.0624
  31 H9        1.2042   -14.6338   -13.6108  H       1  <O>11       0.0618
  32 H10       2.9619   -16.0392   -12.6926  H       1  <O>11       0.0618
  33 H11       3.3124   -16.1105   -10.2881  H       1  <O>11       0.0618
  34 H12       1.9241   -14.7914    -8.8049  H       1  <O>11       0.0624
  35 H13       1.8465   -12.0078    -5.5578  H       1  <O>11       0.0662
@<TRIPOS>BOND
     1     1     2   am
     2     2     3    2
     3     2     4    1
     4     4     5   ar
     5     5     6   ar
     6     6     7   ar
     7     7     8   ar
     8     8     9    1
     9     9    10    1
    10    10    11   ar
    11    11    12   ar
    12    12    13   ar
    13    13    14   ar
    14    14    15    1
    15    15    16   ar
    16    16    17   ar
    17    17    18   ar
    18    18    19   ar
    19    19    20   ar
    20    15    20   ar
    21    14    21   ar
    22    10    21   ar
    23     8    22   ar
    24     4    22   ar
    25     1    23    1
    26     1    24    1
    27     5    25    1
    28     6    26    1
    29     7    27    1
    30    12    28    1
    31    13    29    1
    32    16    30    1
    33    17    31    1
    34    18    32    1
    35    19    33    1
    36    20    34    1
    37    22    35    1
@<TRIPOS>MOLECULE
mol54_1_15
 35 37 0 0 0
SMALL
USER_CHARGES
****
VDW energy = -60.66
@<TRIPOS>ATOM
   1 N1        3.5126    -9.1101    -5.4025  N.am    1  <O>11      -0.3253
   2 C1        2.8552    -9.8129    -4.4288  C.2     1  <O>11       0.2416
   3 O1        3.4454   -10.1461    -3.4119  O.2     1  <O>11      -0.2704
   4 C2        1.4620   -10.1610    -4.6040  C.ar    1  <O>11       0.0400
   5 C3        0.5926    -9.2324    -5.1817  C.ar    1  <O>11      -0.0494
   6 C4       -0.7587    -9.5574    -5.3429  C.ar    1  <O>11      -0.0576
   7 C5       -1.2358   -10.8050    -4.9328  C.ar    1  <O>11      -0.0192
   8 C6       -0.3520   -11.7276    -4.3622  C.ar    1  <O>11       0.1326
   9 O2       -0.8223   -12.9461    -3.9646  O.3     1  <O>11      -0.4236
  10 C7        0.2278   -13.8265    -3.8405  C.ar    1  <O>11       0.3239
  11 N2        0.9909   -14.0967    -4.9252  N.ar    1  <O>11      -0.2030
  12 C8        2.0128   -14.9599    -4.7788  C.ar    1  <O>11       0.0350
  13 C9        2.3184   -15.5779    -3.5941  C.ar    1  <O>11      -0.0173
  14 C10       1.5007   -15.2548    -2.5417  C.ar    1  <O>11       0.0778
  15 C11       1.7338   -15.8456    -1.2649  C.ar    1  <O>11       0.0006
  16 C12       2.0153   -15.0366    -0.1504  C.ar    1  <O>11      -0.0526
  17 C13       2.2558   -15.6197     1.0990  C.ar    1  <O>11      -0.0611
  18 C14       2.2166   -17.0078     1.2490  C.ar    1  <O>11      -0.0617
  19 C15       1.9306   -17.8118     0.1394  C.ar    1  <O>11      -0.0611
  20 C16       1.6861   -17.2403    -1.1099  C.ar    1  <O>11      -0.0526
  21 N3        0.4668   -14.3969    -2.6371  N.ar    1  <O>11      -0.1946
  22 C17       0.9978   -11.4132    -4.1985  C.ar    1  <O>11      -0.0071
  23 H1        3.0200    -8.8319    -6.2513  H       1  <O>11       0.1453
  24 H2        4.4949    -8.8646    -5.2793  H       1  <O>11       0.1453
  25 H3        0.9451    -8.3121    -5.4877  H       1  <O>11       0.0625
  26 H4       -1.4052    -8.8734    -5.7660  H       1  <O>11       0.0619
  27 H5       -2.2328   -11.0443    -5.0499  H       1  <O>11       0.0654
  28 H6        2.5979   -15.1680    -5.6031  H       1  <O>11       0.0832
  29 H7        3.1063   -16.2379    -3.5009  H       1  <O>11       0.0654
  30 H8        2.0447   -14.0101    -0.2537  H       1  <O>11       0.0624
  31 H9        2.4631   -15.0209     1.9135  H       1  <O>11       0.0618
  32 H10       2.3970   -17.4370     2.1700  H       1  <O>11       0.0618
  33 H11       1.9002   -18.8378     0.2464  H       1  <O>11       0.0618
  34 H12       1.4703   -17.8425    -1.9197  H       1  <O>11       0.0624
  35 H13       1.6461   -12.0997    -3.7820  H       1  <O>11       0.0662
@<TRIPOS>BOND
     1     1     2   am
     2     2     3    2
     3     2     4    1
     4     4     5   ar
     5     5     6   ar
     6     6     7   ar
     7     7     8   ar
     8     8     9    1
     9     9    10    1
    10    10    11   ar
    11    11    12   ar
    12    12    13   ar
    13    13    14   ar
    14    14    15    1
    15    15    16   ar
    16    16    17   ar
    17    17    18   ar
    18    18    19   ar
    19    19    20   ar
    20    15    20   ar
    21    14    21   ar
    22    10    21   ar
    23     8    22   ar
    24     4    22   ar
    25     1    23    1
    26     1    24    1
    27     5    25    1
    28     6    26    1
    29     7    27    1
    30    12    28    1
    31    13    29    1
    32    16    30    1
    33    17    31    1
    34    18    32    1
    35    19    33    1
    36    20    34    1
    37    22    35    1
@<TRIPOS>MOLECULE
mol54_1_16
 35 37 0 0 0
SMALL
USER_CHARGES
****
VDW energy = -58.46
@<TRIPOS>ATOM
   1 N1        3.5126    -9.1101    -5.4025  N.am    1  <O>11      -0.3253
   2 C1        2.8552    -9.8129    -4.4288  C.2     1  <O>11       0.2416
   3 O1        3.4454   -10.1461    -3.4119  O.2     1  <O>11      -0.2704
   4 C2        1.4620   -10.1610    -4.6040  C.ar    1  <O>11       0.0400
   5 C3        0.9118   -11.1883    -3.8335  C.ar    1  <O>11      -0.0494
   6 C4       -0.4317   -11.5388    -4.0063  C.ar    1  <O>11      -0.0576
   7 C5       -1.2203   -10.8628    -4.9408  C.ar    1  <O>11      -0.0192
   8 C6       -0.6575    -9.8313    -5.7005  C.ar    1  <O>11       0.1326
   9 O2       -1.4324    -9.1723    -6.6112  O.3     1  <O>11      -0.4236
  10 C7       -0.8483    -7.9669    -6.9258  C.ar    1  <O>11       0.3239
  11 N2       -0.6391    -7.0611    -5.9421  N.ar    1  <O>11      -0.2030
  12 C8       -0.0654    -5.8900    -6.2741  C.ar    1  <O>11       0.0350
  13 C9        0.3150    -5.5680    -7.5510  C.ar    1  <O>11      -0.0173
  14 C10       0.0703    -6.5351    -8.4921  C.ar    1  <O>11       0.0778
  15 C11       0.4279    -6.2973    -9.8519  C.ar    1  <O>11       0.0006
  16 C12      -0.4911    -5.7008   -10.7325  C.ar    1  <O>11      -0.0526
  17 C13      -0.1419    -5.4798   -12.0697  C.ar    1  <O>11      -0.0611
  18 C14       1.1211    -5.8479   -12.5392  C.ar    1  <O>11      -0.0617
  19 C15       2.0372    -6.4367   -11.6596  C.ar    1  <O>11      -0.0611
  20 C16       1.7000    -6.6585   -10.3238  C.ar    1  <O>11      -0.0526
  21 N3       -0.5001    -7.7221    -8.2101  N.ar    1  <O>11      -0.1946
  22 C17       0.6812    -9.4735    -5.5343  C.ar    1  <O>11      -0.0071
  23 H1        3.0200    -8.8319    -6.2513  H       1  <O>11       0.1453
  24 H2        4.4949    -8.8646    -5.2793  H       1  <O>11       0.1453
  25 H3        1.4929   -11.6857    -3.1408  H       1  <O>11       0.0625
  26 H4       -0.8415   -12.2992    -3.4417  H       1  <O>11       0.0619
  27 H5       -2.2108   -11.1223    -5.0698  H       1  <O>11       0.0654
  28 H6        0.0970    -5.1968    -5.5270  H       1  <O>11       0.0832
  29 H7        0.7535    -4.6641    -7.7870  H       1  <O>11       0.0654
  30 H8       -1.4257    -5.4252   -10.3922  H       1  <O>11       0.0624
  31 H9       -0.8209    -5.0425   -12.7120  H       1  <O>11       0.0618
  32 H10       1.3766    -5.6873   -13.5260  H       1  <O>11       0.0618
  33 H11       2.9715    -6.7096   -12.0026  H       1  <O>11       0.0618
  34 H12       2.3855    -7.0878    -9.6829  H       1  <O>11       0.0624
  35 H13       1.0895    -8.7083    -6.0937  H       1  <O>11       0.0662
@<TRIPOS>BOND
     1     1     2   am
     2     2     3    2
     3     2     4    1
     4     4     5   ar
     5     5     6   ar
     6     6     7   ar
     7     7     8   ar
     8     8     9    1
     9     9    10    1
    10    10    11   ar
    11    11    12   ar
    12    12    13   ar
    13    13    14   ar
    14    14    15    1
    15    15    16   ar
    16    16    17   ar
    17    17    18   ar
    18    18    19   ar
    19    19    20   ar
    20    15    20   ar
    21    14    21   ar
    22    10    21   ar
    23     8    22   ar
    24     4    22   ar
    25     1    23    1
    26     1    24    1
    27     5    25    1
    28     6    26    1
    29     7    27    1
    30    12    28    1
    31    13    29    1
    32    16    30    1
    33    17    31    1
    34    18    32    1
    35    19    33    1
    36    20    34    1
    37    22    35    1
@<TRIPOS>MOLECULE
mol54_1_17
 35 37 0 0 0
SMALL
USER_CHARGES
****
VDW energy = -58.42
@<TRIPOS>ATOM
   1 N1        3.5126    -9.1101    -5.4025  N.am    1  <O>11      -0.3253
   2 C1        2.8552    -9.8129    -4.4288  C.2     1  <O>11       0.2416
   3 O1        3.4454   -10.1461    -3.4119  O.2     1  <O>11      -0.2704
   4 C2        1.4620   -10.1610    -4.6040  C.ar    1  <O>11       0.0400
   5 C3        0.9118   -11.1883    -3.8335  C.ar    1  <O>11      -0.0494
   6 C4       -0.4317   -11.5388    -4.0063  C.ar    1  <O>11      -0.0576
   7 C5       -1.2203   -10.8628    -4.9408  C.ar    1  <O>11      -0.0192
   8 C6       -0.6575    -9.8313    -5.7005  C.ar    1  <O>11       0.1326
   9 O2       -1.4324    -9.1723    -6.6112  O.3     1  <O>11      -0.4236
  10 C7       -0.8483    -7.9669    -6.9258  C.ar    1  <O>11       0.3239
  11 N2       -1.1642    -6.8726    -6.1947  N.ar    1  <O>11      -0.2030
  12 C8       -0.5792    -5.7053    -6.5207  C.ar    1  <O>11       0.0350
  13 C9        0.3145    -5.5677    -7.5508  C.ar    1  <O>11      -0.0173
  14 C10       0.5835    -6.7194    -8.2452  C.ar    1  <O>11       0.0778
  15 C11       1.4999    -6.6824    -9.3372  C.ar    1  <O>11       0.0006
  16 C12       2.6634    -7.4708    -9.3129  C.ar    1  <O>11      -0.0526
  17 C13       3.5672    -7.4235   -10.3805  C.ar    1  <O>11      -0.0611
  18 C14       3.3204    -6.5951   -11.4777  C.ar    1  <O>11      -0.0617
  19 C15       2.1585    -5.8148   -11.5029  C.ar    1  <O>11      -0.0611
  20 C16       1.2494    -5.8571   -10.4451  C.ar    1  <O>11      -0.0526
  21 N3        0.0252    -7.9108    -7.9576  N.ar    1  <O>11      -0.1946
  22 C17       0.6812    -9.4735    -5.5343  C.ar    1  <O>11      -0.0071
  23 H1        3.0200    -8.8319    -6.2513  H       1  <O>11       0.1453
  24 H2        4.4949    -8.8646    -5.2793  H       1  <O>11       0.1453
  25 H3        1.4929   -11.6857    -3.1408  H       1  <O>11       0.0625
  26 H4       -0.8415   -12.2992    -3.4417  H       1  <O>11       0.0619
  27 H5       -2.2108   -11.1223    -5.0698  H       1  <O>11       0.0654
  28 H6       -0.8164    -4.8685    -5.9652  H       1  <O>11       0.0832
  29 H7        0.7530    -4.6637    -7.7865  H       1  <O>11       0.0654
  30 H8        2.8516    -8.0861    -8.5060  H       1  <O>11       0.0624
  31 H9        4.4203    -8.0036   -10.3569  H       1  <O>11       0.0618
  32 H10       3.9889    -6.5586   -12.2630  H       1  <O>11       0.0618
  33 H11       1.9723    -5.2019   -12.3121  H       1  <O>11       0.0618
  34 H12       0.3931    -5.2821   -10.4772  H       1  <O>11       0.0624
  35 H13       1.0895    -8.7083    -6.0937  H       1  <O>11       0.0662
@<TRIPOS>BOND
     1     1     2   am
     2     2     3    2
     3     2     4    1
     4     4     5   ar
     5     5     6   ar
     6     6     7   ar
     7     7     8   ar
     8     8     9    1
     9     9    10    1
    10    10    11   ar
    11    11    12   ar
    12    12    13   ar
    13    13    14   ar
    14    14    15    1
    15    15    16   ar
    16    16    17   ar
    17    17    18   ar
    18    18    19   ar
    19    19    20   ar
    20    15    20   ar
    21    14    21   ar
    22    10    21   ar
    23     8    22   ar
    24     4    22   ar
    25     1    23    1
    26     1    24    1
    27     5    25    1
    28     6    26    1
    29     7    27    1
    30    12    28    1
    31    13    29    1
    32    16    30    1
    33    17    31    1
    34    18    32    1
    35    19    33    1
    36    20    34    1
    37    22    35    1
@<TRIPOS>MOLECULE
mol54_1_18
 35 37 0 0 0
SMALL
USER_CHARGES
****
VDW energy = -58.30
@<TRIPOS>ATOM
   1 N1        3.5126    -9.1101    -5.4025  N.am    1  <O>11      -0.3253
   2 C1        2.8552    -9.8129    -4.4288  C.2     1  <O>11       0.2416
   3 O1        3.4454   -10.1461    -3.4119  O.2     1  <O>11      -0.2704
   4 C2        1.4620   -10.1610    -4.6040  C.ar    1  <O>11       0.0400
   5 C3        0.9118   -11.1883    -3.8335  C.ar    1  <O>11      -0.0494
   6 C4       -0.4317   -11.5388    -4.0063  C.ar    1  <O>11      -0.0576
   7 C5       -1.2203   -10.8628    -4.9408  C.ar    1  <O>11      -0.0192
   8 C6       -0.6575    -9.8313    -5.7005  C.ar    1  <O>11       0.1326
   9 O2       -1.4324    -9.1723    -6.6112  O.3     1  <O>11      -0.4236
  10 C7       -0.8483    -7.9669    -6.9258  C.ar    1  <O>11       0.3239
  11 N2        0.0258    -7.9093    -7.9575  N.ar    1  <O>11      -0.2030
  12 C8        0.5833    -6.7191    -8.2468  C.ar    1  <O>11       0.0350
  13 C9        0.3140    -5.5680    -7.5530  C.ar    1  <O>11      -0.0173
  14 C10      -0.5799    -5.7059    -6.5221  C.ar    1  <O>11       0.0778
  15 C11      -0.9265    -4.5671    -5.7370  C.ar    1  <O>11       0.0006
  16 C12      -0.6769    -4.5574    -4.3537  C.ar    1  <O>11      -0.0526
  17 C13      -1.0293    -3.4433    -3.5834  C.ar    1  <O>11      -0.0611
  18 C14      -1.6294    -2.3330    -4.1818  C.ar    1  <O>11      -0.0617
  19 C15      -1.8721    -2.3419    -5.5604  C.ar    1  <O>11      -0.0611
  20 C16      -1.5217    -3.4463    -6.3379  C.ar    1  <O>11      -0.0526
  21 N3       -1.1648    -6.8738    -6.1939  N.ar    1  <O>11      -0.1946
  22 C17       0.6812    -9.4735    -5.5343  C.ar    1  <O>11      -0.0071
  23 H1        3.0200    -8.8319    -6.2513  H       1  <O>11       0.1453
  24 H2        4.4949    -8.8646    -5.2793  H       1  <O>11       0.1453
  25 H3        1.4929   -11.6857    -3.1408  H       1  <O>11       0.0625
  26 H4       -0.8415   -12.2992    -3.4417  H       1  <O>11       0.0619
  27 H5       -2.2108   -11.1223    -5.0698  H       1  <O>11       0.0654
  28 H6        1.2495    -6.6704    -9.0334  H       1  <O>11       0.0832
  29 H7        0.7518    -4.6638    -7.7892  H       1  <O>11       0.0654
  30 H8       -0.2328    -5.3738    -3.9050  H       1  <O>11       0.0624
  31 H9       -0.8447    -3.4421    -2.5680  H       1  <O>11       0.0618
  32 H10      -1.8915    -1.5132    -3.6125  H       1  <O>11       0.0618
  33 H11      -2.3148    -1.5232    -6.0063  H       1  <O>11       0.0618
  34 H12      -1.6999    -3.4394    -7.3543  H       1  <O>11       0.0624
  35 H13       1.0895    -8.7083    -6.0937  H       1  <O>11       0.0662
@<TRIPOS>BOND
     1     1     2   am
     2     2     3    2
     3     2     4    1
     4     4     5   ar
     5     5     6   ar
     6     6     7   ar
     7     7     8   ar
     8     8     9    1
     9     9    10    1
    10    10    11   ar
    11    11    12   ar
    12    12    13   ar
    13    13    14   ar
    14    14    15    1
    15    15    16   ar
    16    16    17   ar
    17    17    18   ar
    18    18    19   ar
    19    19    20   ar
    20    15    20   ar
    21    14    21   ar
    22    10    21   ar
    23     8    22   ar
    24     4    22   ar
    25     1    23    1
    26     1    24    1
    27     5    25    1
    28     6    26    1
    29     7    27    1
    30    12    28    1
    31    13    29    1
    32    16    30    1
    33    17    31    1
    34    18    32    1
    35    19    33    1
    36    20    34    1
    37    22    35    1
@<TRIPOS>MOLECULE
mol54_1_19
 35 37 0 0 0
SMALL
USER_CHARGES
****
VDW energy = -58.21
@<TRIPOS>ATOM
   1 N1        3.5126    -9.1101    -5.4025  N.am    1  <O>11      -0.3253
   2 C1        2.8552    -9.8129    -4.4288  C.2     1  <O>11       0.2416
   3 O1        3.4454   -10.1461    -3.4119  O.2     1  <O>11      -0.2704
   4 C2        1.4620   -10.1610    -4.6040  C.ar    1  <O>11       0.0400
   5 C3        0.9118   -11.1883    -3.8335  C.ar    1  <O>11      -0.0494
   6 C4       -0.4317   -11.5388    -4.0063  C.ar    1  <O>11      -0.0576
   7 C5       -1.2203   -10.8628    -4.9408  C.ar    1  <O>11      -0.0192
   8 C6       -0.6575    -9.8313    -5.7005  C.ar    1  <O>11       0.1326
   9 O2       -1.4324    -9.1723    -6.6112  O.3     1  <O>11      -0.4236
  10 C7       -0.8483    -7.9669    -6.9258  C.ar    1  <O>11       0.3239
  11 N2        0.0258    -7.9093    -7.9575  N.ar    1  <O>11      -0.2030
  12 C8        0.5833    -6.7191    -8.2468  C.ar    1  <O>11       0.0350
  13 C9        0.3140    -5.5680    -7.5530  C.ar    1  <O>11      -0.0173
  14 C10      -0.5799    -5.7059    -6.5221  C.ar    1  <O>11       0.0778
  15 C11      -0.9265    -4.5671    -5.7370  C.ar    1  <O>11       0.0006
  16 C12      -2.2617    -4.1331    -5.6687  C.ar    1  <O>11      -0.0526
  17 C13      -2.5973    -3.0078    -4.9072  C.ar    1  <O>11      -0.0611
  18 C14      -1.6103    -2.3087    -4.2086  C.ar    1  <O>11      -0.0617
  19 C15      -0.2818    -2.7454    -4.2731  C.ar    1  <O>11      -0.0611
  20 C16       0.0627    -3.8680    -5.0268  C.ar    1  <O>11      -0.0526
  21 N3       -1.1648    -6.8738    -6.1939  N.ar    1  <O>11      -0.1946
  22 C17       0.6812    -9.4735    -5.5343  C.ar    1  <O>11      -0.0071
  23 H1        3.0200    -8.8319    -6.2513  H       1  <O>11       0.1453
  24 H2        4.4949    -8.8646    -5.2793  H       1  <O>11       0.1453
  25 H3        1.4929   -11.6857    -3.1408  H       1  <O>11       0.0625
  26 H4       -0.8415   -12.2992    -3.4417  H       1  <O>11       0.0619
  27 H5       -2.2108   -11.1223    -5.0698  H       1  <O>11       0.0654
  28 H6        1.2495    -6.6704    -9.0334  H       1  <O>11       0.0832
  29 H7        0.7518    -4.6638    -7.7892  H       1  <O>11       0.0654
  30 H8       -2.9964    -4.6456    -6.1813  H       1  <O>11       0.0624
  31 H9       -3.5790    -2.6930    -4.8615  H       1  <O>11       0.0618
  32 H10      -1.8582    -1.4773    -3.6498  H       1  <O>11       0.0618
  33 H11       0.4502    -2.2318    -3.7579  H       1  <O>11       0.0618
  34 H12       1.0443    -4.1844    -5.0623  H       1  <O>11       0.0624
  35 H13       1.0895    -8.7083    -6.0937  H       1  <O>11       0.0662
@<TRIPOS>BOND
     1     1     2   am
     2     2     3    2
     3     2     4    1
     4     4     5   ar
     5     5     6   ar
     6     6     7   ar
     7     7     8   ar
     8     8     9    1
     9     9    10    1
    10    10    11   ar
    11    11    12   ar
    12    12    13   ar
    13    13    14   ar
    14    14    15    1
    15    15    16   ar
    16    16    17   ar
    17    17    18   ar
    18    18    19   ar
    19    19    20   ar
    20    15    20   ar
    21    14    21   ar
    22    10    21   ar
    23     8    22   ar
    24     4    22   ar
    25     1    23    1
    26     1    24    1
    27     5    25    1
    28     6    26    1
    29     7    27    1
    30    12    28    1
    31    13    29    1
    32    16    30    1
    33    17    31    1
    34    18    32    1
    35    19    33    1
    36    20    34    1
    37    22    35    1
@<TRIPOS>MOLECULE
mol54_1_20
 35 37 0 0 0
SMALL
USER_CHARGES
****
VDW energy = -57.99
@<TRIPOS>ATOM
   1 N1        3.5126    -9.1101    -5.4025  N.am    1  <O>11      -0.3253
   2 C1        2.8552    -9.8129    -4.4288  C.2     1  <O>11       0.2416
   3 O1        3.4454   -10.1461    -3.4119  O.2     1  <O>11      -0.2704
   4 C2        1.4620   -10.1610    -4.6040  C.ar    1  <O>11       0.0400
   5 C3        1.0119   -10.5678    -5.8624  C.ar    1  <O>11      -0.0494
   6 C4       -0.3368   -10.8940    -6.0423  C.ar    1  <O>11      -0.0576
   7 C5       -1.2280   -10.8179    -4.9689  C.ar    1  <O>11      -0.0192
   8 C6       -0.7615   -10.4156    -3.7126  C.ar    1  <O>11       0.1326
   9 O2       -1.6356   -10.3445    -2.6662  O.3     1  <O>11      -0.4236
  10 C7       -2.6348    -9.4459    -2.9616  C.ar    1  <O>11       0.3239
  11 N2       -2.3065    -8.1576    -3.2155  N.ar    1  <O>11      -0.2030
  12 C8       -3.3010    -7.2978    -3.5030  C.ar    1  <O>11       0.0350
  13 C9       -4.6229    -7.6571    -3.5505  C.ar    1  <O>11      -0.0173
  14 C10      -4.8767    -8.9778    -3.2815  C.ar    1  <O>11       0.0778
  15 C11      -6.2211    -9.4526    -3.3040  C.ar    1  <O>11       0.0006
  16 C12      -7.2888    -8.5507    -3.4531  C.ar    1  <O>11      -0.0526
  17 C13      -8.6080    -9.0181    -3.4625  C.ar    1  <O>11      -0.0611
  18 C14      -8.8741   -10.3825    -3.3258  C.ar    1  <O>11      -0.0617
  19 C15      -7.8094   -11.2801    -3.1831  C.ar    1  <O>11      -0.0611
  20 C16      -6.4905   -10.8247    -3.1756  C.ar    1  <O>11      -0.0526
  21 N3       -3.9172    -9.8767    -2.9895  N.ar    1  <O>11      -0.1946
  22 C17       0.5822   -10.0896    -3.5229  C.ar    1  <O>11      -0.0071
  23 H1        3.0200    -8.8319    -6.2513  H       1  <O>11       0.1453
  24 H2        4.4949    -8.8646    -5.2793  H       1  <O>11       0.1453
  25 H3        1.6704   -10.6273    -6.6548  H       1  <O>11       0.0625
  26 H4       -0.6744   -11.1918    -6.9709  H       1  <O>11       0.0619
  27 H5       -2.2232   -11.0568    -5.1017  H       1  <O>11       0.0654
  28 H6       -3.0551    -6.3147    -3.6983  H       1  <O>11       0.0832
  29 H7       -5.3724    -6.9833    -3.7724  H       1  <O>11       0.0654
  30 H8       -7.0996    -7.5414    -3.5557  H       1  <O>11       0.0624
  31 H9       -9.3881    -8.3514    -3.5711  H       1  <O>11       0.0618
  32 H10      -9.8472   -10.7259    -3.3299  H       1  <O>11       0.0618
  33 H11      -8.0020   -12.2890    -3.0824  H       1  <O>11       0.0618
  34 H12      -5.7132   -11.4961    -3.0758  H       1  <O>11       0.0624
  35 H13       0.9217    -9.7986    -2.5928  H       1  <O>11       0.0662
@<TRIPOS>BOND
     1     1     2   am
     2     2     3    2
     3     2     4    1
     4     4     5   ar
     5     5     6   ar
     6     6     7   ar
     7     7     8   ar
     8     8     9    1
     9     9    10    1
    10    10    11   ar
    11    11    12   ar
    12    12    13   ar
    13    13    14   ar
    14    14    15    1
    15    15    16   ar
    16    16    17   ar
    17    17    18   ar
    18    18    19   ar
    19    19    20   ar
    20    15    20   ar
    21    14    21   ar
    22    10    21   ar
    23     8    22   ar
    24     4    22   ar
    25     1    23    1
    26     1    24    1
    27     5    25    1
    28     6    26    1
    29     7    27    1
    30    12    28    1
    31    13    29    1
    32    16    30    1
    33    17    31    1
    34    18    32    1
    35    19    33    1
    36    20    34    1
    37    22    35    1
@<TRIPOS>MOLECULE
mol54_1_21
 35 37 0 0 0
SMALL
USER_CHARGES
****
VDW energy = -56.81
@<TRIPOS>ATOM
   1 N1        3.5126    -9.1101    -5.4025  N.am    1  <O>11      -0.3253
   2 C1        2.8552    -9.8129    -4.4288  C.2     1  <O>11       0.2416
   3 O1        3.4454   -10.1461    -3.4119  O.2     1  <O>11      -0.2704
   4 C2        1.4620   -10.1610    -4.6040  C.ar    1  <O>11       0.0400
   5 C3        0.9118   -11.1883    -3.8335  C.ar    1  <O>11      -0.0494
   6 C4       -0.4317   -11.5388    -4.0063  C.ar    1  <O>11      -0.0576
   7 C5       -1.2203   -10.8628    -4.9408  C.ar    1  <O>11      -0.0192
   8 C6       -0.6575    -9.8313    -5.7005  C.ar    1  <O>11       0.1326
   9 O2       -1.4324    -9.1723    -6.6112  O.3     1  <O>11      -0.4236
  10 C7       -0.8483    -7.9669    -6.9258  C.ar    1  <O>11       0.3239
  11 N2       -0.6391    -7.0611    -5.9421  N.ar    1  <O>11      -0.2030
  12 C8       -0.0654    -5.8900    -6.2741  C.ar    1  <O>11       0.0350
  13 C9        0.3150    -5.5680    -7.5510  C.ar    1  <O>11      -0.0173
  14 C10       0.0703    -6.5351    -8.4921  C.ar    1  <O>11       0.0778
  15 C11       0.4279    -6.2973    -9.8519  C.ar    1  <O>11       0.0006
  16 C12       1.3445    -7.1420   -10.5017  C.ar    1  <O>11      -0.0526
  17 C13       1.7031    -6.8992   -11.8326  C.ar    1  <O>11      -0.0611
  18 C14       1.1530    -5.8183   -12.5256  C.ar    1  <O>11      -0.0617
  19 C15       0.2361    -4.9813   -11.8788  C.ar    1  <O>11      -0.0611
  20 C16      -0.1305    -5.2167   -10.5532  C.ar    1  <O>11      -0.0526
  21 N3       -0.5001    -7.7221    -8.2101  N.ar    1  <O>11      -0.1946
  22 C17       0.6812    -9.4735    -5.5343  C.ar    1  <O>11      -0.0071
  23 H1        3.0200    -8.8319    -6.2513  H       1  <O>11       0.1453
  24 H2        4.4949    -8.8646    -5.2793  H       1  <O>11       0.1453
  25 H3        1.4929   -11.6857    -3.1408  H       1  <O>11       0.0625
  26 H4       -0.8415   -12.2992    -3.4417  H       1  <O>11       0.0619
  27 H5       -2.2108   -11.1223    -5.0698  H       1  <O>11       0.0654
  28 H6        0.0970    -5.1968    -5.5270  H       1  <O>11       0.0832
  29 H7        0.7535    -4.6641    -7.7870  H       1  <O>11       0.0654
  30 H8        1.7540    -7.9432    -9.9962  H       1  <O>11       0.0624
  31 H9        2.3773    -7.5218   -12.3044  H       1  <O>11       0.0618
  32 H10       1.4203    -5.6383   -13.5059  H       1  <O>11       0.0618
  33 H11      -0.1729    -4.1820   -12.3876  H       1  <O>11       0.0618
  34 H12      -0.8120    -4.5966   -10.0883  H       1  <O>11       0.0624
  35 H13       1.0895    -8.7083    -6.0937  H       1  <O>11       0.0662
@<TRIPOS>BOND
     1     1     2   am
     2     2     3    2
     3     2     4    1
     4     4     5   ar
     5     5     6   ar
     6     6     7   ar
     7     7     8   ar
     8     8     9    1
     9     9    10    1
    10    10    11   ar
    11    11    12   ar
    12    12    13   ar
    13    13    14   ar
    14    14    15    1
    15    15    16   ar
    16    16    17   ar
    17    17    18   ar
    18    18    19   ar
    19    19    20   ar
    20    15    20   ar
    21    14    21   ar
    22    10    21   ar
    23     8    22   ar
    24     4    22   ar
    25     1    23    1
    26     1    24    1
    27     5    25    1
    28     6    26    1
    29     7    27    1
    30    12    28    1
    31    13    29    1
    32    16    30    1
    33    17    31    1
    34    18    32    1
    35    19    33    1
    36    20    34    1
    37    22    35    1
@<TRIPOS>MOLECULE
mol54_1_22
 35 37 0 0 0
SMALL
USER_CHARGES
****
VDW energy = -56.74
@<TRIPOS>ATOM
   1 N1        3.5126    -9.1101    -5.4025  N.am    1  <O>11      -0.3253
   2 C1        2.8552    -9.8129    -4.4288  C.2     1  <O>11       0.2416
   3 O1        3.4454   -10.1461    -3.4119  O.2     1  <O>11      -0.2704
   4 C2        1.4620   -10.1610    -4.6040  C.ar    1  <O>11       0.0400
   5 C3        0.9118   -11.1883    -3.8335  C.ar    1  <O>11      -0.0494
   6 C4       -0.4317   -11.5388    -4.0063  C.ar    1  <O>11      -0.0576
   7 C5       -1.2203   -10.8628    -4.9408  C.ar    1  <O>11      -0.0192
   8 C6       -0.6575    -9.8313    -5.7005  C.ar    1  <O>11       0.1326
   9 O2       -1.4324    -9.1723    -6.6112  O.3     1  <O>11      -0.4236
  10 C7       -0.8483    -7.9669    -6.9258  C.ar    1  <O>11       0.3239
  11 N2       -0.6391    -7.0611    -5.9421  N.ar    1  <O>11      -0.2030
  12 C8       -0.0654    -5.8900    -6.2741  C.ar    1  <O>11       0.0350
  13 C9        0.3150    -5.5680    -7.5510  C.ar    1  <O>11      -0.0173
  14 C10       0.0703    -6.5351    -8.4921  C.ar    1  <O>11       0.0778
  15 C11       0.4279    -6.2973    -9.8519  C.ar    1  <O>11       0.0006
  16 C12      -0.5552    -6.3135   -10.8565  C.ar    1  <O>11      -0.0526
  17 C13      -0.1996    -6.0920   -12.1919  C.ar    1  <O>11      -0.0611
  18 C14       1.1324    -5.8518   -12.5368  C.ar    1  <O>11      -0.0617
  19 C15       2.1094    -5.8304   -11.5346  C.ar    1  <O>11      -0.0611
  20 C16       1.7650    -6.0469   -10.1998  C.ar    1  <O>11      -0.0526
  21 N3       -0.5001    -7.7221    -8.2101  N.ar    1  <O>11      -0.1946
  22 C17       0.6812    -9.4735    -5.5343  C.ar    1  <O>11      -0.0071
  23 H1        3.0200    -8.8319    -6.2513  H       1  <O>11       0.1453
  24 H2        4.4949    -8.8646    -5.2793  H       1  <O>11       0.1453
  25 H3        1.4929   -11.6857    -3.1408  H       1  <O>11       0.0625
  26 H4       -0.8415   -12.2992    -3.4417  H       1  <O>11       0.0619
  27 H5       -2.2108   -11.1223    -5.0698  H       1  <O>11       0.0654
  28 H6        0.0970    -5.1968    -5.5270  H       1  <O>11       0.0832
  29 H7        0.7535    -4.6641    -7.7870  H       1  <O>11       0.0654
  30 H8       -1.5415    -6.4892   -10.6088  H       1  <O>11       0.0624
  31 H9       -0.9253    -6.1061   -12.9255  H       1  <O>11       0.0618
  32 H10       1.3941    -5.6915   -13.5221  H       1  <O>11       0.0618
  33 H11       3.0946    -5.6527   -11.7854  H       1  <O>11       0.0618
  34 H12       2.4927    -6.0229    -9.4686  H       1  <O>11       0.0624
  35 H13       1.0895    -8.7083    -6.0937  H       1  <O>11       0.0662
@<TRIPOS>BOND
     1     1     2   am
     2     2     3    2
     3     2     4    1
     4     4     5   ar
     5     5     6   ar
     6     6     7   ar
     7     7     8   ar
     8     8     9    1
     9     9    10    1
    10    10    11   ar
    11    11    12   ar
    12    12    13   ar
    13    13    14   ar
    14    14    15    1
    15    15    16   ar
    16    16    17   ar
    17    17    18   ar
    18    18    19   ar
    19    19    20   ar
    20    15    20   ar
    21    14    21   ar
    22    10    21   ar
    23     8    22   ar
    24     4    22   ar
    25     1    23    1
    26     1    24    1
    27     5    25    1
    28     6    26    1
    29     7    27    1
    30    12    28    1
    31    13    29    1
    32    16    30    1
    33    17    31    1
    34    18    32    1
    35    19    33    1
    36    20    34    1
    37    22    35    1
@<TRIPOS>MOLECULE
mol54_1_23
 35 37 0 0 0
SMALL
USER_CHARGES
****
VDW energy = -53.75
@<TRIPOS>ATOM
   1 N1        3.5126    -9.1101    -5.4025  N.am    1  <O>11      -0.3253
   2 C1        2.8552    -9.8129    -4.4288  C.2     1  <O>11       0.2416
   3 O1        3.4454   -10.1461    -3.4119  O.2     1  <O>11      -0.2704
   4 C2        1.4620   -10.1610    -4.6040  C.ar    1  <O>11       0.0400
   5 C3        1.1317   -11.3708    -5.2197  C.ar    1  <O>11      -0.0494
   6 C4       -0.2136   -11.7084    -5.4038  C.ar    1  <O>11      -0.0576
   7 C5       -1.2215   -10.8431    -4.9705  C.ar    1  <O>11      -0.0192
   8 C6       -0.8757    -9.6381    -4.3492  C.ar    1  <O>11       0.1326
   9 O2       -1.8640    -8.7965    -3.9259  O.3     1  <O>11      -0.4236
  10 C7       -1.3544    -7.9189    -2.9968  C.ar    1  <O>11       0.3239
  11 N2       -0.8366    -6.7418    -3.4190  N.ar    1  <O>11      -0.2030
  12 C8       -0.3452    -5.8996    -2.4915  C.ar    1  <O>11       0.0350
  13 C9       -0.3407    -6.1714    -1.1481  C.ar    1  <O>11      -0.0173
  14 C10      -0.8809    -7.3824    -0.7979  C.ar    1  <O>11       0.0778
  15 C11      -0.9224    -7.7611     0.5763  C.ar    1  <O>11       0.0006
  16 C12      -0.2842    -6.9715     1.5486  C.ar    1  <O>11      -0.0526
  17 C13      -0.3161    -7.3520     2.8950  C.ar    1  <O>11      -0.0611
  18 C14      -0.9824    -8.5165     3.2836  C.ar    1  <O>11      -0.0617
  19 C15      -1.6222    -9.2987     2.3149  C.ar    1  <O>11      -0.0611
  20 C16      -1.5991    -8.9265     0.9703  C.ar    1  <O>11      -0.0526
  21 N3       -1.3855    -8.2586    -1.6875  N.ar    1  <O>11      -0.1946
  22 C17       0.4633    -9.2931    -4.1598  C.ar    1  <O>11      -0.0071
  23 H1        3.0200    -8.8319    -6.2513  H       1  <O>11       0.1453
  24 H2        4.4949    -8.8646    -5.2793  H       1  <O>11       0.1453
  25 H3        1.8757   -12.0117    -5.5369  H       1  <O>11       0.0625
  26 H4       -0.4623   -12.5995    -5.8611  H       1  <O>11       0.0619
  27 H5       -2.2138   -11.0910    -5.1078  H       1  <O>11       0.0654
  28 H6        0.0495    -5.0004    -2.8089  H       1  <O>11       0.0832
  29 H7        0.0412    -5.5131    -0.4511  H       1  <O>11       0.0654
  30 H8        0.2090    -6.1092     1.2688  H       1  <O>11       0.0624
  31 H9        0.1551    -6.7692     3.6044  H       1  <O>11       0.0618
  32 H10      -1.0028    -8.7978     4.2762  H       1  <O>11       0.0618
  33 H11      -2.1160   -10.1595     2.5981  H       1  <O>11       0.0618
  34 H12      -2.0793    -9.5076     0.2656  H       1  <O>11       0.0624
  35 H13       0.7123    -8.4055    -3.6961  H       1  <O>11       0.0662
@<TRIPOS>BOND
     1     1     2   am
     2     2     3    2
     3     2     4    1
     4     4     5   ar
     5     5     6   ar
     6     6     7   ar
     7     7     8   ar
     8     8     9    1
     9     9    10    1
    10    10    11   ar
    11    11    12   ar
    12    12    13   ar
    13    13    14   ar
    14    14    15    1
    15    15    16   ar
    16    16    17   ar
    17    17    18   ar
    18    18    19   ar
    19    19    20   ar
    20    15    20   ar
    21    14    21   ar
    22    10    21   ar
    23     8    22   ar
    24     4    22   ar
    25     1    23    1
    26     1    24    1
    27     5    25    1
    28     6    26    1
    29     7    27    1
    30    12    28    1
    31    13    29    1
    32    16    30    1
    33    17    31    1
    34    18    32    1
    35    19    33    1
    36    20    34    1
    37    22    35    1
@<TRIPOS>MOLECULE
mol54_1_24
 35 37 0 0 0
SMALL
USER_CHARGES
****
VDW energy = -53.12
@<TRIPOS>ATOM
   1 N1        3.5126    -9.1101    -5.4025  N.am    1  <O>11      -0.3253
   2 C1        2.8552    -9.8129    -4.4288  C.2     1  <O>11       0.2416
   3 O1        3.4454   -10.1461    -3.4119  O.2     1  <O>11      -0.2704
   4 C2        1.4620   -10.1610    -4.6040  C.ar    1  <O>11       0.0400
   5 C3        1.1317   -11.3708    -5.2197  C.ar    1  <O>11      -0.0494
   6 C4       -0.2136   -11.7084    -5.4038  C.ar    1  <O>11      -0.0576
   7 C5       -1.2215   -10.8431    -4.9705  C.ar    1  <O>11      -0.0192
   8 C6       -0.8757    -9.6381    -4.3492  C.ar    1  <O>11       0.1326
   9 O2       -1.8640    -8.7965    -3.9259  O.3     1  <O>11      -0.4236
  10 C7       -2.6529    -9.4415    -3.0014  C.ar    1  <O>11       0.3239
  11 N2       -3.3042   -10.5705    -3.3664  N.ar    1  <O>11      -0.2030
  12 C8       -4.0688   -11.1841    -2.4445  C.ar    1  <O>11       0.0350
  13 C9       -4.2226   -10.7263    -1.1617  C.ar    1  <O>11      -0.0173
  14 C10      -3.5329    -9.5780    -0.8673  C.ar    1  <O>11       0.0778
  15 C11      -3.6273    -9.0187     0.4410  C.ar    1  <O>11       0.0006
  16 C12      -4.5319    -9.5513     1.3758  C.ar    1  <O>11      -0.0526
  17 C13      -4.6313    -8.9927     2.6552  C.ar    1  <O>11      -0.0611
  18 C14      -3.8328    -7.9042     3.0138  C.ar    1  <O>11      -0.0617
  19 C15      -2.9284    -7.3785     2.0836  C.ar    1  <O>11      -0.0611
  20 C16      -2.8192    -7.9302     0.8066  C.ar    1  <O>11      -0.0526
  21 N3       -2.7548    -8.9279    -1.7538  N.ar    1  <O>11      -0.1946
  22 C17       0.4633    -9.2931    -4.1598  C.ar    1  <O>11      -0.0071
  23 H1        3.0200    -8.8319    -6.2513  H       1  <O>11       0.1453
  24 H2        4.4949    -8.8646    -5.2793  H       1  <O>11       0.1453
  25 H3        1.8757   -12.0117    -5.5369  H       1  <O>11       0.0625
  26 H4       -0.4623   -12.5995    -5.8611  H       1  <O>11       0.0619
  27 H5       -2.2138   -11.0910    -5.1078  H       1  <O>11       0.0654
  28 H6       -4.5663   -12.0458    -2.7182  H       1  <O>11       0.0832
  29 H7       -4.8140   -11.2103    -0.4681  H       1  <O>11       0.0654
  30 H8       -5.1242   -10.3562     1.1181  H       1  <O>11       0.0624
  31 H9       -5.2980    -9.3870     3.3371  H       1  <O>11       0.0618
  32 H10      -3.9090    -7.4911     3.9564  H       1  <O>11       0.0618
  33 H11      -2.3363    -6.5747     2.3451  H       1  <O>11       0.0618
  34 H12      -2.1448    -7.5383     0.1310  H       1  <O>11       0.0624
  35 H13       0.7123    -8.4055    -3.6961  H       1  <O>11       0.0662
@<TRIPOS>BOND
     1     1     2   am
     2     2     3    2
     3     2     4    1
     4     4     5   ar
     5     5     6   ar
     6     6     7   ar
     7     7     8   ar
     8     8     9    1
     9     9    10    1
    10    10    11   ar
    11    11    12   ar
    12    12    13   ar
    13    13    14   ar
    14    14    15    1
    15    15    16   ar
    16    16    17   ar
    17    17    18   ar
    18    18    19   ar
    19    19    20   ar
    20    15    20   ar
    21    14    21   ar
    22    10    21   ar
    23     8    22   ar
    24     4    22   ar
    25     1    23    1
    26     1    24    1
    27     5    25    1
    28     6    26    1
    29     7    27    1
    30    12    28    1
    31    13    29    1
    32    16    30    1
    33    17    31    1
    34    18    32    1
    35    19    33    1
    36    20    34    1
    37    22    35    1
@<TRIPOS>MOLECULE
mol54_1_25
 35 37 0 0 0
SMALL
USER_CHARGES
****
VDW energy = -52.34
@<TRIPOS>ATOM
   1 N1        3.5126    -9.1101    -5.4025  N.am    1  <O>11      -0.3253
   2 C1        2.8552    -9.8129    -4.4288  C.2     1  <O>11       0.2416
   3 O1        3.4454   -10.1461    -3.4119  O.2     1  <O>11      -0.2704
   4 C2        1.4620   -10.1610    -4.6040  C.ar    1  <O>11       0.0400
   5 C3        1.1317   -11.3708    -5.2197  C.ar    1  <O>11      -0.0494
   6 C4       -0.2136   -11.7084    -5.4038  C.ar    1  <O>11      -0.0576
   7 C5       -1.2215   -10.8431    -4.9705  C.ar    1  <O>11      -0.0192
   8 C6       -0.8757    -9.6381    -4.3492  C.ar    1  <O>11       0.1326
   9 O2       -1.8640    -8.7965    -3.9259  O.3     1  <O>11      -0.4236
  10 C7       -1.3544    -7.9189    -2.9968  C.ar    1  <O>11       0.3239
  11 N2       -0.8163    -8.4088    -1.8556  N.ar    1  <O>11      -0.2030
  12 C8       -0.3233    -7.5310    -0.9626  C.ar    1  <O>11       0.0350
  13 C9       -0.3391    -6.1729    -1.1475  C.ar    1  <O>11      -0.0173
  14 C10      -0.9006    -5.7529    -2.3262  C.ar    1  <O>11       0.0778
  15 C11      -0.9669    -4.3578    -2.6138  C.ar    1  <O>11       0.0006
  16 C12      -0.5979    -3.4148    -1.6389  C.ar    1  <O>11      -0.0526
  17 C13      -0.6756    -2.0459    -1.9196  C.ar    1  <O>11      -0.0611
  18 C14      -1.1183    -1.6060    -3.1692  C.ar    1  <O>11      -0.0617
  19 C15      -1.4801    -2.5464    -4.1410  C.ar    1  <O>11      -0.0611
  20 C16      -1.4031    -3.9134    -3.8723  C.ar    1  <O>11      -0.0526
  21 N3       -1.4063    -6.5910    -3.2512  N.ar    1  <O>11      -0.1946
  22 C17       0.4633    -9.2931    -4.1598  C.ar    1  <O>11      -0.0071
  23 H1        3.0200    -8.8319    -6.2513  H       1  <O>11       0.1453
  24 H2        4.4949    -8.8646    -5.2793  H       1  <O>11       0.1453
  25 H3        1.8757   -12.0117    -5.5369  H       1  <O>11       0.0625
  26 H4       -0.4623   -12.5995    -5.8611  H       1  <O>11       0.0619
  27 H5       -2.2138   -11.0910    -5.1078  H       1  <O>11       0.0654
  28 H6        0.0889    -7.9002    -0.0915  H       1  <O>11       0.0832
  29 H7        0.0434    -5.5146    -0.4509  H       1  <O>11       0.0654
  30 H8       -0.2689    -3.7327    -0.7138  H       1  <O>11       0.0624
  31 H9       -0.4045    -1.3581    -1.1997  H       1  <O>11       0.0618
  32 H10      -1.1781    -0.5964    -3.3743  H       1  <O>11       0.0618
  33 H11      -1.8070    -2.2252    -5.0657  H       1  <O>11       0.0618
  34 H12      -1.6667    -4.5978    -4.5983  H       1  <O>11       0.0624
  35 H13       0.7123    -8.4055    -3.6961  H       1  <O>11       0.0662
@<TRIPOS>BOND
     1     1     2   am
     2     2     3    2
     3     2     4    1
     4     4     5   ar
     5     5     6   ar
     6     6     7   ar
     7     7     8   ar
     8     8     9    1
     9     9    10    1
    10    10    11   ar
    11    11    12   ar
    12    12    13   ar
    13    13    14   ar
    14    14    15    1
    15    15    16   ar
    16    16    17   ar
    17    17    18   ar
    18    18    19   ar
    19    19    20   ar
    20    15    20   ar
    21    14    21   ar
    22    10    21   ar
    23     8    22   ar
    24     4    22   ar
    25     1    23    1
    26     1    24    1
    27     5    25    1
    28     6    26    1
    29     7    27    1
    30    12    28    1
    31    13    29    1
    32    16    30    1
    33    17    31    1
    34    18    32    1
    35    19    33    1
    36    20    34    1
    37    22    35    1
@<TRIPOS>MOLECULE
mol54_1_26
 35 37 0 0 0
SMALL
USER_CHARGES
****
VDW energy = -49.68
@<TRIPOS>ATOM
   1 N1        3.5126    -9.1101    -5.4025  N.am    1  <O>11      -0.3253
   2 C1        2.8552    -9.8129    -4.4288  C.2     1  <O>11       0.2416
   3 O1        3.4454   -10.1461    -3.4119  O.2     1  <O>11      -0.2704
   4 C2        1.4620   -10.1610    -4.6040  C.ar    1  <O>11       0.0400
   5 C3        1.0119   -10.5678    -5.8624  C.ar    1  <O>11      -0.0494
   6 C4       -0.3368   -10.8940    -6.0423  C.ar    1  <O>11      -0.0576
   7 C5       -1.2280   -10.8179    -4.9689  C.ar    1  <O>11      -0.0192
   8 C6       -0.7615   -10.4156    -3.7126  C.ar    1  <O>11       0.1326
   9 O2       -1.6356   -10.3445    -2.6662  O.3     1  <O>11      -0.4236
  10 C7       -0.9365   -10.3541    -1.4812  C.ar    1  <O>11       0.3239
  11 N2       -0.1485   -11.4156    -1.1913  N.ar    1  <O>11      -0.2030
  12 C8        0.5262   -11.4016    -0.0270  C.ar    1  <O>11       0.0350
  13 C9        0.4558   -10.3734     0.8768  C.ar    1  <O>11      -0.0173
  14 C10      -0.3627    -9.3347     0.5135  C.ar    1  <O>11       0.0778
  15 C11      -0.5059    -8.2161     1.3862  C.ar    1  <O>11       0.0006
  16 C12       0.0661    -8.2409     2.6700  C.ar    1  <O>11      -0.0526
  17 C13      -0.0864    -7.1465     3.5290  C.ar    1  <O>11      -0.0611
  18 C14      -0.8056    -6.0218     3.1181  C.ar    1  <O>11      -0.0617
  19 C15      -1.3698    -5.9964     1.8372  C.ar    1  <O>11      -0.0611
  20 C16      -1.2209    -7.0809     0.9719  C.ar    1  <O>11      -0.0526
  21 N3       -1.0575    -9.3014    -0.6397  N.ar    1  <O>11      -0.1946
  22 C17       0.5822   -10.0896    -3.5229  C.ar    1  <O>11      -0.0071
  23 H1        3.0200    -8.8319    -6.2513  H       1  <O>11       0.1453
  24 H2        4.4949    -8.8646    -5.2793  H       1  <O>11       0.1453
  25 H3        1.6704   -10.6273    -6.6548  H       1  <O>11       0.0625
  26 H4       -0.6744   -11.1918    -6.9709  H       1  <O>11       0.0619
  27 H5       -2.2232   -11.0568    -5.1017  H       1  <O>11       0.0654
  28 H6        1.1290   -12.2085     0.1976  H       1  <O>11       0.0832
  29 H7        0.9805   -10.3804     1.7654  H       1  <O>11       0.0654
  30 H8        0.5997    -9.0681     2.9798  H       1  <O>11       0.0624
  31 H9        0.3347    -7.1706     4.4708  H       1  <O>11       0.0618
  32 H10      -0.9200    -5.2166     3.7533  H       1  <O>11       0.0618
  33 H11      -1.9014    -5.1669     1.5298  H       1  <O>11       0.0618
  34 H12      -1.6361    -7.0486     0.0277  H       1  <O>11       0.0624
  35 H13       0.9217    -9.7986    -2.5928  H       1  <O>11       0.0662
@<TRIPOS>BOND
     1     1     2   am
     2     2     3    2
     3     2     4    1
     4     4     5   ar
     5     5     6   ar
     6     6     7   ar
     7     7     8   ar
     8     8     9    1
     9     9    10    1
    10    10    11   ar
    11    11    12   ar
    12    12    13   ar
    13    13    14   ar
    14    14    15    1
    15    15    16   ar
    16    16    17   ar
    17    17    18   ar
    18    18    19   ar
    19    19    20   ar
    20    15    20   ar
    21    14    21   ar
    22    10    21   ar
    23     8    22   ar
    24     4    22   ar
    25     1    23    1
    26     1    24    1
    27     5    25    1
    28     6    26    1
    29     7    27    1
    30    12    28    1
    31    13    29    1
    32    16    30    1
    33    17    31    1
    34    18    32    1
    35    19    33    1
    36    20    34    1
    37    22    35    1
@<TRIPOS>MOLECULE
mol54_1_27
 35 37 0 0 0
SMALL
USER_CHARGES
****
VDW energy = -47.54
@<TRIPOS>ATOM
   1 N1        3.5126    -9.1101    -5.4025  N.am    1  <O>11      -0.3253
   2 C1        2.8552    -9.8129    -4.4288  C.2     1  <O>11       0.2416
   3 O1        3.4454   -10.1461    -3.4119  O.2     1  <O>11      -0.2704
   4 C2        1.4620   -10.1610    -4.6040  C.ar    1  <O>11       0.0400
   5 C3        0.9118   -11.1883    -3.8335  C.ar    1  <O>11      -0.0494
   6 C4       -0.4317   -11.5388    -4.0063  C.ar    1  <O>11      -0.0576
   7 C5       -1.2203   -10.8628    -4.9408  C.ar    1  <O>11      -0.0192
   8 C6       -0.6575    -9.8313    -5.7005  C.ar    1  <O>11       0.1326
   9 O2       -1.4324    -9.1723    -6.6112  O.3     1  <O>11      -0.4236
  10 C7       -2.4950    -8.5802    -5.9683  C.ar    1  <O>11       0.3239
  11 N2       -3.3659    -9.3582    -5.2841  N.ar    1  <O>11      -0.2030
  12 C8       -4.3965    -8.7560    -4.6627  C.ar    1  <O>11       0.0350
  13 C9       -4.6097    -7.4022    -4.6878  C.ar    1  <O>11      -0.0173
  14 C10      -3.6865    -6.6812    -5.4011  C.ar    1  <O>11       0.0778
  15 C11      -3.8195    -5.2643    -5.4900  C.ar    1  <O>11       0.0006
  16 C12      -4.9633    -4.6264    -4.9793  C.ar    1  <O>11      -0.0526
  17 C13      -5.0969    -3.2368    -5.0788  C.ar    1  <O>11      -0.0611
  18 C14      -4.0960    -2.4733    -5.6840  C.ar    1  <O>11      -0.0617
  19 C15      -2.9550    -3.1094    -6.1871  C.ar    1  <O>11      -0.0611
  20 C16      -2.8106    -4.4938    -6.0900  C.ar    1  <O>11      -0.0526
  21 N3       -2.6385    -7.2366    -6.0391  N.ar    1  <O>11      -0.1946
  22 C17       0.6812    -9.4735    -5.5343  C.ar    1  <O>11      -0.0071
  23 H1        3.0200    -8.8319    -6.2513  H       1  <O>11       0.1453
  24 H2        4.4949    -8.8646    -5.2793  H       1  <O>11       0.1453
  25 H3        1.4929   -11.6857    -3.1408  H       1  <O>11       0.0625
  26 H4       -0.8415   -12.2992    -3.4417  H       1  <O>11       0.0619
  27 H5       -2.2108   -11.1223    -5.0698  H       1  <O>11       0.0654
  28 H6       -5.0624    -9.3453    -4.1389  H       1  <O>11       0.0832
  29 H7       -5.4065    -6.9580    -4.2053  H       1  <O>11       0.0654
  30 H8       -5.7063    -5.1841    -4.5299  H       1  <O>11       0.0624
  31 H9       -5.9393    -2.7739    -4.7032  H       1  <O>11       0.0618
  32 H10      -4.1968    -1.4490    -5.7596  H       1  <O>11       0.0618
  33 H11      -2.2130    -2.5485    -6.6344  H       1  <O>11       0.0618
  34 H12      -1.9624    -4.9514    -6.4590  H       1  <O>11       0.0624
  35 H13       1.0895    -8.7083    -6.0937  H       1  <O>11       0.0662
@<TRIPOS>BOND
     1     1     2   am
     2     2     3    2
     3     2     4    1
     4     4     5   ar
     5     5     6   ar
     6     6     7   ar
     7     7     8   ar
     8     8     9    1
     9     9    10    1
    10    10    11   ar
    11    11    12   ar
    12    12    13   ar
    13    13    14   ar
    14    14    15    1
    15    15    16   ar
    16    16    17   ar
    17    17    18   ar
    18    18    19   ar
    19    19    20   ar
    20    15    20   ar
    21    14    21   ar
    22    10    21   ar
    23     8    22   ar
    24     4    22   ar
    25     1    23    1
    26     1    24    1
    27     5    25    1
    28     6    26    1
    29     7    27    1
    30    12    28    1
    31    13    29    1
    32    16    30    1
    33    17    31    1
    34    18    32    1
    35    19    33    1
    36    20    34    1
    37    22    35    1
@<TRIPOS>MOLECULE
mol54_1_28
 35 37 0 0 0
SMALL
USER_CHARGES
****
VDW energy = -47.47
@<TRIPOS>ATOM
   1 N1        3.5126    -9.1101    -5.4025  N.am    1  <O>11      -0.3253
   2 C1        2.8552    -9.8129    -4.4288  C.2     1  <O>11       0.2416
   3 O1        3.4454   -10.1461    -3.4119  O.2     1  <O>11      -0.2704
   4 C2        1.4620   -10.1610    -4.6040  C.ar    1  <O>11       0.0400
   5 C3        0.9118   -11.1883    -3.8335  C.ar    1  <O>11      -0.0494
   6 C4       -0.4317   -11.5388    -4.0063  C.ar    1  <O>11      -0.0576
   7 C5       -1.2203   -10.8628    -4.9408  C.ar    1  <O>11      -0.0192
   8 C6       -0.6575    -9.8313    -5.7005  C.ar    1  <O>11       0.1326
   9 O2       -1.4324    -9.1723    -6.6112  O.3     1  <O>11      -0.4236
  10 C7       -0.8483    -7.9669    -6.9258  C.ar    1  <O>11       0.3239
  11 N2        0.0258    -7.9093    -7.9575  N.ar    1  <O>11      -0.2030
  12 C8        0.5833    -6.7191    -8.2468  C.ar    1  <O>11       0.0350
  13 C9        0.3140    -5.5680    -7.5530  C.ar    1  <O>11      -0.0173
  14 C10      -0.5799    -5.7059    -6.5221  C.ar    1  <O>11       0.0778
  15 C11      -0.9265    -4.5671    -5.7370  C.ar    1  <O>11       0.0006
  16 C12      -0.2504    -3.3482    -5.9192  C.ar    1  <O>11      -0.0526
  17 C13      -0.5842    -2.2354    -5.1388  C.ar    1  <O>11      -0.0611
  18 C14      -1.5912    -2.3260    -4.1751  C.ar    1  <O>11      -0.0617
  19 C15      -2.2674    -3.5389    -3.9986  C.ar    1  <O>11      -0.0611
  20 C16      -1.9444    -4.6534    -4.7737  C.ar    1  <O>11      -0.0526
  21 N3       -1.1648    -6.8738    -6.1939  N.ar    1  <O>11      -0.1946
  22 C17       0.6812    -9.4735    -5.5343  C.ar    1  <O>11      -0.0071
  23 H1        3.0200    -8.8319    -6.2513  H       1  <O>11       0.1453
  24 H2        4.4949    -8.8646    -5.2793  H       1  <O>11       0.1453
  25 H3        1.4929   -11.6857    -3.1408  H       1  <O>11       0.0625
  26 H4       -0.8415   -12.2992    -3.4417  H       1  <O>11       0.0619
  27 H5       -2.2108   -11.1223    -5.0698  H       1  <O>11       0.0654
  28 H6        1.2495    -6.6704    -9.0334  H       1  <O>11       0.0832
  29 H7        0.7518    -4.6638    -7.7892  H       1  <O>11       0.0654
  30 H8        0.4939    -3.2738    -6.6303  H       1  <O>11       0.0624
  31 H9       -0.0838    -1.3434    -5.2761  H       1  <O>11       0.0618
  32 H10      -1.8345    -1.5058    -3.5981  H       1  <O>11       0.0618
  33 H11      -3.0124    -3.6096    -3.2879  H       1  <O>11       0.0618
  34 H12      -2.4537    -5.5408    -4.6391  H       1  <O>11       0.0624
  35 H13       1.0895    -8.7083    -6.0937  H       1  <O>11       0.0662
@<TRIPOS>BOND
     1     1     2   am
     2     2     3    2
     3     2     4    1
     4     4     5   ar
     5     5     6   ar
     6     6     7   ar
     7     7     8   ar
     8     8     9    1
     9     9    10    1
    10    10    11   ar
    11    11    12   ar
    12    12    13   ar
    13    13    14   ar
    14    14    15    1
    15    15    16   ar
    16    16    17   ar
    17    17    18   ar
    18    18    19   ar
    19    19    20   ar
    20    15    20   ar
    21    14    21   ar
    22    10    21   ar
    23     8    22   ar
    24     4    22   ar
    25     1    23    1
    26     1    24    1
    27     5    25    1
    28     6    26    1
    29     7    27    1
    30    12    28    1
    31    13    29    1
    32    16    30    1
    33    17    31    1
    34    18    32    1
    35    19    33    1
    36    20    34    1
    37    22    35    1
@<TRIPOS>MOLECULE
mol54_1_29
 35 37 0 0 0
SMALL
USER_CHARGES
****
VDW energy = -47.32
@<TRIPOS>ATOM
   1 N1        3.5126    -9.1101    -5.4025  N.am    1  <O>11      -0.3253
   2 C1        2.8552    -9.8129    -4.4288  C.2     1  <O>11       0.2416
   3 O1        3.4454   -10.1461    -3.4119  O.2     1  <O>11      -0.2704
   4 C2        1.4620   -10.1610    -4.6040  C.ar    1  <O>11       0.0400
   5 C3        0.9118   -11.1883    -3.8335  C.ar    1  <O>11      -0.0494
   6 C4       -0.4317   -11.5388    -4.0063  C.ar    1  <O>11      -0.0576
   7 C5       -1.2203   -10.8628    -4.9408  C.ar    1  <O>11      -0.0192
   8 C6       -0.6575    -9.8313    -5.7005  C.ar    1  <O>11       0.1326
   9 O2       -1.4324    -9.1723    -6.6112  O.3     1  <O>11      -0.4236
  10 C7       -0.8483    -7.9669    -6.9258  C.ar    1  <O>11       0.3239
  11 N2       -1.1642    -6.8726    -6.1947  N.ar    1  <O>11      -0.2030
  12 C8       -0.5792    -5.7053    -6.5207  C.ar    1  <O>11       0.0350
  13 C9        0.3145    -5.5677    -7.5508  C.ar    1  <O>11      -0.0173
  14 C10       0.5835    -6.7194    -8.2452  C.ar    1  <O>11       0.0778
  15 C11       1.4999    -6.6824    -9.3372  C.ar    1  <O>11       0.0006
  16 C12       2.0095    -5.4545    -9.7935  C.ar    1  <O>11      -0.0526
  17 C13       2.8992    -5.4200   -10.8733  C.ar    1  <O>11      -0.0611
  18 C14       3.2888    -6.6036   -11.5045  C.ar    1  <O>11      -0.0617
  19 C15       2.7847    -7.8262   -11.0453  C.ar    1  <O>11      -0.0611
  20 C16       1.8998    -7.8717    -9.9675  C.ar    1  <O>11      -0.0526
  21 N3        0.0252    -7.9108    -7.9576  N.ar    1  <O>11      -0.1946
  22 C17       0.6812    -9.4735    -5.5343  C.ar    1  <O>11      -0.0071
  23 H1        3.0200    -8.8319    -6.2513  H       1  <O>11       0.1453
  24 H2        4.4949    -8.8646    -5.2793  H       1  <O>11       0.1453
  25 H3        1.4929   -11.6857    -3.1408  H       1  <O>11       0.0625
  26 H4       -0.8415   -12.2992    -3.4417  H       1  <O>11       0.0619
  27 H5       -2.2108   -11.1223    -5.0698  H       1  <O>11       0.0654
  28 H6       -0.8164    -4.8685    -5.9652  H       1  <O>11       0.0832
  29 H7        0.7530    -4.6637    -7.7865  H       1  <O>11       0.0654
  30 H8        1.7269    -4.5761    -9.3311  H       1  <O>11       0.0624
  31 H9        3.2693    -4.5156   -11.2048  H       1  <O>11       0.0618
  32 H10       3.9425    -6.5769   -12.3025  H       1  <O>11       0.0618
  33 H11       3.0707    -8.7028   -11.5088  H       1  <O>11       0.0618
  34 H12       1.5392    -8.7791    -9.6337  H       1  <O>11       0.0624
  35 H13       1.0895    -8.7083    -6.0937  H       1  <O>11       0.0662
@<TRIPOS>BOND
     1     1     2   am
     2     2     3    2
     3     2     4    1
     4     4     5   ar
     5     5     6   ar
     6     6     7   ar
     7     7     8   ar
     8     8     9    1
     9     9    10    1
    10    10    11   ar
    11    11    12   ar
    12    12    13   ar
    13    13    14   ar
    14    14    15    1
    15    15    16   ar
    16    16    17   ar
    17    17    18   ar
    18    18    19   ar
    19    19    20   ar
    20    15    20   ar
    21    14    21   ar
    22    10    21   ar
    23     8    22   ar
    24     4    22   ar
    25     1    23    1
    26     1    24    1
    27     5    25    1
    28     6    26    1
    29     7    27    1
    30    12    28    1
    31    13    29    1
    32    16    30    1
    33    17    31    1
    34    18    32    1
    35    19    33    1
    36    20    34    1
    37    22    35    1
@<TRIPOS>MOLECULE
mol54_1_30
 35 37 0 0 0
SMALL
USER_CHARGES
****
VDW energy = -45.91
@<TRIPOS>ATOM
   1 N1        3.5126    -9.1101    -5.4025  N.am    1  <O>11      -0.3253
   2 C1        2.8552    -9.8129    -4.4288  C.2     1  <O>11       0.2416
   3 O1        3.4454   -10.1461    -3.4119  O.2     1  <O>11      -0.2704
   4 C2        1.4620   -10.1610    -4.6040  C.ar    1  <O>11       0.0400
   5 C3        0.9118   -11.1883    -3.8335  C.ar    1  <O>11      -0.0494
   6 C4       -0.4317   -11.5388    -4.0063  C.ar    1  <O>11      -0.0576
   7 C5       -1.2203   -10.8628    -4.9408  C.ar    1  <O>11      -0.0192
   8 C6       -0.6575    -9.8313    -5.7005  C.ar    1  <O>11       0.1326
   9 O2       -1.4324    -9.1723    -6.6112  O.3     1  <O>11      -0.4236
  10 C7       -0.8483    -7.9669    -6.9258  C.ar    1  <O>11       0.3239
  11 N2       -0.6391    -7.0611    -5.9421  N.ar    1  <O>11      -0.2030
  12 C8       -0.0654    -5.8900    -6.2741  C.ar    1  <O>11       0.0350
  13 C9        0.3150    -5.5680    -7.5510  C.ar    1  <O>11      -0.0173
  14 C10       0.0703    -6.5351    -8.4921  C.ar    1  <O>11       0.0778
  15 C11       0.4279    -6.2973    -9.8519  C.ar    1  <O>11       0.0006
  16 C12       0.8892    -5.0314   -10.2524  C.ar    1  <O>11      -0.0526
  17 C13       1.2279    -4.7972   -11.5900  C.ar    1  <O>11      -0.0611
  18 C14       1.1121    -5.8181   -12.5363  C.ar    1  <O>11      -0.0617
  19 C15       0.6579    -7.0799   -12.1348  C.ar    1  <O>11      -0.0611
  20 C16       0.3208    -7.3246   -10.8031  C.ar    1  <O>11      -0.0526
  21 N3       -0.5001    -7.7221    -8.2101  N.ar    1  <O>11      -0.1946
  22 C17       0.6812    -9.4735    -5.5343  C.ar    1  <O>11      -0.0071
  23 H1        3.0200    -8.8319    -6.2513  H       1  <O>11       0.1453
  24 H2        4.4949    -8.8646    -5.2793  H       1  <O>11       0.1453
  25 H3        1.4929   -11.6857    -3.1408  H       1  <O>11       0.0625
  26 H4       -0.8415   -12.2992    -3.4417  H       1  <O>11       0.0619
  27 H5       -2.2108   -11.1223    -5.0698  H       1  <O>11       0.0654
  28 H6        0.0970    -5.1968    -5.5270  H       1  <O>11       0.0832
  29 H7        0.7535    -4.6641    -7.7870  H       1  <O>11       0.0654
  30 H8        0.9783    -4.2727    -9.5584  H       1  <O>11       0.0624
  31 H9        1.5649    -3.8655   -11.8787  H       1  <O>11       0.0618
  32 H10       1.3592    -5.6436   -13.5229  H       1  <O>11       0.0618
  33 H11       0.5716    -7.8369   -12.8309  H       1  <O>11       0.0618
  34 H12      -0.0073    -8.2604   -10.5173  H       1  <O>11       0.0624
  35 H13       1.0895    -8.7083    -6.0937  H       1  <O>11       0.0662
@<TRIPOS>BOND
     1     1     2   am
     2     2     3    2
     3     2     4    1
     4     4     5   ar
     5     5     6   ar
     6     6     7   ar
     7     7     8   ar
     8     8     9    1
     9     9    10    1
    10    10    11   ar
    11    11    12   ar
    12    12    13   ar
    13    13    14   ar
    14    14    15    1
    15    15    16   ar
    16    16    17   ar
    17    17    18   ar
    18    18    19   ar
    19    19    20   ar
    20    15    20   ar
    21    14    21   ar
    22    10    21   ar
    23     8    22   ar
    24     4    22   ar
    25     1    23    1
    26     1    24    1
    27     5    25    1
    28     6    26    1
    29     7    27    1
    30    12    28    1
    31    13    29    1
    32    16    30    1
    33    17    31    1
    34    18    32    1
    35    19    33    1
    36    20    34    1
    37    22    35    1
