@<TRIPOS>MOLECULE
mol59_1_1
 34 36 0 0 0
SMALL
USER_CHARGES
****
VDW energy = -63.59
@<TRIPOS>ATOM
   1 N1        4.8577    -8.6243    -5.5271  N.2     1  <O>11      -0.2466
   2 S1        3.2917    -9.0153    -5.7244  S.3     1  <O>11       0.0680
   3 O1        2.7770    -9.8320    -4.4390  O.3     1  <O>11      -0.4186
   4 C1        3.5160   -10.9720    -4.2970  C.ar    1  <O>11       0.1393
   5 C2        4.6802   -10.9422    -3.5258  C.ar    1  <O>11      -0.0184
   6 C3        5.4479   -12.1032    -3.3863  C.ar    1  <O>11      -0.0580
   7 C4        5.0517   -13.2881    -4.0118  C.ar    1  <O>11      -0.0580
   8 C5        3.8798   -13.3052    -4.7757  C.ar    1  <O>11      -0.0380
   9 C6        3.4642   -14.5592    -5.4337  C.3     1  <O>11       0.0172
  10 C7        4.0611   -14.6281    -6.7930  C.ar    1  <O>11       0.0736
  11 N2        4.7354   -13.5195    -7.3140  N.ar    1  <O>11      -0.1750
  12 N3        5.1934   -13.5282    -8.5876  N.ar    1  <O>11      -0.2425
  13 C8        5.0009   -14.6318    -9.3489  C.ar    1  <O>11       0.2725
  14 O2        5.4137   -14.5431   -10.6927  O.2     1  <O>11      -0.2658
  15 C9        4.4273   -15.8187    -8.8703  C.ar    1  <O>11       0.0496
  16 C10       4.2771   -16.9927    -9.6455  C.ar    1  <O>11      -0.0487
  17 C11       3.6667   -18.1310    -9.1159  C.ar    1  <O>11      -0.0610
  18 C12       3.1908   -18.1178    -7.8099  C.ar    1  <O>11      -0.0611
  19 C13       3.3235   -16.9655    -7.0318  C.ar    1  <O>11      -0.0521
  20 C14       3.9463   -15.8062    -7.5488  C.ar    1  <O>11       0.0106
  21 C15       3.1062   -12.1523    -4.9193  C.ar    1  <O>11      -0.0149
  22 H1        5.5553    -9.3586    -5.4064  H       1  <O>11       0.1976
  23 H2        2.5716    -7.9056    -5.8617  H       1  <O>11       0.1591
  24 H3        2.3772   -14.5851    -5.5119  H       1  <O>11       0.0377
  25 H4        3.8051   -15.4093    -4.8425  H       1  <O>11       0.0377
  26 H5        5.6720   -12.7232    -8.9646  H       1  <O>11       0.1921
  27 H6        4.9725   -10.0682    -3.0613  H       1  <O>11       0.0654
  28 H7        6.3101   -12.0845    -2.8193  H       1  <O>11       0.0619
  29 H8        5.6191   -14.1442    -3.9110  H       1  <O>11       0.0620
  30 H9        4.6240   -17.0077   -10.6173  H       1  <O>11       0.0625
  31 H10       3.5690   -18.9810    -9.6931  H       1  <O>11       0.0618
  32 H11       2.7400   -18.9582    -7.4157  H       1  <O>11       0.0618
  33 H12       2.9617   -16.9603    -6.0654  H       1  <O>11       0.0624
  34 H13       2.2400   -12.1723    -5.4799  H       1  <O>11       0.0657
@<TRIPOS>BOND
     1     1     2    2
     2     2     3    1
     3     3     4    1
     4     4     5   ar
     5     5     6   ar
     6     6     7   ar
     7     7     8   ar
     8     8     9    1
     9     9    10    1
    10    10    11   ar
    11    11    12   ar
    12    12    13   ar
    13    13    14    2
    14    13    15   ar
    15    15    16   ar
    16    16    17   ar
    17    17    18   ar
    18    18    19   ar
    19    19    20   ar
    20    10    20   ar
    21    15    20   ar
    22     8    21   ar
    23     4    21   ar
    24     1    22    1
    25     2    23    1
    26     9    24    1
    27     9    25    1
    28    12    26    1
    29     5    27    1
    30     6    28    1
    31     7    29    1
    32    16    30    1
    33    17    31    1
    34    18    32    1
    35    19    33    1
    36    21    34    1
@<TRIPOS>MOLECULE
mol59_1_2
 34 36 0 0 0
SMALL
USER_CHARGES
****
VDW energy = -63.35
@<TRIPOS>ATOM
   1 N1        4.8577    -8.6243    -5.5271  N.2     1  <O>11      -0.2466
   2 S1        3.2917    -9.0153    -5.7244  S.3     1  <O>11       0.0680
   3 O1        2.7770    -9.8320    -4.4390  O.3     1  <O>11      -0.4186
   4 C1        3.5160   -10.9720    -4.2970  C.ar    1  <O>11       0.1393
   5 C2        3.0931   -12.1454    -4.9258  C.ar    1  <O>11      -0.0184
   6 C3        3.8389   -13.3191    -4.7744  C.ar    1  <O>11      -0.0580
   7 C4        5.0028   -13.3185    -4.0014  C.ar    1  <O>11      -0.0580
   8 C5        5.4182   -12.1344    -3.3829  C.ar    1  <O>11      -0.0380
   9 C6        6.6489   -12.1378    -2.5683  C.3     1  <O>11       0.0172
  10 C7        6.3107   -12.4680    -1.1593  C.ar    1  <O>11       0.0736
  11 N2        4.9715   -12.5509    -0.7660  N.ar    1  <O>11      -0.1750
  12 N3        4.6462   -12.7468     0.5331  N.ar    1  <O>11      -0.2425
  13 C8        5.6370   -12.8746     1.4478  C.ar    1  <O>11       0.2725
  14 O2        5.2346   -12.9794     2.7935  O.2     1  <O>11      -0.2658
  15 C9        7.0004   -12.9062     1.1210  C.ar    1  <O>11       0.0496
  16 C10       8.0357   -13.0974     2.0662  C.ar    1  <O>11      -0.0487
  17 C11       9.3762   -13.0855     1.6769  C.ar    1  <O>11      -0.0610
  18 C12       9.7084   -12.8772     0.3433  C.ar    1  <O>11      -0.0611
  19 C13       8.7004   -12.6792    -0.6030  C.ar    1  <O>11      -0.0521
  20 C14       7.3371   -12.6963    -0.2283  C.ar    1  <O>11       0.0106
  21 C15       4.6818   -10.9578    -3.5294  C.ar    1  <O>11      -0.0149
  22 H1        5.5553    -9.3586    -5.4064  H       1  <O>11       0.1976
  23 H2        2.5716    -7.9056    -5.8617  H       1  <O>11       0.1591
  24 H3        7.1142   -11.1529    -2.6095  H       1  <O>11       0.0377
  25 H4        7.3418   -12.8823    -2.9609  H       1  <O>11       0.0377
  26 H5        3.6784   -12.7973     0.8160  H       1  <O>11       0.1921
  27 H6        2.2350   -12.1465    -5.4990  H       1  <O>11       0.0654
  28 H7        3.5283   -14.1887    -5.2354  H       1  <O>11       0.0619
  29 H8        5.5519   -14.1848    -3.8876  H       1  <O>11       0.0620
  30 H9        7.7960   -13.2480     3.0586  H       1  <O>11       0.0625
  31 H10      10.1193   -13.2311     2.3781  H       1  <O>11       0.0618
  32 H11      10.6986   -12.8688     0.0527  H       1  <O>11       0.0618
  33 H12       8.9544   -12.5181    -1.5901  H       1  <O>11       0.0624
  34 H13       4.9959   -10.0862    -3.0749  H       1  <O>11       0.0657
@<TRIPOS>BOND
     1     1     2    2
     2     2     3    1
     3     3     4    1
     4     4     5   ar
     5     5     6   ar
     6     6     7   ar
     7     7     8   ar
     8     8     9    1
     9     9    10    1
    10    10    11   ar
    11    11    12   ar
    12    12    13   ar
    13    13    14    2
    14    13    15   ar
    15    15    16   ar
    16    16    17   ar
    17    17    18   ar
    18    18    19   ar
    19    19    20   ar
    20    10    20   ar
    21    15    20   ar
    22     8    21   ar
    23     4    21   ar
    24     1    22    1
    25     2    23    1
    26     9    24    1
    27     9    25    1
    28    12    26    1
    29     5    27    1
    30     6    28    1
    31     7    29    1
    32    16    30    1
    33    17    31    1
    34    18    32    1
    35    19    33    1
    36    21    34    1
@<TRIPOS>MOLECULE
mol59_1_3
 34 36 0 0 0
SMALL
USER_CHARGES
****
VDW energy = -61.35
@<TRIPOS>ATOM
   1 N1        4.8577    -8.6243    -5.5271  N.2     1  <O>11      -0.2466
   2 S1        3.2917    -9.0153    -5.7244  S.3     1  <O>11       0.0680
   3 O1        2.7770    -9.8320    -4.4390  O.3     1  <O>11      -0.4186
   4 C1        3.5160   -10.9720    -4.2970  C.ar    1  <O>11       0.1393
   5 C2        3.5228   -11.9167    -5.3258  C.ar    1  <O>11      -0.0184
   6 C3        4.2679   -13.0918    -5.1816  C.ar    1  <O>11      -0.0580
   7 C4        5.0048   -13.3192    -4.0164  C.ar    1  <O>11      -0.0580
   8 C5        4.9941   -12.3612    -2.9969  C.ar    1  <O>11      -0.0380
   9 C6        5.7748   -12.6048    -1.7683  C.3     1  <O>11       0.0172
  10 C7        4.9284   -13.3162    -0.7751  C.ar    1  <O>11       0.0736
  11 N2        3.5643   -13.4953    -1.0244  N.ar    1  <O>11      -0.1750
  12 N3        2.7596   -14.0470    -0.0864  N.ar    1  <O>11      -0.2425
  13 C8        3.2960   -14.4361     1.0949  C.ar    1  <O>11       0.2725
  14 O2        2.3921   -14.9128     2.0643  O.2     1  <O>11      -0.2658
  15 C9        4.6677   -14.3857     1.3825  C.ar    1  <O>11       0.0496
  16 C10       5.2391   -14.8447     2.5927  C.ar    1  <O>11      -0.0487
  17 C11       6.6107   -14.7349     2.8276  C.ar    1  <O>11      -0.0610
  18 C12       7.4345   -14.1616     1.8658  C.ar    1  <O>11      -0.0611
  19 C13       6.8875   -13.6961     0.6680  C.ar    1  <O>11      -0.0521
  20 C14       5.5018   -13.8066     0.4094  C.ar    1  <O>11       0.0106
  21 C15       4.2552   -11.1849    -3.1322  C.ar    1  <O>11      -0.0149
  22 H1        5.5553    -9.3586    -5.4064  H       1  <O>11       0.1976
  23 H2        2.5716    -7.9056    -5.8617  H       1  <O>11       0.1591
  24 H3        6.1022   -11.6522    -1.3514  H       1  <O>11       0.0377
  25 H4        6.6466   -13.2142    -2.0072  H       1  <O>11       0.0377
  26 H5        1.7732   -14.1669    -0.2651  H       1  <O>11       0.1921
  27 H6        2.9810   -11.7487    -6.1879  H       1  <O>11       0.0654
  28 H7        4.2734   -13.7933    -5.9386  H       1  <O>11       0.0619
  29 H8        5.5526   -14.1870    -3.9087  H       1  <O>11       0.0620
  30 H9        4.6325   -15.2671     3.3128  H       1  <O>11       0.0625
  31 H10       7.0125   -15.0787     3.7138  H       1  <O>11       0.0618
  32 H11       8.4490   -14.0800     2.0365  H       1  <O>11       0.0618
  33 H12       7.5038   -13.2652    -0.0388  H       1  <O>11       0.0624
  34 H13       4.2553   -10.4796    -2.3788  H       1  <O>11       0.0657
@<TRIPOS>BOND
     1     1     2    2
     2     2     3    1
     3     3     4    1
     4     4     5   ar
     5     5     6   ar
     6     6     7   ar
     7     7     8   ar
     8     8     9    1
     9     9    10    1
    10    10    11   ar
    11    11    12   ar
    12    12    13   ar
    13    13    14    2
    14    13    15   ar
    15    15    16   ar
    16    16    17   ar
    17    17    18   ar
    18    18    19   ar
    19    19    20   ar
    20    10    20   ar
    21    15    20   ar
    22     8    21   ar
    23     4    21   ar
    24     1    22    1
    25     2    23    1
    26     9    24    1
    27     9    25    1
    28    12    26    1
    29     5    27    1
    30     6    28    1
    31     7    29    1
    32    16    30    1
    33    17    31    1
    34    18    32    1
    35    19    33    1
    36    21    34    1
@<TRIPOS>MOLECULE
mol59_1_4
 34 36 0 0 0
SMALL
USER_CHARGES
****
VDW energy = -61.13
@<TRIPOS>ATOM
   1 N1        4.8577    -8.6243    -5.5271  N.2     1  <O>11      -0.2466
   2 S1        3.2917    -9.0153    -5.7244  S.3     1  <O>11       0.0680
   3 O1        2.7770    -9.8320    -4.4390  O.3     1  <O>11      -0.4186
   4 C1        3.5160   -10.9720    -4.2970  C.ar    1  <O>11       0.1393
   5 C2        3.0931   -12.1454    -4.9258  C.ar    1  <O>11      -0.0184
   6 C3        3.8389   -13.3191    -4.7744  C.ar    1  <O>11      -0.0580
   7 C4        5.0028   -13.3185    -4.0014  C.ar    1  <O>11      -0.0580
   8 C5        5.4182   -12.1344    -3.3829  C.ar    1  <O>11      -0.0380
   9 C6        6.6489   -12.1378    -2.5683  C.3     1  <O>11       0.0172
  10 C7        7.8151   -11.8099    -3.4294  C.ar    1  <O>11       0.0736
  11 N2        8.2066   -10.4776    -3.5930  N.ar    1  <O>11      -0.1750
  12 N3        9.1987   -10.1524    -4.4542  N.ar    1  <O>11      -0.2425
  13 C8        9.8177   -11.1374    -5.1479  C.ar    1  <O>11       0.2725
  14 O2       10.7734   -10.7267    -6.0975  O.2     1  <O>11      -0.2658
  15 C9        9.5550   -12.5029    -4.9653  C.ar    1  <O>11       0.0496
  16 C10      10.2396   -13.5374    -5.6457  C.ar    1  <O>11      -0.0487
  17 C11       9.9053   -14.8771    -5.4406  C.ar    1  <O>11      -0.0610
  18 C12       8.8814   -15.2087    -4.5608  C.ar    1  <O>11      -0.0611
  19 C13       8.1893   -14.2008    -3.8857  C.ar    1  <O>11      -0.0521
  20 C14       8.5197   -12.8390    -4.0748  C.ar    1  <O>11       0.0106
  21 C15       4.6818   -10.9578    -3.5294  C.ar    1  <O>11      -0.0149
  22 H1        5.5553    -9.3586    -5.4064  H       1  <O>11       0.1976
  23 H2        2.5716    -7.9056    -5.8617  H       1  <O>11       0.1591
  24 H3        6.7890   -13.1244    -2.1264  H       1  <O>11       0.0377
  25 H4        6.5611   -11.3949    -1.7752  H       1  <O>11       0.0377
  26 H5        9.4736    -9.1887    -4.5775  H       1  <O>11       0.1921
  27 H6        2.2350   -12.1465    -5.4990  H       1  <O>11       0.0654
  28 H7        3.5283   -14.1887    -5.2354  H       1  <O>11       0.0619
  29 H8        5.5519   -14.1848    -3.8876  H       1  <O>11       0.0620
  30 H9       10.9977   -13.2979    -6.3036  H       1  <O>11       0.0625
  31 H10      10.4175   -15.6201    -5.9412  H       1  <O>11       0.0618
  32 H11       8.6328   -16.1984    -4.4067  H       1  <O>11       0.0618
  33 H12       7.4256   -14.4536    -3.2394  H       1  <O>11       0.0624
  34 H13       4.9959   -10.0862    -3.0749  H       1  <O>11       0.0657
@<TRIPOS>BOND
     1     1     2    2
     2     2     3    1
     3     3     4    1
     4     4     5   ar
     5     5     6   ar
     6     6     7   ar
     7     7     8   ar
     8     8     9    1
     9     9    10    1
    10    10    11   ar
    11    11    12   ar
    12    12    13   ar
    13    13    14    2
    14    13    15   ar
    15    15    16   ar
    16    16    17   ar
    17    17    18   ar
    18    18    19   ar
    19    19    20   ar
    20    10    20   ar
    21    15    20   ar
    22     8    21   ar
    23     4    21   ar
    24     1    22    1
    25     2    23    1
    26     9    24    1
    27     9    25    1
    28    12    26    1
    29     5    27    1
    30     6    28    1
    31     7    29    1
    32    16    30    1
    33    17    31    1
    34    18    32    1
    35    19    33    1
    36    21    34    1
@<TRIPOS>MOLECULE
mol59_1_5
 34 36 0 0 0
SMALL
USER_CHARGES
****
VDW energy = -61.07
@<TRIPOS>ATOM
   1 N1        4.8577    -8.6243    -5.5271  N.2     1  <O>11      -0.2466
   2 S1        3.2917    -9.0153    -5.7244  S.3     1  <O>11       0.0680
   3 O1        2.7770    -9.8320    -4.4390  O.3     1  <O>11      -0.4186
   4 C1        3.5160   -10.9720    -4.2970  C.ar    1  <O>11       0.1393
   5 C2        3.5228   -11.9167    -5.3258  C.ar    1  <O>11      -0.0184
   6 C3        4.2679   -13.0918    -5.1816  C.ar    1  <O>11      -0.0580
   7 C4        5.0048   -13.3192    -4.0164  C.ar    1  <O>11      -0.0580
   8 C5        4.9941   -12.3612    -2.9969  C.ar    1  <O>11      -0.0380
   9 C6        5.7748   -12.6048    -1.7683  C.3     1  <O>11       0.0172
  10 C7        7.1464   -12.0572    -1.9349  C.ar    1  <O>11       0.0736
  11 N2        7.5589   -11.5812    -3.1833  N.ar    1  <O>11      -0.1750
  12 N3        8.8356   -11.1768    -3.3784  N.ar    1  <O>11      -0.2425
  13 C8        9.7077   -11.2271    -2.3432  C.ar    1  <O>11       0.2725
  14 O2       11.0427   -10.8848    -2.6341  O.2     1  <O>11      -0.2658
  15 C9        9.3480   -11.5932    -1.0380  C.ar    1  <O>11       0.0496
  16 C10      10.2424   -11.5915     0.0583  C.ar    1  <O>11      -0.0487
  17 C11       9.8260   -11.9994     1.3268  C.ar    1  <O>11      -0.0610
  18 C12       8.5161   -12.4210     1.5236  C.ar    1  <O>11      -0.0611
  19 C13       7.6209   -12.4365     0.4517  C.ar    1  <O>11      -0.0521
  20 C14       8.0227   -12.0191    -0.8381  C.ar    1  <O>11       0.0106
  21 C15       4.2552   -11.1849    -3.1322  C.ar    1  <O>11      -0.0149
  22 H1        5.5553    -9.3586    -5.4064  H       1  <O>11       0.1976
  23 H2        2.5716    -7.9056    -5.8617  H       1  <O>11       0.1591
  24 H3        5.8315   -13.6771    -1.5808  H       1  <O>11       0.0377
  25 H4        5.2868   -12.1151    -0.9253  H       1  <O>11       0.0377
  26 H5        9.1336   -10.8420    -4.2831  H       1  <O>11       0.1921
  27 H6        2.9810   -11.7487    -6.1879  H       1  <O>11       0.0654
  28 H7        4.2734   -13.7933    -5.9386  H       1  <O>11       0.0619
  29 H8        5.5526   -14.1870    -3.9087  H       1  <O>11       0.0620
  30 H9       11.2175   -11.2840    -0.0820  H       1  <O>11       0.0625
  31 H10      10.4896   -11.9879     2.1171  H       1  <O>11       0.0618
  32 H11       8.2055   -12.7221     2.4605  H       1  <O>11       0.0618
  33 H12       6.6519   -12.7574     0.6033  H       1  <O>11       0.0624
  34 H13       4.2553   -10.4796    -2.3788  H       1  <O>11       0.0657
@<TRIPOS>BOND
     1     1     2    2
     2     2     3    1
     3     3     4    1
     4     4     5   ar
     5     5     6   ar
     6     6     7   ar
     7     7     8   ar
     8     8     9    1
     9     9    10    1
    10    10    11   ar
    11    11    12   ar
    12    12    13   ar
    13    13    14    2
    14    13    15   ar
    15    15    16   ar
    16    16    17   ar
    17    17    18   ar
    18    18    19   ar
    19    19    20   ar
    20    10    20   ar
    21    15    20   ar
    22     8    21   ar
    23     4    21   ar
    24     1    22    1
    25     2    23    1
    26     9    24    1
    27     9    25    1
    28    12    26    1
    29     5    27    1
    30     6    28    1
    31     7    29    1
    32    16    30    1
    33    17    31    1
    34    18    32    1
    35    19    33    1
    36    21    34    1
@<TRIPOS>MOLECULE
mol59_1_6
 34 36 0 0 0
SMALL
USER_CHARGES
****
VDW energy = -61.05
@<TRIPOS>ATOM
   1 N1        4.8577    -8.6243    -5.5271  N.2     1  <O>11      -0.2466
   2 S1        3.2917    -9.0153    -5.7244  S.3     1  <O>11       0.0680
   3 O1        2.7770    -9.8320    -4.4390  O.3     1  <O>11      -0.4186
   4 C1        3.5160   -10.9720    -4.2970  C.ar    1  <O>11       0.1393
   5 C2        3.0931   -12.1454    -4.9258  C.ar    1  <O>11      -0.0184
   6 C3        3.8389   -13.3191    -4.7744  C.ar    1  <O>11      -0.0580
   7 C4        5.0028   -13.3185    -4.0014  C.ar    1  <O>11      -0.0580
   8 C5        5.4182   -12.1344    -3.3829  C.ar    1  <O>11      -0.0380
   9 C6        6.6489   -12.1378    -2.5683  C.3     1  <O>11       0.0172
  10 C7        6.3107   -12.4680    -1.1593  C.ar    1  <O>11       0.0736
  11 N2        6.3080   -13.8014    -0.7383  N.ar    1  <O>11      -0.1750
  12 N3        5.9016   -14.1282     0.5106  N.ar    1  <O>11      -0.2425
  13 C8        5.5087   -13.1438     1.3539  C.ar    1  <O>11       0.2725
  14 O2        5.0064   -13.5557     2.6037  O.2     1  <O>11      -0.2658
  15 C9        5.5794   -11.7778     1.0443  C.ar    1  <O>11       0.0496
  16 C10       5.2246   -10.7441     1.9429  C.ar    1  <O>11      -0.0487
  17 C11       5.2879    -9.4037     1.5585  C.ar    1  <O>11      -0.0610
  18 C12       5.6989    -9.0704     0.2731  C.ar    1  <O>11      -0.0611
  19 C13       6.0460   -10.0774    -0.6303  C.ar    1  <O>11      -0.0521
  20 C14       5.9959   -11.4399    -0.2558  C.ar    1  <O>11       0.0106
  21 C15       4.6818   -10.9578    -3.5294  C.ar    1  <O>11      -0.0149
  22 H1        5.5553    -9.3586    -5.4064  H       1  <O>11       0.1976
  23 H2        2.5716    -7.9056    -5.8617  H       1  <O>11       0.1591
  24 H3        7.1142   -11.1529    -2.6095  H       1  <O>11       0.0377
  25 H4        7.3418   -12.8823    -2.9609  H       1  <O>11       0.0377
  26 H5        5.8918   -15.0926     0.8094  H       1  <O>11       0.1921
  27 H6        2.2350   -12.1465    -5.4990  H       1  <O>11       0.0654
  28 H7        3.5283   -14.1887    -5.2354  H       1  <O>11       0.0619
  29 H8        5.5519   -14.1848    -3.8876  H       1  <O>11       0.0620
  30 H9        4.9142   -10.9850     2.8973  H       1  <O>11       0.0625
  31 H10       5.0300    -8.6614     2.2275  H       1  <O>11       0.0618
  32 H11       5.7475    -8.0802    -0.0134  H       1  <O>11       0.0618
  33 H12       6.3435    -9.8233    -1.5852  H       1  <O>11       0.0624
  34 H13       4.9959   -10.0862    -3.0749  H       1  <O>11       0.0657
@<TRIPOS>BOND
     1     1     2    2
     2     2     3    1
     3     3     4    1
     4     4     5   ar
     5     5     6   ar
     6     6     7   ar
     7     7     8   ar
     8     8     9    1
     9     9    10    1
    10    10    11   ar
    11    11    12   ar
    12    12    13   ar
    13    13    14    2
    14    13    15   ar
    15    15    16   ar
    16    16    17   ar
    17    17    18   ar
    18    18    19   ar
    19    19    20   ar
    20    10    20   ar
    21    15    20   ar
    22     8    21   ar
    23     4    21   ar
    24     1    22    1
    25     2    23    1
    26     9    24    1
    27     9    25    1
    28    12    26    1
    29     5    27    1
    30     6    28    1
    31     7    29    1
    32    16    30    1
    33    17    31    1
    34    18    32    1
    35    19    33    1
    36    21    34    1
@<TRIPOS>MOLECULE
mol59_1_7
 34 36 0 0 0
SMALL
USER_CHARGES
****
VDW energy = -60.76
@<TRIPOS>ATOM
   1 N1        4.8577    -8.6243    -5.5271  N.2     1  <O>11      -0.2466
   2 S1        3.2917    -9.0153    -5.7244  S.3     1  <O>11       0.0680
   3 O1        2.7770    -9.8320    -4.4390  O.3     1  <O>11      -0.4186
   4 C1        3.5160   -10.9720    -4.2970  C.ar    1  <O>11       0.1393
   5 C2        4.6802   -10.9422    -3.5258  C.ar    1  <O>11      -0.0184
   6 C3        5.4479   -12.1032    -3.3863  C.ar    1  <O>11      -0.0580
   7 C4        5.0517   -13.2881    -4.0118  C.ar    1  <O>11      -0.0580
   8 C5        3.8798   -13.3052    -4.7757  C.ar    1  <O>11      -0.0380
   9 C6        3.4642   -14.5592    -5.4337  C.3     1  <O>11       0.0172
  10 C7        4.5246   -14.9998    -6.3772  C.ar    1  <O>11       0.0736
  11 N2        5.6109   -14.1610    -6.6443  N.ar    1  <O>11      -0.1750
  12 N3        6.5298   -14.5007    -7.5781  N.ar    1  <O>11      -0.2425
  13 C8        6.3903   -15.6723    -8.2434  C.ar    1  <O>11       0.2725
  14 O2        7.3231   -15.9231    -9.2686  O.2     1  <O>11      -0.2658
  15 C9        5.3896   -16.6139    -7.9626  C.ar    1  <O>11       0.0496
  16 C10       5.2749   -17.8640    -8.6152  C.ar    1  <O>11      -0.0487
  17 C11       4.2335   -18.7419    -8.3096  C.ar    1  <O>11      -0.0610
  18 C12       3.2868   -18.3882    -7.3551  C.ar    1  <O>11      -0.0611
  19 C13       3.3795   -17.1552    -6.7057  C.ar    1  <O>11      -0.0521
  20 C14       4.4320   -16.2569    -6.9965  C.ar    1  <O>11       0.0106
  21 C15       3.1062   -12.1523    -4.9193  C.ar    1  <O>11      -0.0149
  22 H1        5.5553    -9.3586    -5.4064  H       1  <O>11       0.1976
  23 H2        2.5716    -7.9056    -5.8617  H       1  <O>11       0.1591
  24 H3        2.5366   -14.3917    -5.9812  H       1  <O>11       0.0377
  25 H4        3.3051   -15.3295    -4.6788  H       1  <O>11       0.0377
  26 H5        7.3085   -13.8892    -7.7757  H       1  <O>11       0.1921
  27 H6        4.9725   -10.0682    -3.0613  H       1  <O>11       0.0654
  28 H7        6.3101   -12.0845    -2.8193  H       1  <O>11       0.0619
  29 H8        5.6191   -14.1442    -3.9110  H       1  <O>11       0.0620
  30 H9        5.9717   -18.1308    -9.3281  H       1  <O>11       0.0625
  31 H10       4.1666   -19.6521    -8.7914  H       1  <O>11       0.0618
  32 H11       2.5165   -19.0358    -7.1267  H       1  <O>11       0.0618
  33 H12       2.6693   -16.8959    -6.0033  H       1  <O>11       0.0624
  34 H13       2.2400   -12.1723    -5.4799  H       1  <O>11       0.0657
@<TRIPOS>BOND
     1     1     2    2
     2     2     3    1
     3     3     4    1
     4     4     5   ar
     5     5     6   ar
     6     6     7   ar
     7     7     8   ar
     8     8     9    1
     9     9    10    1
    10    10    11   ar
    11    11    12   ar
    12    12    13   ar
    13    13    14    2
    14    13    15   ar
    15    15    16   ar
    16    16    17   ar
    17    17    18   ar
    18    18    19   ar
    19    19    20   ar
    20    10    20   ar
    21    15    20   ar
    22     8    21   ar
    23     4    21   ar
    24     1    22    1
    25     2    23    1
    26     9    24    1
    27     9    25    1
    28    12    26    1
    29     5    27    1
    30     6    28    1
    31     7    29    1
    32    16    30    1
    33    17    31    1
    34    18    32    1
    35    19    33    1
    36    21    34    1
@<TRIPOS>MOLECULE
mol59_1_8
 34 36 0 0 0
SMALL
USER_CHARGES
****
VDW energy = -60.66
@<TRIPOS>ATOM
   1 N1        4.8577    -8.6243    -5.5271  N.2     1  <O>11      -0.2466
   2 S1        3.2917    -9.0153    -5.7244  S.3     1  <O>11       0.0680
   3 O1        2.7770    -9.8320    -4.4390  O.3     1  <O>11      -0.4186
   4 C1        1.7460    -9.1554    -3.8516  C.ar    1  <O>11       0.1393
   5 C2        1.9600    -7.8603    -3.3743  C.ar    1  <O>11      -0.0184
   6 C3        0.9116    -7.1666    -2.7609  C.ar    1  <O>11      -0.0580
   7 C4       -0.3447    -7.7635    -2.6286  C.ar    1  <O>11      -0.0580
   8 C5       -0.5468    -9.0587    -3.1173  C.ar    1  <O>11      -0.0380
   9 C6       -1.8757    -9.6851    -2.9766  C.3     1  <O>11       0.0172
  10 C7       -1.9429   -10.4232    -1.6884  C.ar    1  <O>11       0.0736
  11 N2       -0.7890   -10.5779    -0.9140  N.ar    1  <O>11      -0.1750
  12 N3       -0.8091   -11.3349     0.2078  N.ar    1  <O>11      -0.2425
  13 C8       -1.9670   -11.9319     0.5786  C.ar    1  <O>11       0.2725
  14 O2       -1.8999   -12.7829     1.6990  O.2     1  <O>11      -0.2658
  15 C9       -3.1883   -11.7435    -0.0845  C.ar    1  <O>11       0.0496
  16 C10      -4.4116   -12.3189     0.3332  C.ar    1  <O>11      -0.0487
  17 C11      -5.5865   -12.1166    -0.3929  C.ar    1  <O>11      -0.0610
  18 C12      -5.5624   -11.3444    -1.5485  C.ar    1  <O>11      -0.0611
  19 C13      -4.3628   -10.7744    -1.9805  C.ar    1  <O>11      -0.0521
  20 C14      -3.1647   -10.9618    -1.2534  C.ar    1  <O>11       0.0106
  21 C15       0.4927    -9.7583    -3.7324  C.ar    1  <O>11      -0.0149
  22 H1        5.5553    -9.3586    -5.4064  H       1  <O>11       0.1976
  23 H2        2.5716    -7.9056    -5.8617  H       1  <O>11       0.1591
  24 H3       -2.0396   -10.3781    -3.8020  H       1  <O>11       0.0377
  25 H4       -2.6446    -8.9125    -2.9945  H       1  <O>11       0.0377
  26 H5        0.0276   -11.4526     0.7605  H       1  <O>11       0.1921
  27 H6        2.8869    -7.4175    -3.4737  H       1  <O>11       0.0654
  28 H7        1.0667    -6.2104    -2.4047  H       1  <O>11       0.0619
  29 H8       -1.1178    -7.2529    -2.1739  H       1  <O>11       0.0620
  30 H9       -4.4355   -12.8969     1.1878  H       1  <O>11       0.0625
  31 H10      -6.4716   -12.5395    -0.0722  H       1  <O>11       0.0618
  32 H11      -6.4298   -11.1926    -2.0866  H       1  <O>11       0.0618
  33 H12      -4.3506   -10.2082    -2.8432  H       1  <O>11       0.0624
  34 H13       0.3362   -10.7115    -4.0955  H       1  <O>11       0.0657
@<TRIPOS>BOND
     1     1     2    2
     2     2     3    1
     3     3     4    1
     4     4     5   ar
     5     5     6   ar
     6     6     7   ar
     7     7     8   ar
     8     8     9    1
     9     9    10    1
    10    10    11   ar
    11    11    12   ar
    12    12    13   ar
    13    13    14    2
    14    13    15   ar
    15    15    16   ar
    16    16    17   ar
    17    17    18   ar
    18    18    19   ar
    19    19    20   ar
    20    10    20   ar
    21    15    20   ar
    22     8    21   ar
    23     4    21   ar
    24     1    22    1
    25     2    23    1
    26     9    24    1
    27     9    25    1
    28    12    26    1
    29     5    27    1
    30     6    28    1
    31     7    29    1
    32    16    30    1
    33    17    31    1
    34    18    32    1
    35    19    33    1
    36    21    34    1
@<TRIPOS>MOLECULE
mol59_1_9
 34 36 0 0 0
SMALL
USER_CHARGES
****
VDW energy = -60.63
@<TRIPOS>ATOM
   1 N1        4.8577    -8.6243    -5.5271  N.2     1  <O>11      -0.2466
   2 S1        3.2917    -9.0153    -5.7244  S.3     1  <O>11       0.0680
   3 O1        2.7770    -9.8320    -4.4390  O.3     1  <O>11      -0.4186
   4 C1        3.5160   -10.9720    -4.2970  C.ar    1  <O>11       0.1393
   5 C2        3.0931   -12.1454    -4.9258  C.ar    1  <O>11      -0.0184
   6 C3        3.8389   -13.3191    -4.7744  C.ar    1  <O>11      -0.0580
   7 C4        5.0028   -13.3185    -4.0014  C.ar    1  <O>11      -0.0580
   8 C5        5.4182   -12.1344    -3.3829  C.ar    1  <O>11      -0.0380
   9 C6        6.6489   -12.1378    -2.5683  C.3     1  <O>11       0.0172
  10 C7        6.5010   -13.1048    -1.4494  C.ar    1  <O>11       0.0736
  11 N2        5.2631   -13.7098    -1.2115  N.ar    1  <O>11      -0.1750
  12 N3        5.0838   -14.5110    -0.1355  N.ar    1  <O>11      -0.2425
  13 C8        6.1248   -14.7301     0.7030  C.ar    1  <O>11       0.2725
  14 O2        5.8492   -15.4931     1.8544  O.2     1  <O>11      -0.2658
  15 C9        7.4215   -14.2452     0.4791  C.ar    1  <O>11       0.0496
  16 C10       8.5246   -14.5196     1.3216  C.ar    1  <O>11      -0.0487
  17 C11       9.7835   -13.9774     1.0578  C.ar    1  <O>11      -0.0610
  18 C12       9.9640   -13.1491    -0.0439  C.ar    1  <O>11      -0.0611
  19 C13       8.8852   -12.8608    -0.8828  C.ar    1  <O>11      -0.0521
  20 C14       7.6049   -13.4077    -0.6358  C.ar    1  <O>11       0.0106
  21 C15       4.6818   -10.9578    -3.5294  C.ar    1  <O>11      -0.0149
  22 H1        5.5553    -9.3586    -5.4064  H       1  <O>11       0.1976
  23 H2        2.5716    -7.9056    -5.8617  H       1  <O>11       0.1591
  24 H3        6.8207   -11.1393    -2.1660  H       1  <O>11       0.0377
  25 H4        7.4954   -12.4278    -3.1911  H       1  <O>11       0.0377
  26 H5        4.1866   -14.9396     0.0393  H       1  <O>11       0.1921
  27 H6        2.2350   -12.1465    -5.4990  H       1  <O>11       0.0654
  28 H7        3.5283   -14.1887    -5.2354  H       1  <O>11       0.0619
  29 H8        5.5519   -14.1848    -3.8876  H       1  <O>11       0.0620
  30 H9        8.3963   -15.1301     2.1437  H       1  <O>11       0.0625
  31 H10      10.5790   -14.1911     1.6796  H       1  <O>11       0.0618
  32 H11      10.8938   -12.7476    -0.2417  H       1  <O>11       0.0618
  33 H12       9.0245   -12.2395    -1.6949  H       1  <O>11       0.0624
  34 H13       4.9959   -10.0862    -3.0749  H       1  <O>11       0.0657
@<TRIPOS>BOND
     1     1     2    2
     2     2     3    1
     3     3     4    1
     4     4     5   ar
     5     5     6   ar
     6     6     7   ar
     7     7     8   ar
     8     8     9    1
     9     9    10    1
    10    10    11   ar
    11    11    12   ar
    12    12    13   ar
    13    13    14    2
    14    13    15   ar
    15    15    16   ar
    16    16    17   ar
    17    17    18   ar
    18    18    19   ar
    19    19    20   ar
    20    10    20   ar
    21    15    20   ar
    22     8    21   ar
    23     4    21   ar
    24     1    22    1
    25     2    23    1
    26     9    24    1
    27     9    25    1
    28    12    26    1
    29     5    27    1
    30     6    28    1
    31     7    29    1
    32    16    30    1
    33    17    31    1
    34    18    32    1
    35    19    33    1
    36    21    34    1
@<TRIPOS>MOLECULE
mol59_1_10
 34 36 0 0 0
SMALL
USER_CHARGES
****
VDW energy = -58.62
@<TRIPOS>ATOM
   1 N1        4.8577    -8.6243    -5.5271  N.2     1  <O>11      -0.2466
   2 S1        3.2917    -9.0153    -5.7244  S.3     1  <O>11       0.0680
   3 O1        2.7770    -9.8320    -4.4390  O.3     1  <O>11      -0.4186
   4 C1        3.5160   -10.9720    -4.2970  C.ar    1  <O>11       0.1393
   5 C2        3.5228   -11.9167    -5.3258  C.ar    1  <O>11      -0.0184
   6 C3        4.2679   -13.0918    -5.1816  C.ar    1  <O>11      -0.0580
   7 C4        5.0048   -13.3192    -4.0164  C.ar    1  <O>11      -0.0580
   8 C5        4.9941   -12.3612    -2.9969  C.ar    1  <O>11      -0.0380
   9 C6        5.7748   -12.6048    -1.7683  C.3     1  <O>11       0.0172
  10 C7        5.2912   -13.8468    -1.1108  C.ar    1  <O>11       0.0736
  11 N2        4.1412   -14.4838    -1.5869  N.ar    1  <O>11      -0.1750
  12 N3        3.6281   -15.5545    -0.9371  N.ar    1  <O>11      -0.2425
  13 C8        4.2515   -16.0101     0.1757  C.ar    1  <O>11       0.2725
  14 O2        3.6160   -17.0646     0.8600  O.2     1  <O>11      -0.2658
  15 C9        5.4626   -15.4928     0.6579  C.ar    1  <O>11       0.0496
  16 C10       6.1467   -16.0032     1.7863  C.ar    1  <O>11      -0.0487
  17 C11       7.3335   -15.4192     2.2327  C.ar    1  <O>11      -0.0610
  18 C12       7.8551   -14.3153     1.5681  C.ar    1  <O>11      -0.0611
  19 C13       7.1899   -13.7930     0.4567  C.ar    1  <O>11      -0.0521
  20 C14       5.9912   -14.3764    -0.0145  C.ar    1  <O>11       0.0106
  21 C15       4.2552   -11.1849    -3.1322  C.ar    1  <O>11      -0.0149
  22 H1        5.5553    -9.3586    -5.4064  H       1  <O>11       0.1976
  23 H2        2.5716    -7.9056    -5.8617  H       1  <O>11       0.1591
  24 H3        5.6532   -11.7619    -1.0878  H       1  <O>11       0.0377
  25 H4        6.8289   -12.7145    -2.0240  H       1  <O>11       0.0377
  26 H5        2.7924   -16.0073    -1.2776  H       1  <O>11       0.1921
  27 H6        2.9810   -11.7487    -6.1879  H       1  <O>11       0.0654
  28 H7        4.2734   -13.7933    -5.9386  H       1  <O>11       0.0619
  29 H8        5.5526   -14.1870    -3.9087  H       1  <O>11       0.0620
  30 H9        5.7624   -16.8196     2.2870  H       1  <O>11       0.0625
  31 H10       7.8228   -15.8065     3.0547  H       1  <O>11       0.0618
  32 H11       8.7328   -13.8823     1.8954  H       1  <O>11       0.0618
  33 H12       7.5789   -12.9690    -0.0278  H       1  <O>11       0.0624
  34 H13       4.2553   -10.4796    -2.3788  H       1  <O>11       0.0657
@<TRIPOS>BOND
     1     1     2    2
     2     2     3    1
     3     3     4    1
     4     4     5   ar
     5     5     6   ar
     6     6     7   ar
     7     7     8   ar
     8     8     9    1
     9     9    10    1
    10    10    11   ar
    11    11    12   ar
    12    12    13   ar
    13    13    14    2
    14    13    15   ar
    15    15    16   ar
    16    16    17   ar
    17    17    18   ar
    18    18    19   ar
    19    19    20   ar
    20    10    20   ar
    21    15    20   ar
    22     8    21   ar
    23     4    21   ar
    24     1    22    1
    25     2    23    1
    26     9    24    1
    27     9    25    1
    28    12    26    1
    29     5    27    1
    30     6    28    1
    31     7    29    1
    32    16    30    1
    33    17    31    1
    34    18    32    1
    35    19    33    1
    36    21    34    1
@<TRIPOS>MOLECULE
mol59_1_11
 34 36 0 0 0
SMALL
USER_CHARGES
****
VDW energy = -58.35
@<TRIPOS>ATOM
   1 N1        4.8577    -8.6243    -5.5271  N.2     1  <O>11      -0.2466
   2 S1        3.2917    -9.0153    -5.7244  S.3     1  <O>11       0.0680
   3 O1        2.7770    -9.8320    -4.4390  O.3     1  <O>11      -0.4186
   4 C1        3.5160   -10.9720    -4.2970  C.ar    1  <O>11       0.1393
   5 C2        4.6802   -10.9422    -3.5258  C.ar    1  <O>11      -0.0184
   6 C3        5.4479   -12.1032    -3.3863  C.ar    1  <O>11      -0.0580
   7 C4        5.0517   -13.2881    -4.0118  C.ar    1  <O>11      -0.0580
   8 C5        3.8798   -13.3052    -4.7757  C.ar    1  <O>11      -0.0380
   9 C6        3.4642   -14.5592    -5.4337  C.3     1  <O>11       0.0172
  10 C7        4.5246   -14.9998    -6.3772  C.ar    1  <O>11       0.0736
  11 N2        5.1400   -16.2429    -6.2014  N.ar    1  <O>11      -0.1750
  12 N3        6.1777   -16.6146    -6.9867  N.ar    1  <O>11      -0.2425
  13 C8        6.6054   -15.7705    -7.9559  C.ar    1  <O>11       0.2725
  14 O2        7.7483   -16.1725    -8.6743  O.2     1  <O>11      -0.2658
  15 C9        5.9781   -14.5543    -8.2629  C.ar    1  <O>11       0.0496
  16 C10       6.3862   -13.6971    -9.3119  C.ar    1  <O>11      -0.0487
  17 C11       5.7366   -12.4833    -9.5428  C.ar    1  <O>11      -0.0610
  18 C12       4.6755   -12.1001    -8.7307  C.ar    1  <O>11      -0.0611
  19 C13       4.2631   -12.9298    -7.6856  C.ar    1  <O>11      -0.0521
  20 C14       4.9040   -14.1665    -7.4422  C.ar    1  <O>11       0.0106
  21 C15       3.1062   -12.1523    -4.9193  C.ar    1  <O>11      -0.0149
  22 H1        5.5553    -9.3586    -5.4064  H       1  <O>11       0.1976
  23 H2        2.5716    -7.9056    -5.8617  H       1  <O>11       0.1591
  24 H3        2.5366   -14.3917    -5.9812  H       1  <O>11       0.0377
  25 H4        3.3051   -15.3295    -4.6788  H       1  <O>11       0.0377
  26 H5        6.6265   -17.5089    -6.8520  H       1  <O>11       0.1921
  27 H6        4.9725   -10.0682    -3.0613  H       1  <O>11       0.0654
  28 H7        6.3101   -12.0845    -2.8193  H       1  <O>11       0.0619
  29 H8        5.6191   -14.1442    -3.9110  H       1  <O>11       0.0620
  30 H9        7.1763   -13.9735    -9.9156  H       1  <O>11       0.0625
  31 H10       6.0436   -11.8715   -10.3151  H       1  <O>11       0.0618
  32 H11       4.1929   -11.2037    -8.8998  H       1  <O>11       0.0618
  33 H12       3.4793   -12.6360    -7.0822  H       1  <O>11       0.0624
  34 H13       2.2400   -12.1723    -5.4799  H       1  <O>11       0.0657
@<TRIPOS>BOND
     1     1     2    2
     2     2     3    1
     3     3     4    1
     4     4     5   ar
     5     5     6   ar
     6     6     7   ar
     7     7     8   ar
     8     8     9    1
     9     9    10    1
    10    10    11   ar
    11    11    12   ar
    12    12    13   ar
    13    13    14    2
    14    13    15   ar
    15    15    16   ar
    16    16    17   ar
    17    17    18   ar
    18    18    19   ar
    19    19    20   ar
    20    10    20   ar
    21    15    20   ar
    22     8    21   ar
    23     4    21   ar
    24     1    22    1
    25     2    23    1
    26     9    24    1
    27     9    25    1
    28    12    26    1
    29     5    27    1
    30     6    28    1
    31     7    29    1
    32    16    30    1
    33    17    31    1
    34    18    32    1
    35    19    33    1
    36    21    34    1
@<TRIPOS>MOLECULE
mol59_1_12
 34 36 0 0 0
SMALL
USER_CHARGES
****
VDW energy = -57.50
@<TRIPOS>ATOM
   1 N1        4.8577    -8.6243    -5.5271  N.2     1  <O>11      -0.2466
   2 S1        3.2917    -9.0153    -5.7244  S.3     1  <O>11       0.0680
   3 O1        2.7770    -9.8320    -4.4390  O.3     1  <O>11      -0.4186
   4 C1        1.7460    -9.1554    -3.8516  C.ar    1  <O>11       0.1393
   5 C2        0.5855    -8.9022    -4.5867  C.ar    1  <O>11      -0.0184
   6 C3       -0.4691    -8.1993    -3.9948  C.ar    1  <O>11      -0.0580
   7 C4       -0.3652    -7.7552    -2.6741  C.ar    1  <O>11      -0.0580
   8 C5        0.8002    -8.0217    -1.9475  C.ar    1  <O>11      -0.0380
   9 C6        0.9054    -7.5519    -0.5524  C.3     1  <O>11       0.0172
  10 C7        0.7802    -6.0714    -0.5164  C.ar    1  <O>11       0.0736
  11 N2        0.5930    -5.3596    -1.7053  N.ar    1  <O>11      -0.1750
  12 N3        0.5818    -4.0062    -1.7030  N.ar    1  <O>11      -0.2425
  13 C8        0.7419    -3.3484    -0.5298  C.ar    1  <O>11       0.2725
  14 O2        0.8178    -1.9440    -0.6067  O.2     1  <O>11      -0.2658
  15 C9        0.8319    -3.9866     0.7158  C.ar    1  <O>11       0.0496
  16 C10       0.9410    -3.3016     1.9489  C.ar    1  <O>11      -0.0487
  17 C11       1.0597    -4.0001     3.1516  C.ar    1  <O>11      -0.0610
  18 C12       1.0780    -5.3901     3.1465  C.ar    1  <O>11      -0.0611
  19 C13       0.9788    -6.0836     1.9383  C.ar    1  <O>11      -0.0521
  20 C14       0.8496    -5.3929     0.7113  C.ar    1  <O>11       0.0106
  21 C15       1.8573    -8.7238    -2.5288  C.ar    1  <O>11      -0.0149
  22 H1        5.5553    -9.3586    -5.4064  H       1  <O>11       0.1976
  23 H2        2.5716    -7.9056    -5.8617  H       1  <O>11       0.1591
  24 H3        1.8718    -7.8453    -0.1424  H       1  <O>11       0.0377
  25 H4        0.1088    -7.9995     0.0422  H       1  <O>11       0.0377
  26 H5        0.4556    -3.4943    -2.5640  H       1  <O>11       0.1921
  27 H6        0.5067    -9.2320    -5.5614  H       1  <O>11       0.0654
  28 H7       -1.3271    -8.0081    -4.5356  H       1  <O>11       0.0619
  29 H8       -1.1422    -7.2345    -2.2380  H       1  <O>11       0.0620
  30 H9        0.9327    -2.2697     1.9593  H       1  <O>11       0.0625
  31 H10       1.1338    -3.4855     4.0431  H       1  <O>11       0.0618
  32 H11       1.1647    -5.9090     4.0343  H       1  <O>11       0.0618
  33 H12       1.0001    -7.1153     1.9410  H       1  <O>11       0.0624
  34 H13       2.7124    -8.9218    -1.9861  H       1  <O>11       0.0657
@<TRIPOS>BOND
     1     1     2    2
     2     2     3    1
     3     3     4    1
     4     4     5   ar
     5     5     6   ar
     6     6     7   ar
     7     7     8   ar
     8     8     9    1
     9     9    10    1
    10    10    11   ar
    11    11    12   ar
    12    12    13   ar
    13    13    14    2
    14    13    15   ar
    15    15    16   ar
    16    16    17   ar
    17    17    18   ar
    18    18    19   ar
    19    19    20   ar
    20    10    20   ar
    21    15    20   ar
    22     8    21   ar
    23     4    21   ar
    24     1    22    1
    25     2    23    1
    26     9    24    1
    27     9    25    1
    28    12    26    1
    29     5    27    1
    30     6    28    1
    31     7    29    1
    32    16    30    1
    33    17    31    1
    34    18    32    1
    35    19    33    1
    36    21    34    1
@<TRIPOS>MOLECULE
mol59_1_13
 34 36 0 0 0
SMALL
USER_CHARGES
****
VDW energy = -57.15
@<TRIPOS>ATOM
   1 N1        4.8577    -8.6243    -5.5271  N.2     1  <O>11      -0.2466
   2 S1        3.2917    -9.0153    -5.7244  S.3     1  <O>11       0.0680
   3 O1        2.7770    -9.8320    -4.4390  O.3     1  <O>11      -0.4186
   4 C1        1.7460    -9.1554    -3.8516  C.ar    1  <O>11       0.1393
   5 C2        1.9600    -7.8603    -3.3743  C.ar    1  <O>11      -0.0184
   6 C3        0.9116    -7.1666    -2.7609  C.ar    1  <O>11      -0.0580
   7 C4       -0.3447    -7.7635    -2.6286  C.ar    1  <O>11      -0.0580
   8 C5       -0.5468    -9.0587    -3.1173  C.ar    1  <O>11      -0.0380
   9 C6       -1.8757    -9.6851    -2.9766  C.3     1  <O>11       0.0172
  10 C7       -2.2319    -9.7757    -1.5366  C.ar    1  <O>11       0.0736
  11 N2       -1.3435    -9.2977    -0.5684  N.ar    1  <O>11      -0.1750
  12 N3       -1.6045    -9.4667     0.7488  N.ar    1  <O>11      -0.2425
  13 C8       -2.7461   -10.0950     1.1185  C.ar    1  <O>11       0.2725
  14 O2       -2.9133   -10.3254     2.4980  O.2     1  <O>11      -0.2658
  15 C9       -3.7348   -10.5109     0.2150  C.ar    1  <O>11       0.0496
  16 C10      -4.9545   -11.1152     0.6009  C.ar    1  <O>11      -0.0487
  17 C11      -5.8823   -11.5357    -0.3535  C.ar    1  <O>11      -0.0610
  18 C12      -5.6093   -11.3675    -1.7062  C.ar    1  <O>11      -0.0611
  19 C13      -4.4073   -10.7797    -2.1064  C.ar    1  <O>11      -0.0521
  20 C14      -3.4595   -10.3403    -1.1536  C.ar    1  <O>11       0.0106
  21 C15       0.4927    -9.7583    -3.7324  C.ar    1  <O>11      -0.0149
  22 H1        5.5553    -9.3586    -5.4064  H       1  <O>11       0.1976
  23 H2        2.5716    -7.9056    -5.8617  H       1  <O>11       0.1591
  24 H3       -1.8532   -10.6853    -3.4095  H       1  <O>11       0.0377
  25 H4       -2.6184    -9.0813    -3.4985  H       1  <O>11       0.0377
  26 H5       -0.9571    -9.1287     1.4460  H       1  <O>11       0.1921
  27 H6        2.8869    -7.4175    -3.4737  H       1  <O>11       0.0654
  28 H7        1.0667    -6.2104    -2.4047  H       1  <O>11       0.0619
  29 H8       -1.1178    -7.2529    -2.1739  H       1  <O>11       0.0620
  30 H9       -5.1613   -11.2471     1.6033  H       1  <O>11       0.0625
  31 H10      -6.7694   -11.9706    -0.0554  H       1  <O>11       0.0618
  32 H11      -6.2940   -11.6767    -2.4137  H       1  <O>11       0.0618
  33 H12      -4.2080   -10.6643    -3.1123  H       1  <O>11       0.0624
  34 H13       0.3362   -10.7115    -4.0955  H       1  <O>11       0.0657
@<TRIPOS>BOND
     1     1     2    2
     2     2     3    1
     3     3     4    1
     4     4     5   ar
     5     5     6   ar
     6     6     7   ar
     7     7     8   ar
     8     8     9    1
     9     9    10    1
    10    10    11   ar
    11    11    12   ar
    12    12    13   ar
    13    13    14    2
    14    13    15   ar
    15    15    16   ar
    16    16    17   ar
    17    17    18   ar
    18    18    19   ar
    19    19    20   ar
    20    10    20   ar
    21    15    20   ar
    22     8    21   ar
    23     4    21   ar
    24     1    22    1
    25     2    23    1
    26     9    24    1
    27     9    25    1
    28    12    26    1
    29     5    27    1
    30     6    28    1
    31     7    29    1
    32    16    30    1
    33    17    31    1
    34    18    32    1
    35    19    33    1
    36    21    34    1
@<TRIPOS>MOLECULE
mol59_1_14
 34 36 0 0 0
SMALL
USER_CHARGES
****
VDW energy = -56.40
@<TRIPOS>ATOM
   1 N1        4.8577    -8.6243    -5.5271  N.2     1  <O>11      -0.2466
   2 S1        3.2917    -9.0153    -5.7244  S.3     1  <O>11       0.0680
   3 O1        2.7770    -9.8320    -4.4390  O.3     1  <O>11      -0.4186
   4 C1        3.5160   -10.9720    -4.2970  C.ar    1  <O>11       0.1393
   5 C2        3.0931   -12.1454    -4.9258  C.ar    1  <O>11      -0.0184
   6 C3        3.8389   -13.3191    -4.7744  C.ar    1  <O>11      -0.0580
   7 C4        5.0028   -13.3185    -4.0014  C.ar    1  <O>11      -0.0580
   8 C5        5.4182   -12.1344    -3.3829  C.ar    1  <O>11      -0.0380
   9 C6        6.6489   -12.1378    -2.5683  C.3     1  <O>11       0.0172
  10 C7        7.8038   -12.5348    -3.4154  C.ar    1  <O>11       0.0736
  11 N2        8.5364   -11.5573    -4.0957  N.ar    1  <O>11      -0.1750
  12 N3        9.5236   -11.9087    -4.9524  N.ar    1  <O>11      -0.2425
  13 C8        9.8021   -13.2218    -5.1331  C.ar    1  <O>11       0.2725
  14 O2       10.7724   -13.5259    -6.1078  O.2     1  <O>11      -0.2658
  15 C9        9.1852   -14.2557    -4.4139  C.ar    1  <O>11       0.0496
  16 C10       9.5139   -15.6243    -4.5579  C.ar    1  <O>11      -0.0487
  17 C11       8.8367   -16.6067    -3.8333  C.ar    1  <O>11      -0.0610
  18 C12       7.8184   -16.2444    -2.9592  C.ar    1  <O>11      -0.0611
  19 C13       7.4749   -14.8990    -2.8093  C.ar    1  <O>11      -0.0521
  20 C14       8.1554   -13.8897    -3.5288  C.ar    1  <O>11       0.0106
  21 C15       4.6818   -10.9578    -3.5294  C.ar    1  <O>11      -0.0149
  22 H1        5.5553    -9.3586    -5.4064  H       1  <O>11       0.1976
  23 H2        2.5716    -7.9056    -5.8617  H       1  <O>11       0.1591
  24 H3        6.5390   -12.8467    -1.7475  H       1  <O>11       0.0377
  25 H4        6.8193   -11.1397    -2.1643  H       1  <O>11       0.0377
  26 H5       10.0452   -11.2015    -5.4495  H       1  <O>11       0.1921
  27 H6        2.2350   -12.1465    -5.4990  H       1  <O>11       0.0654
  28 H7        3.5283   -14.1887    -5.2354  H       1  <O>11       0.0619
  29 H8        5.5519   -14.1848    -3.8876  H       1  <O>11       0.0620
  30 H9       10.2657   -15.9005    -5.2086  H       1  <O>11       0.0625
  31 H10       9.0917   -17.6003    -3.9465  H       1  <O>11       0.0618
  32 H11       7.3168   -16.9686    -2.4217  H       1  <O>11       0.0618
  33 H12       6.7132   -14.6376    -2.1640  H       1  <O>11       0.0624
  34 H13       4.9959   -10.0862    -3.0749  H       1  <O>11       0.0657
@<TRIPOS>BOND
     1     1     2    2
     2     2     3    1
     3     3     4    1
     4     4     5   ar
     5     5     6   ar
     6     6     7   ar
     7     7     8   ar
     8     8     9    1
     9     9    10    1
    10    10    11   ar
    11    11    12   ar
    12    12    13   ar
    13    13    14    2
    14    13    15   ar
    15    15    16   ar
    16    16    17   ar
    17    17    18   ar
    18    18    19   ar
    19    19    20   ar
    20    10    20   ar
    21    15    20   ar
    22     8    21   ar
    23     4    21   ar
    24     1    22    1
    25     2    23    1
    26     9    24    1
    27     9    25    1
    28    12    26    1
    29     5    27    1
    30     6    28    1
    31     7    29    1
    32    16    30    1
    33    17    31    1
    34    18    32    1
    35    19    33    1
    36    21    34    1
@<TRIPOS>MOLECULE
mol59_1_15
 34 36 0 0 0
SMALL
USER_CHARGES
****
VDW energy = -55.46
@<TRIPOS>ATOM
   1 N1        4.8577    -8.6243    -5.5271  N.2     1  <O>11      -0.2466
   2 S1        3.2917    -9.0153    -5.7244  S.3     1  <O>11       0.0680
   3 O1        2.7770    -9.8320    -4.4390  O.3     1  <O>11      -0.4186
   4 C1        3.5160   -10.9720    -4.2970  C.ar    1  <O>11       0.1393
   5 C2        3.5228   -11.9167    -5.3258  C.ar    1  <O>11      -0.0184
   6 C3        4.2679   -13.0918    -5.1816  C.ar    1  <O>11      -0.0580
   7 C4        5.0048   -13.3192    -4.0164  C.ar    1  <O>11      -0.0580
   8 C5        4.9941   -12.3612    -2.9969  C.ar    1  <O>11      -0.0380
   9 C6        5.7748   -12.6048    -1.7683  C.3     1  <O>11       0.0172
  10 C7        5.2912   -13.8468    -1.1108  C.ar    1  <O>11       0.0736
  11 N2        6.1689   -14.9173    -0.9143  N.ar    1  <O>11      -0.1750
  12 N3        5.7207   -16.0921    -0.4134  N.ar    1  <O>11      -0.2425
  13 C8        4.4105   -16.2138    -0.0922  C.ar    1  <O>11       0.2725
  14 O2        3.9875   -17.4885     0.3324  O.2     1  <O>11      -0.2658
  15 C9        3.4893   -15.1587    -0.1624  C.ar    1  <O>11       0.0496
  16 C10       2.1333   -15.2659     0.2268  C.ar    1  <O>11      -0.0487
  17 C11       1.2610   -14.1835     0.1001  C.ar    1  <O>11      -0.0610
  18 C12       1.7215   -12.9799    -0.4211  C.ar    1  <O>11      -0.0611
  19 C13       3.0551   -12.8574    -0.8175  C.ar    1  <O>11      -0.0521
  20 C14       3.9549   -13.9405    -0.6889  C.ar    1  <O>11       0.0106
  21 C15       4.2552   -11.1849    -3.1322  C.ar    1  <O>11      -0.0149
  22 H1        5.5553    -9.3586    -5.4064  H       1  <O>11       0.1976
  23 H2        2.5716    -7.9056    -5.8617  H       1  <O>11       0.1591
  24 H3        5.6532   -11.7619    -1.0878  H       1  <O>11       0.0377
  25 H4        6.8289   -12.7145    -2.0240  H       1  <O>11       0.0377
  26 H5        6.3545   -16.8667    -0.2808  H       1  <O>11       0.1921
  27 H6        2.9810   -11.7487    -6.1879  H       1  <O>11       0.0654
  28 H7        4.2734   -13.7933    -5.9386  H       1  <O>11       0.0619
  29 H8        5.5526   -14.1870    -3.9087  H       1  <O>11       0.0620
  30 H9        1.7838   -16.1580     0.6102  H       1  <O>11       0.0625
  31 H10       0.2758   -14.2767     0.3929  H       1  <O>11       0.0618
  32 H11       1.0790   -12.1779    -0.5149  H       1  <O>11       0.0618
  33 H12       3.3887   -11.9633    -1.2102  H       1  <O>11       0.0624
  34 H13       4.2553   -10.4796    -2.3788  H       1  <O>11       0.0657
@<TRIPOS>BOND
     1     1     2    2
     2     2     3    1
     3     3     4    1
     4     4     5   ar
     5     5     6   ar
     6     6     7   ar
     7     7     8   ar
     8     8     9    1
     9     9    10    1
    10    10    11   ar
    11    11    12   ar
    12    12    13   ar
    13    13    14    2
    14    13    15   ar
    15    15    16   ar
    16    16    17   ar
    17    17    18   ar
    18    18    19   ar
    19    19    20   ar
    20    10    20   ar
    21    15    20   ar
    22     8    21   ar
    23     4    21   ar
    24     1    22    1
    25     2    23    1
    26     9    24    1
    27     9    25    1
    28    12    26    1
    29     5    27    1
    30     6    28    1
    31     7    29    1
    32    16    30    1
    33    17    31    1
    34    18    32    1
    35    19    33    1
    36    21    34    1
@<TRIPOS>MOLECULE
mol59_1_16
 34 36 0 0 0
SMALL
USER_CHARGES
****
VDW energy = -54.74
@<TRIPOS>ATOM
   1 N1        4.8577    -8.6243    -5.5271  N.2     1  <O>11      -0.2466
   2 S1        3.2917    -9.0153    -5.7244  S.3     1  <O>11       0.0680
   3 O1        2.7770    -9.8320    -4.4390  O.3     1  <O>11      -0.4186
   4 C1        1.7460    -9.1554    -3.8516  C.ar    1  <O>11       0.1393
   5 C2        1.9600    -7.8603    -3.3743  C.ar    1  <O>11      -0.0184
   6 C3        0.9116    -7.1666    -2.7609  C.ar    1  <O>11      -0.0580
   7 C4       -0.3447    -7.7635    -2.6286  C.ar    1  <O>11      -0.0580
   8 C5       -0.5468    -9.0587    -3.1173  C.ar    1  <O>11      -0.0380
   9 C6       -1.8757    -9.6851    -2.9766  C.3     1  <O>11       0.0172
  10 C7       -2.2319    -9.7757    -1.5366  C.ar    1  <O>11       0.0736
  11 N2       -3.3786    -9.1319    -1.0614  N.ar    1  <O>11      -0.1750
  12 N3       -3.6609    -9.1164     0.2622  N.ar    1  <O>11      -0.2425
  13 C8       -2.8234    -9.7447     1.1215  C.ar    1  <O>11       0.2725
  14 O2       -3.1192    -9.6106     2.4920  O.2     1  <O>11      -0.2658
  15 C9       -1.7119   -10.4979     0.7162  C.ar    1  <O>11       0.0496
  16 C10      -0.8681   -11.2034     1.6061  C.ar    1  <O>11      -0.0487
  17 C11       0.2424   -11.9079     1.1381  C.ar    1  <O>11      -0.0610
  18 C12       0.5346   -11.9169    -0.2209  C.ar    1  <O>11      -0.0611
  19 C13      -0.2827   -11.2202    -1.1138  C.ar    1  <O>11      -0.0521
  20 C14      -1.4162   -10.5080    -0.6587  C.ar    1  <O>11       0.0106
  21 C15       0.4927    -9.7583    -3.7324  C.ar    1  <O>11      -0.0149
  22 H1        5.5553    -9.3586    -5.4064  H       1  <O>11       0.1976
  23 H2        2.5716    -7.9056    -5.8617  H       1  <O>11       0.1591
  24 H3       -1.8532   -10.6853    -3.4095  H       1  <O>11       0.0377
  25 H4       -2.6184    -9.0813    -3.4985  H       1  <O>11       0.0377
  26 H5       -4.4847    -8.6431     0.6040  H       1  <O>11       0.1921
  27 H6        2.8869    -7.4175    -3.4737  H       1  <O>11       0.0654
  28 H7        1.0667    -6.2104    -2.4047  H       1  <O>11       0.0619
  29 H8       -1.1178    -7.2529    -2.1739  H       1  <O>11       0.0620
  30 H9       -1.0768   -11.1970     2.6168  H       1  <O>11       0.0625
  31 H10       0.8454   -12.4213     1.7998  H       1  <O>11       0.0618
  32 H11       1.3544   -12.4377    -0.5697  H       1  <O>11       0.0618
  33 H12      -0.0559   -11.2252    -2.1205  H       1  <O>11       0.0624
  34 H13       0.3362   -10.7115    -4.0955  H       1  <O>11       0.0657
@<TRIPOS>BOND
     1     1     2    2
     2     2     3    1
     3     3     4    1
     4     4     5   ar
     5     5     6   ar
     6     6     7   ar
     7     7     8   ar
     8     8     9    1
     9     9    10    1
    10    10    11   ar
    11    11    12   ar
    12    12    13   ar
    13    13    14    2
    14    13    15   ar
    15    15    16   ar
    16    16    17   ar
    17    17    18   ar
    18    18    19   ar
    19    19    20   ar
    20    10    20   ar
    21    15    20   ar
    22     8    21   ar
    23     4    21   ar
    24     1    22    1
    25     2    23    1
    26     9    24    1
    27     9    25    1
    28    12    26    1
    29     5    27    1
    30     6    28    1
    31     7    29    1
    32    16    30    1
    33    17    31    1
    34    18    32    1
    35    19    33    1
    36    21    34    1
@<TRIPOS>MOLECULE
mol59_1_17
 34 36 0 0 0
SMALL
USER_CHARGES
****
VDW energy = -39.53
@<TRIPOS>ATOM
   1 N1        4.8577    -8.6243    -5.5271  N.2     1  <O>11      -0.2466
   2 S1        3.2917    -9.0153    -5.7244  S.3     1  <O>11       0.0680
   3 O1        2.7770    -9.8320    -4.4390  O.3     1  <O>11      -0.4186
   4 C1        3.5160   -10.9720    -4.2970  C.ar    1  <O>11       0.1393
   5 C2        4.8973   -10.8747    -4.1134  C.ar    1  <O>11      -0.0184
   6 C3        5.6614   -12.0387    -3.9794  C.ar    1  <O>11      -0.0580
   7 C4        5.0471   -13.2928    -4.0254  C.ar    1  <O>11      -0.0580
   8 C5        3.6618   -13.3751    -4.2031  C.ar    1  <O>11      -0.0380
   9 C6        3.0167   -14.7018    -4.2498  C.3     1  <O>11       0.0172
  10 C7        2.9802   -15.1869    -5.6541  C.ar    1  <O>11       0.0736
  11 N2        3.3599   -14.3341    -6.6951  N.ar    1  <O>11      -0.1750
  12 N3        3.2334   -14.7237    -7.9851  N.ar    1  <O>11      -0.2425
  13 C8        2.7452   -15.9579    -8.2553  C.ar    1  <O>11       0.2725
  14 O2        2.5473   -16.2671    -9.6151  O.2     1  <O>11      -0.2658
  15 C9        2.4393   -16.9081    -7.2702  C.ar    1  <O>11       0.0496
  16 C10       1.9840   -18.2181    -7.5499  C.ar    1  <O>11      -0.0487
  17 C11       1.6662   -19.1044    -6.5193  C.ar    1  <O>11      -0.0610
  18 C12       1.7901   -18.7001    -5.1951  C.ar    1  <O>11      -0.0611
  19 C13       2.2310   -17.4082    -4.8996  C.ar    1  <O>11      -0.0521
  20 C14       2.5653   -16.4998    -5.9303  C.ar    1  <O>11       0.0106
  21 C15       2.8907   -12.2193    -4.3359  C.ar    1  <O>11      -0.0149
  22 H1        5.5553    -9.3586    -5.4064  H       1  <O>11       0.1976
  23 H2        2.5716    -7.9056    -5.8617  H       1  <O>11       0.1591
  24 H3        1.9998   -14.6247    -3.8649  H       1  <O>11       0.0377
  25 H4        3.5837   -15.4026    -3.6367  H       1  <O>11       0.0377
  26 H5        3.4998   -14.1028    -8.7354  H       1  <O>11       0.1921
  27 H6        5.3517    -9.9489    -4.0768  H       1  <O>11       0.0654
  28 H7        6.6825   -11.9709    -3.8462  H       1  <O>11       0.0619
  29 H8        5.6108   -14.1518    -3.9290  H       1  <O>11       0.0620
  30 H9        1.8855   -18.5231    -8.5308  H       1  <O>11       0.0625
  31 H10       1.3398   -20.0582    -6.7401  H       1  <O>11       0.0618
  32 H11       1.5567   -19.3536    -4.4313  H       1  <O>11       0.0618
  33 H12       2.3140   -17.1122    -3.9145  H       1  <O>11       0.0624
  34 H13       1.8686   -12.2863    -4.4617  H       1  <O>11       0.0657
@<TRIPOS>BOND
     1     1     2    2
     2     2     3    1
     3     3     4    1
     4     4     5   ar
     5     5     6   ar
     6     6     7   ar
     7     7     8   ar
     8     8     9    1
     9     9    10    1
    10    10    11   ar
    11    11    12   ar
    12    12    13   ar
    13    13    14    2
    14    13    15   ar
    15    15    16   ar
    16    16    17   ar
    17    17    18   ar
    18    18    19   ar
    19    19    20   ar
    20    10    20   ar
    21    15    20   ar
    22     8    21   ar
    23     4    21   ar
    24     1    22    1
    25     2    23    1
    26     9    24    1
    27     9    25    1
    28    12    26    1
    29     5    27    1
    30     6    28    1
    31     7    29    1
    32    16    30    1
    33    17    31    1
    34    18    32    1
    35    19    33    1
    36    21    34    1
@<TRIPOS>MOLECULE
mol59_1_18
 34 36 0 0 0
SMALL
USER_CHARGES
****
VDW energy = -37.27
@<TRIPOS>ATOM
   1 N1        4.8577    -8.6243    -5.5271  N.2     1  <O>11      -0.2466
   2 S1        3.2917    -9.0153    -5.7244  S.3     1  <O>11       0.0680
   3 O1        2.7770    -9.8320    -4.4390  O.3     1  <O>11      -0.4186
   4 C1        3.5160   -10.9720    -4.2970  C.ar    1  <O>11       0.1393
   5 C2        4.8973   -10.8747    -4.1134  C.ar    1  <O>11      -0.0184
   6 C3        5.6614   -12.0387    -3.9794  C.ar    1  <O>11      -0.0580
   7 C4        5.0471   -13.2928    -4.0254  C.ar    1  <O>11      -0.0580
   8 C5        3.6618   -13.3751    -4.2031  C.ar    1  <O>11      -0.0380
   9 C6        3.0167   -14.7018    -4.2498  C.3     1  <O>11       0.0172
  10 C7        2.9802   -15.1869    -5.6541  C.ar    1  <O>11       0.0736
  11 N2        4.0423   -15.9449    -6.1564  N.ar    1  <O>11      -0.1750
  12 N3        4.0746   -16.3055    -7.4606  N.ar    1  <O>11      -0.2425
  13 C8        3.0562   -15.9326    -8.2721  C.ar    1  <O>11       0.2725
  14 O2        3.1951   -16.2545    -9.6363  O.2     1  <O>11      -0.2658
  15 C9        1.9085   -15.2622    -7.8250  C.ar    1  <O>11       0.0496
  16 C10       0.8167   -14.9220    -8.6581  C.ar    1  <O>11      -0.0487
  17 C11      -0.2825   -14.2245    -8.1542  C.ar    1  <O>11      -0.0610
  18 C12      -0.3106   -13.8491    -6.8161  C.ar    1  <O>11      -0.0611
  19 C13       0.7613   -14.1696    -5.9801  C.ar    1  <O>11      -0.0521
  20 C14       1.8791   -14.8828    -6.4711  C.ar    1  <O>11       0.0106
  21 C15       2.8907   -12.2193    -4.3359  C.ar    1  <O>11      -0.0149
  22 H1        5.5553    -9.3586    -5.4064  H       1  <O>11       0.1976
  23 H2        2.5716    -7.9056    -5.8617  H       1  <O>11       0.1591
  24 H3        1.9998   -14.6247    -3.8649  H       1  <O>11       0.0377
  25 H4        3.5837   -15.4026    -3.6367  H       1  <O>11       0.0377
  26 H5        4.8470   -16.8452    -7.8231  H       1  <O>11       0.1921
  27 H6        5.3517    -9.9489    -4.0768  H       1  <O>11       0.0654
  28 H7        6.6825   -11.9709    -3.8462  H       1  <O>11       0.0619
  29 H8        5.6108   -14.1518    -3.9290  H       1  <O>11       0.0620
  30 H9        0.8333   -15.1938    -9.6535  H       1  <O>11       0.0625
  31 H10      -1.0730   -13.9880    -8.7742  H       1  <O>11       0.0618
  32 H11      -1.1224   -13.3342    -6.4409  H       1  <O>11       0.0618
  33 H12       0.7371   -13.8817    -4.9894  H       1  <O>11       0.0624
  34 H13       1.8686   -12.2863    -4.4617  H       1  <O>11       0.0657
@<TRIPOS>BOND
     1     1     2    2
     2     2     3    1
     3     3     4    1
     4     4     5   ar
     5     5     6   ar
     6     6     7   ar
     7     7     8   ar
     8     8     9    1
     9     9    10    1
    10    10    11   ar
    11    11    12   ar
    12    12    13   ar
    13    13    14    2
    14    13    15   ar
    15    15    16   ar
    16    16    17   ar
    17    17    18   ar
    18    18    19   ar
    19    19    20   ar
    20    10    20   ar
    21    15    20   ar
    22     8    21   ar
    23     4    21   ar
    24     1    22    1
    25     2    23    1
    26     9    24    1
    27     9    25    1
    28    12    26    1
    29     5    27    1
    30     6    28    1
    31     7    29    1
    32    16    30    1
    33    17    31    1
    34    18    32    1
    35    19    33    1
    36    21    34    1
@<TRIPOS>MOLECULE
mol59_1_19
 34 36 0 0 0
SMALL
USER_CHARGES
****
VDW energy = -33.86
@<TRIPOS>ATOM
   1 N1        4.8577    -8.6243    -5.5271  N.2     1  <O>11      -0.2466
   2 S1        3.2917    -9.0153    -5.7244  S.3     1  <O>11       0.0680
   3 O1        2.7770    -9.8320    -4.4390  O.3     1  <O>11      -0.4186
   4 C1        3.5160   -10.9720    -4.2970  C.ar    1  <O>11       0.1393
   5 C2        3.3415   -11.7645    -3.1601  C.ar    1  <O>11      -0.0184
   6 C3        4.1038   -12.9267    -3.0029  C.ar    1  <O>11      -0.0580
   7 C4        5.0330   -13.2962    -3.9788  C.ar    1  <O>11      -0.0580
   8 C5        5.1925   -12.4966    -5.1157  C.ar    1  <O>11      -0.0380
   9 C6        6.1741   -12.8911    -6.1448  C.3     1  <O>11       0.0172
  10 C7        5.5150   -13.7644    -7.1507  C.ar    1  <O>11       0.0736
  11 N2        4.2109   -14.2183    -6.9305  N.ar    1  <O>11      -0.1750
  12 N3        3.6346   -15.0971    -7.7833  N.ar    1  <O>11      -0.2425
  13 C8        4.3340   -15.5226    -8.8623  C.ar    1  <O>11       0.2725
  14 O2        3.7171   -16.5084    -9.6572  O.2     1  <O>11      -0.2658
  15 C9        5.6037   -15.0383    -9.2089  C.ar    1  <O>11       0.0496
  16 C10       6.3131   -15.4372   -10.3662  C.ar    1  <O>11      -0.0487
  17 C11       7.5892   -14.9393   -10.6348  C.ar    1  <O>11      -0.0610
  18 C12       8.1823   -14.0421    -9.7541  C.ar    1  <O>11      -0.0611
  19 C13       7.5004   -13.6424    -8.6026  C.ar    1  <O>11      -0.0521
  20 C14       6.2039   -14.1299    -8.3186  C.ar    1  <O>11       0.0106
  21 C15       4.4352   -11.3360    -5.2824  C.ar    1  <O>11      -0.0149
  22 H1        5.5553    -9.3586    -5.4064  H       1  <O>11       0.1976
  23 H2        2.5716    -7.9056    -5.8617  H       1  <O>11       0.1591
  24 H3        6.9949   -13.4329    -5.6747  H       1  <O>11       0.0377
  25 H4        6.5633   -11.9990    -6.6359  H       1  <O>11       0.0377
  26 H5        2.6961   -15.4304    -7.6173  H       1  <O>11       0.1921
  27 H6        2.6538   -11.4939    -2.4398  H       1  <O>11       0.0654
  28 H7        3.9795   -13.5135    -2.1630  H       1  <O>11       0.0619
  29 H8        5.5972   -14.1523    -3.8620  H       1  <O>11       0.0620
  30 H9        5.8804   -16.1065   -11.0218  H       1  <O>11       0.0625
  31 H10       8.0916   -15.2368   -11.4858  H       1  <O>11       0.0618
  32 H11       9.1253   -13.6719    -9.9507  H       1  <O>11       0.0618
  33 H12       7.9494   -12.9816    -7.9495  H       1  <O>11       0.0624
  34 H13       4.5537   -10.7529    -6.1256  H       1  <O>11       0.0657
@<TRIPOS>BOND
     1     1     2    2
     2     2     3    1
     3     3     4    1
     4     4     5   ar
     5     5     6   ar
     6     6     7   ar
     7     7     8   ar
     8     8     9    1
     9     9    10    1
    10    10    11   ar
    11    11    12   ar
    12    12    13   ar
    13    13    14    2
    14    13    15   ar
    15    15    16   ar
    16    16    17   ar
    17    17    18   ar
    18    18    19   ar
    19    19    20   ar
    20    10    20   ar
    21    15    20   ar
    22     8    21   ar
    23     4    21   ar
    24     1    22    1
    25     2    23    1
    26     9    24    1
    27     9    25    1
    28    12    26    1
    29     5    27    1
    30     6    28    1
    31     7    29    1
    32    16    30    1
    33    17    31    1
    34    18    32    1
    35    19    33    1
    36    21    34    1
@<TRIPOS>MOLECULE
mol59_1_20
 34 36 0 0 0
SMALL
USER_CHARGES
****
VDW energy = -33.42
@<TRIPOS>ATOM
   1 N1        4.8577    -8.6243    -5.5271  N.2     1  <O>11      -0.2466
   2 S1        3.2917    -9.0153    -5.7244  S.3     1  <O>11       0.0680
   3 O1        2.7770    -9.8320    -4.4390  O.3     1  <O>11      -0.4186
   4 C1        3.5160   -10.9720    -4.2970  C.ar    1  <O>11       0.1393
   5 C2        3.3415   -11.7645    -3.1601  C.ar    1  <O>11      -0.0184
   6 C3        4.1038   -12.9267    -3.0029  C.ar    1  <O>11      -0.0580
   7 C4        5.0330   -13.2962    -3.9788  C.ar    1  <O>11      -0.0580
   8 C5        5.1925   -12.4966    -5.1157  C.ar    1  <O>11      -0.0380
   9 C6        6.1741   -12.8911    -6.1448  C.3     1  <O>11       0.0172
  10 C7        7.4935   -12.2832    -5.8312  C.ar    1  <O>11       0.0736
  11 N2        7.6010   -11.3484    -4.7970  N.ar    1  <O>11      -0.1750
  12 N3        8.7710   -10.7082    -4.5665  N.ar    1  <O>11      -0.2425
  13 C8        9.8425   -10.9944    -5.3440  C.ar    1  <O>11       0.2725
  14 O2       11.0013   -10.2265    -5.1173  O.2     1  <O>11      -0.2658
  15 C9        9.8453   -11.9902    -6.3315  C.ar    1  <O>11       0.0496
  16 C10      10.9788   -12.3320    -7.1062  C.ar    1  <O>11      -0.0487
  17 C11      10.9038   -13.3127    -8.0968  C.ar    1  <O>11      -0.0610
  18 C12       9.6995   -13.9642    -8.3368  C.ar    1  <O>11      -0.0611
  19 C13       8.5680   -13.6350    -7.5871  C.ar    1  <O>11      -0.0521
  20 C14       8.6274   -12.6503    -6.5741  C.ar    1  <O>11       0.0106
  21 C15       4.4352   -11.3360    -5.2824  C.ar    1  <O>11      -0.0149
  22 H1        5.5553    -9.3586    -5.4064  H       1  <O>11       0.1976
  23 H2        2.5716    -7.9056    -5.8617  H       1  <O>11       0.1591
  24 H3        5.8361   -12.5434    -7.1211  H       1  <O>11       0.0377
  25 H4        6.2675   -13.9772    -6.1596  H       1  <O>11       0.0377
  26 H5        8.8438   -10.0269    -3.8249  H       1  <O>11       0.1921
  27 H6        2.6538   -11.4939    -2.4398  H       1  <O>11       0.0654
  28 H7        3.9795   -13.5135    -2.1630  H       1  <O>11       0.0619
  29 H8        5.5972   -14.1523    -3.8620  H       1  <O>11       0.0620
  30 H9       11.8748   -11.8490    -6.9362  H       1  <O>11       0.0625
  31 H10      11.7410   -13.5536    -8.6501  H       1  <O>11       0.0618
  32 H11       9.6415   -14.6902    -9.0679  H       1  <O>11       0.0618
  33 H12       7.6754   -14.1176    -7.7752  H       1  <O>11       0.0624
  34 H13       4.5537   -10.7529    -6.1256  H       1  <O>11       0.0657
@<TRIPOS>BOND
     1     1     2    2
     2     2     3    1
     3     3     4    1
     4     4     5   ar
     5     5     6   ar
     6     6     7   ar
     7     7     8   ar
     8     8     9    1
     9     9    10    1
    10    10    11   ar
    11    11    12   ar
    12    12    13   ar
    13    13    14    2
    14    13    15   ar
    15    15    16   ar
    16    16    17   ar
    17    17    18   ar
    18    18    19   ar
    19    19    20   ar
    20    10    20   ar
    21    15    20   ar
    22     8    21   ar
    23     4    21   ar
    24     1    22    1
    25     2    23    1
    26     9    24    1
    27     9    25    1
    28    12    26    1
    29     5    27    1
    30     6    28    1
    31     7    29    1
    32    16    30    1
    33    17    31    1
    34    18    32    1
    35    19    33    1
    36    21    34    1
@<TRIPOS>MOLECULE
mol59_1_21
 34 36 0 0 0
SMALL
USER_CHARGES
****
VDW energy = -32.79
@<TRIPOS>ATOM
   1 N1        4.8577    -8.6243    -5.5271  N.2     1  <O>11      -0.2466
   2 S1        3.2917    -9.0153    -5.7244  S.3     1  <O>11       0.0680
   3 O1        2.7770    -9.8320    -4.4390  O.3     1  <O>11      -0.4186
   4 C1        3.5160   -10.9720    -4.2970  C.ar    1  <O>11       0.1393
   5 C2        4.8973   -10.8747    -4.1134  C.ar    1  <O>11      -0.0184
   6 C3        5.6614   -12.0387    -3.9794  C.ar    1  <O>11      -0.0580
   7 C4        5.0471   -13.2928    -4.0254  C.ar    1  <O>11      -0.0580
   8 C5        3.6618   -13.3751    -4.2031  C.ar    1  <O>11      -0.0380
   9 C6        3.0167   -14.7018    -4.2498  C.3     1  <O>11       0.0172
  10 C7        3.2670   -15.4206    -2.9733  C.ar    1  <O>11       0.0736
  11 N2        2.3709   -15.2817    -1.9090  N.ar    1  <O>11      -0.1750
  12 N3        2.6370   -15.8441    -0.7070  N.ar    1  <O>11      -0.2425
  13 C8        3.7789   -16.5556    -0.5513  C.ar    1  <O>11       0.2725
  14 O2        4.0450   -17.0331     0.7468  O.2     1  <O>11      -0.2658
  15 C9        4.6765   -16.8273    -1.5942  C.ar    1  <O>11       0.0496
  16 C10       5.8405   -17.6183    -1.4493  C.ar    1  <O>11      -0.0487
  17 C11       6.7095   -17.8224    -2.5225  C.ar    1  <O>11      -0.0610
  18 C12       6.4381   -17.2382    -3.7544  C.ar    1  <O>11      -0.0611
  19 C13       5.2977   -16.4480    -3.9144  C.ar    1  <O>11      -0.0521
  20 C14       4.4020   -16.2372    -2.8409  C.ar    1  <O>11       0.0106
  21 C15       2.8907   -12.2193    -4.3359  C.ar    1  <O>11      -0.0149
  22 H1        5.5553    -9.3586    -5.4064  H       1  <O>11       0.1976
  23 H2        2.5716    -7.9056    -5.8617  H       1  <O>11       0.1591
  24 H3        3.4297   -15.2772    -5.0784  H       1  <O>11       0.0377
  25 H4        1.9432   -14.5783    -4.3941  H       1  <O>11       0.0377
  26 H5        1.9928   -15.7348     0.0627  H       1  <O>11       0.1921
  27 H6        5.3517    -9.9489    -4.0768  H       1  <O>11       0.0654
  28 H7        6.6825   -11.9709    -3.8462  H       1  <O>11       0.0619
  29 H8        5.6108   -14.1518    -3.9290  H       1  <O>11       0.0620
  30 H9        6.0502   -18.0511    -0.5363  H       1  <O>11       0.0625
  31 H10       7.5521   -18.4059    -2.4016  H       1  <O>11       0.0618
  32 H11       7.0785   -17.3882    -4.5496  H       1  <O>11       0.0618
  33 H12       5.1060   -16.0115    -4.8297  H       1  <O>11       0.0624
  34 H13       1.8686   -12.2863    -4.4617  H       1  <O>11       0.0657
@<TRIPOS>BOND
     1     1     2    2
     2     2     3    1
     3     3     4    1
     4     4     5   ar
     5     5     6   ar
     6     6     7   ar
     7     7     8   ar
     8     8     9    1
     9     9    10    1
    10    10    11   ar
    11    11    12   ar
    12    12    13   ar
    13    13    14    2
    14    13    15   ar
    15    15    16   ar
    16    16    17   ar
    17    17    18   ar
    18    18    19   ar
    19    19    20   ar
    20    10    20   ar
    21    15    20   ar
    22     8    21   ar
    23     4    21   ar
    24     1    22    1
    25     2    23    1
    26     9    24    1
    27     9    25    1
    28    12    26    1
    29     5    27    1
    30     6    28    1
    31     7    29    1
    32    16    30    1
    33    17    31    1
    34    18    32    1
    35    19    33    1
    36    21    34    1
@<TRIPOS>MOLECULE
mol59_1_22
 34 36 0 0 0
SMALL
USER_CHARGES
****
VDW energy = -32.66
@<TRIPOS>ATOM
   1 N1        4.8577    -8.6243    -5.5271  N.2     1  <O>11      -0.2466
   2 S1        3.2917    -9.0153    -5.7244  S.3     1  <O>11       0.0680
   3 O1        2.7770    -9.8320    -4.4390  O.3     1  <O>11      -0.4186
   4 C1        3.5160   -10.9720    -4.2970  C.ar    1  <O>11       0.1393
   5 C2        3.3415   -11.7645    -3.1601  C.ar    1  <O>11      -0.0184
   6 C3        4.1038   -12.9267    -3.0029  C.ar    1  <O>11      -0.0580
   7 C4        5.0330   -13.2962    -3.9788  C.ar    1  <O>11      -0.0580
   8 C5        5.1925   -12.4966    -5.1157  C.ar    1  <O>11      -0.0380
   9 C6        6.1741   -12.8911    -6.1448  C.3     1  <O>11       0.0172
  10 C7        7.5310   -12.9467    -5.5411  C.ar    1  <O>11       0.0736
  11 N2        7.9935   -14.1396    -4.9770  N.ar    1  <O>11      -0.1750
  12 N3        9.1822   -14.1804    -4.3312  N.ar    1  <O>11      -0.2425
  13 C8        9.9259   -13.0513    -4.2490  C.ar    1  <O>11       0.2725
  14 O2       11.1047   -13.1346    -3.4826  O.2     1  <O>11      -0.2658
  15 C9        9.5822   -11.8442    -4.8746  C.ar    1  <O>11       0.0496
  16 C10      10.3844   -10.6792    -4.8396  C.ar    1  <O>11      -0.0487
  17 C11       9.9664    -9.4994    -5.4576  C.ar    1  <O>11      -0.0610
  18 C12       8.7421    -9.4575    -6.1145  C.ar    1  <O>11      -0.0611
  19 C13       7.9331   -10.5954    -6.1532  C.ar    1  <O>11      -0.0521
  20 C14       8.3439   -11.8015    -5.5400  C.ar    1  <O>11       0.0106
  21 C15       4.4352   -11.3360    -5.2824  C.ar    1  <O>11      -0.0149
  22 H1        5.5553    -9.3586    -5.4064  H       1  <O>11       0.1976
  23 H2        2.5716    -7.9056    -5.8617  H       1  <O>11       0.1591
  24 H3        6.1654   -12.1605    -6.9537  H       1  <O>11       0.0377
  25 H4        5.9106   -13.8723    -6.5402  H       1  <O>11       0.0377
  26 H5        9.5099   -15.0407    -3.9167  H       1  <O>11       0.1921
  27 H6        2.6538   -11.4939    -2.4398  H       1  <O>11       0.0654
  28 H7        3.9795   -13.5135    -2.1630  H       1  <O>11       0.0619
  29 H8        5.5972   -14.1523    -3.8620  H       1  <O>11       0.0620
  30 H9       11.2924   -10.7022    -4.3498  H       1  <O>11       0.0625
  31 H10      10.5655    -8.6596    -5.4269  H       1  <O>11       0.0618
  32 H11       8.4311    -8.5868    -6.5729  H       1  <O>11       0.0618
  33 H12       7.0222   -10.5554    -6.6365  H       1  <O>11       0.0624
  34 H13       4.5537   -10.7529    -6.1256  H       1  <O>11       0.0657
@<TRIPOS>BOND
     1     1     2    2
     2     2     3    1
     3     3     4    1
     4     4     5   ar
     5     5     6   ar
     6     6     7   ar
     7     7     8   ar
     8     8     9    1
     9     9    10    1
    10    10    11   ar
    11    11    12   ar
    12    12    13   ar
    13    13    14    2
    14    13    15   ar
    15    15    16   ar
    16    16    17   ar
    17    17    18   ar
    18    18    19   ar
    19    19    20   ar
    20    10    20   ar
    21    15    20   ar
    22     8    21   ar
    23     4    21   ar
    24     1    22    1
    25     2    23    1
    26     9    24    1
    27     9    25    1
    28    12    26    1
    29     5    27    1
    30     6    28    1
    31     7    29    1
    32    16    30    1
    33    17    31    1
    34    18    32    1
    35    19    33    1
    36    21    34    1
@<TRIPOS>MOLECULE
mol59_1_23
 34 36 0 0 0
SMALL
USER_CHARGES
****
VDW energy = -30.83
@<TRIPOS>ATOM
   1 N1        4.8577    -8.6243    -5.5271  N.2     1  <O>11      -0.2466
   2 S1        3.2917    -9.0153    -5.7244  S.3     1  <O>11       0.0680
   3 O1        2.7770    -9.8320    -4.4390  O.3     1  <O>11      -0.4186
   4 C1        3.5160   -10.9720    -4.2970  C.ar    1  <O>11       0.1393
   5 C2        3.3415   -11.7645    -3.1601  C.ar    1  <O>11      -0.0184
   6 C3        4.1038   -12.9267    -3.0029  C.ar    1  <O>11      -0.0580
   7 C4        5.0330   -13.2962    -3.9788  C.ar    1  <O>11      -0.0580
   8 C5        5.1925   -12.4966    -5.1157  C.ar    1  <O>11      -0.0380
   9 C6        6.1741   -12.8911    -6.1448  C.3     1  <O>11       0.0172
  10 C7        7.5310   -12.9467    -5.5411  C.ar    1  <O>11       0.0736
  11 N2        7.7316   -12.4863    -4.2362  N.ar    1  <O>11      -0.1750
  12 N3        8.9770   -12.4324    -3.7089  N.ar    1  <O>11      -0.2425
  13 C8       10.0277   -12.8430    -4.4586  C.ar    1  <O>11       0.2725
  14 O2       11.3050   -12.6719    -3.8901  O.2     1  <O>11      -0.2658
  15 C9        9.9002   -13.4123    -5.7339  C.ar    1  <O>11       0.0496
  16 C10      10.9897   -13.8954    -6.4964  C.ar    1  <O>11      -0.0487
  17 C11      10.7957   -14.4214    -7.7748  C.ar    1  <O>11      -0.0610
  18 C12       9.5167   -14.4695    -8.3173  C.ar    1  <O>11      -0.0611
  19 C13       8.4299   -13.9905    -7.5825  C.ar    1  <O>11      -0.0521
  20 C14       8.6064   -13.4619    -6.2830  C.ar    1  <O>11       0.0106
  21 C15       4.4352   -11.3360    -5.2824  C.ar    1  <O>11      -0.0149
  22 H1        5.5553    -9.3586    -5.4064  H       1  <O>11       0.1976
  23 H2        2.5716    -7.9056    -5.8617  H       1  <O>11       0.1591
  24 H3        6.1654   -12.1605    -6.9537  H       1  <O>11       0.0377
  25 H4        5.9106   -13.8723    -6.5402  H       1  <O>11       0.0377
  26 H5        9.1204   -12.0911    -2.7696  H       1  <O>11       0.1921
  27 H6        2.6538   -11.4939    -2.4398  H       1  <O>11       0.0654
  28 H7        3.9795   -13.5135    -2.1630  H       1  <O>11       0.0619
  29 H8        5.5972   -14.1523    -3.8620  H       1  <O>11       0.0620
  30 H9       11.9423   -13.8584    -6.1014  H       1  <O>11       0.0625
  31 H10      11.6004   -14.7740    -8.3162  H       1  <O>11       0.0618
  32 H11       9.3704   -14.8587    -9.2618  H       1  <O>11       0.0618
  33 H12       7.4841   -14.0227    -7.9941  H       1  <O>11       0.0624
  34 H13       4.5537   -10.7529    -6.1256  H       1  <O>11       0.0657
@<TRIPOS>BOND
     1     1     2    2
     2     2     3    1
     3     3     4    1
     4     4     5   ar
     5     5     6   ar
     6     6     7   ar
     7     7     8   ar
     8     8     9    1
     9     9    10    1
    10    10    11   ar
    11    11    12   ar
    12    12    13   ar
    13    13    14    2
    14    13    15   ar
    15    15    16   ar
    16    16    17   ar
    17    17    18   ar
    18    18    19   ar
    19    19    20   ar
    20    10    20   ar
    21    15    20   ar
    22     8    21   ar
    23     4    21   ar
    24     1    22    1
    25     2    23    1
    26     9    24    1
    27     9    25    1
    28    12    26    1
    29     5    27    1
    30     6    28    1
    31     7    29    1
    32    16    30    1
    33    17    31    1
    34    18    32    1
    35    19    33    1
    36    21    34    1
@<TRIPOS>MOLECULE
mol59_1_24
 34 36 0 0 0
SMALL
USER_CHARGES
****
VDW energy = -29.97
@<TRIPOS>ATOM
   1 N1        4.8577    -8.6243    -5.5271  N.2     1  <O>11      -0.2466
   2 S1        3.2917    -9.0153    -5.7244  S.3     1  <O>11       0.0680
   3 O1        2.7770    -9.8320    -4.4390  O.3     1  <O>11      -0.4186
   4 C1        3.5160   -10.9720    -4.2970  C.ar    1  <O>11       0.1393
   5 C2        3.3415   -11.7645    -3.1601  C.ar    1  <O>11      -0.0184
   6 C3        4.1038   -12.9267    -3.0029  C.ar    1  <O>11      -0.0580
   7 C4        5.0330   -13.2962    -3.9788  C.ar    1  <O>11      -0.0580
   8 C5        5.1925   -12.4966    -5.1157  C.ar    1  <O>11      -0.0380
   9 C6        6.1741   -12.8911    -6.1448  C.3     1  <O>11       0.0172
  10 C7        7.4935   -12.2832    -5.8312  C.ar    1  <O>11       0.0736
  11 N2        8.4061   -12.9758    -5.0296  N.ar    1  <O>11      -0.1750
  12 N3        9.5674   -12.3945    -4.6484  N.ar    1  <O>11      -0.2425
  13 C8        9.8409   -11.1349    -5.0648  C.ar    1  <O>11       0.2725
  14 O2       11.0175   -10.5509    -4.5563  O.2     1  <O>11      -0.2658
  15 C9        9.0285   -10.4133    -5.9514  C.ar    1  <O>11       0.0496
  16 C10       9.3394    -9.1202    -6.4341  C.ar    1  <O>11      -0.0487
  17 C11       8.4690    -8.4438    -7.2907  C.ar    1  <O>11      -0.0610
  18 C12       7.2735    -9.0397    -7.6754  C.ar    1  <O>11      -0.0611
  19 C13       6.9461   -10.3127    -7.2032  C.ar    1  <O>11      -0.0521
  20 C14       7.8192   -11.0160    -6.3416  C.ar    1  <O>11       0.0106
  21 C15       4.4352   -11.3360    -5.2824  C.ar    1  <O>11      -0.0149
  22 H1        5.5553    -9.3586    -5.4064  H       1  <O>11       0.1976
  23 H2        2.5716    -7.9056    -5.8617  H       1  <O>11       0.1591
  24 H3        5.8361   -12.5434    -7.1211  H       1  <O>11       0.0377
  25 H4        6.2675   -13.9772    -6.1596  H       1  <O>11       0.0377
  26 H5       10.2207   -12.8932    -4.0621  H       1  <O>11       0.1921
  27 H6        2.6538   -11.4939    -2.4398  H       1  <O>11       0.0654
  28 H7        3.9795   -13.5135    -2.1630  H       1  <O>11       0.0619
  29 H8        5.5972   -14.1523    -3.8620  H       1  <O>11       0.0620
  30 H9       10.2231    -8.6703    -6.1487  H       1  <O>11       0.0625
  31 H10       8.7127    -7.5029    -7.6376  H       1  <O>11       0.0618
  32 H11       6.6288    -8.5422    -8.3092  H       1  <O>11       0.0618
  33 H12       6.0537   -10.7463    -7.4871  H       1  <O>11       0.0624
  34 H13       4.5537   -10.7529    -6.1256  H       1  <O>11       0.0657
@<TRIPOS>BOND
     1     1     2    2
     2     2     3    1
     3     3     4    1
     4     4     5   ar
     5     5     6   ar
     6     6     7   ar
     7     7     8   ar
     8     8     9    1
     9     9    10    1
    10    10    11   ar
    11    11    12   ar
    12    12    13   ar
    13    13    14    2
    14    13    15   ar
    15    15    16   ar
    16    16    17   ar
    17    17    18   ar
    18    18    19   ar
    19    19    20   ar
    20    10    20   ar
    21    15    20   ar
    22     8    21   ar
    23     4    21   ar
    24     1    22    1
    25     2    23    1
    26     9    24    1
    27     9    25    1
    28    12    26    1
    29     5    27    1
    30     6    28    1
    31     7    29    1
    32    16    30    1
    33    17    31    1
    34    18    32    1
    35    19    33    1
    36    21    34    1
@<TRIPOS>MOLECULE
mol59_1_25
 34 36 0 0 0
SMALL
USER_CHARGES
****
VDW energy = -29.90
@<TRIPOS>ATOM
   1 N1        4.8577    -8.6243    -5.5271  N.2     1  <O>11      -0.2466
   2 S1        3.2917    -9.0153    -5.7244  S.3     1  <O>11       0.0680
   3 O1        2.7770    -9.8320    -4.4390  O.3     1  <O>11      -0.4186
   4 C1        3.5160   -10.9720    -4.2970  C.ar    1  <O>11       0.1393
   5 C2        3.3415   -11.7645    -3.1601  C.ar    1  <O>11      -0.0184
   6 C3        4.1038   -12.9267    -3.0029  C.ar    1  <O>11      -0.0580
   7 C4        5.0330   -13.2962    -3.9788  C.ar    1  <O>11      -0.0580
   8 C5        5.1925   -12.4966    -5.1157  C.ar    1  <O>11      -0.0380
   9 C6        6.1741   -12.8911    -6.1448  C.3     1  <O>11       0.0172
  10 C7        5.5150   -13.7644    -7.1507  C.ar    1  <O>11       0.0736
  11 N2        5.5001   -15.1503    -6.9660  N.ar    1  <O>11      -0.1750
  12 N3        4.9975   -15.9668    -7.9213  N.ar    1  <O>11      -0.2425
  13 C8        4.4963   -15.4224    -9.0558  C.ar    1  <O>11       0.2725
  14 O2        4.0777   -16.3274   -10.0506  O.2     1  <O>11      -0.2658
  15 C9        4.3808   -14.0417    -9.2729  C.ar    1  <O>11       0.0496
  16 C10       3.8051   -13.4691   -10.4315  C.ar    1  <O>11      -0.0487
  17 C11       3.7511   -12.0843   -10.5986  C.ar    1  <O>11      -0.0610
  18 C12       4.2741   -11.2475    -9.6195  C.ar    1  <O>11      -0.0611
  19 C13       4.8530   -11.7946    -8.4722  C.ar    1  <O>11      -0.0521
  20 C14       4.9091   -13.1946    -8.2823  C.ar    1  <O>11       0.0106
  21 C15       4.4352   -11.3360    -5.2824  C.ar    1  <O>11      -0.0149
  22 H1        5.5553    -9.3586    -5.4064  H       1  <O>11       0.1976
  23 H2        2.5716    -7.9056    -5.8617  H       1  <O>11       0.1591
  24 H3        6.9949   -13.4329    -5.6747  H       1  <O>11       0.0377
  25 H4        6.5633   -11.9990    -6.6359  H       1  <O>11       0.0377
  26 H5        4.9961   -16.9678    -7.7896  H       1  <O>11       0.1921
  27 H6        2.6538   -11.4939    -2.4398  H       1  <O>11       0.0654
  28 H7        3.9795   -13.5135    -2.1630  H       1  <O>11       0.0619
  29 H8        5.5972   -14.1523    -3.8620  H       1  <O>11       0.0620
  30 H9        3.4192   -14.0848   -11.1644  H       1  <O>11       0.0625
  31 H10       3.3237   -11.6824   -11.4476  H       1  <O>11       0.0618
  32 H11       4.2347   -10.2234    -9.7401  H       1  <O>11       0.0618
  33 H12       5.2457   -11.1678    -7.7526  H       1  <O>11       0.0624
  34 H13       4.5537   -10.7529    -6.1256  H       1  <O>11       0.0657
@<TRIPOS>BOND
     1     1     2    2
     2     2     3    1
     3     3     4    1
     4     4     5   ar
     5     5     6   ar
     6     6     7   ar
     7     7     8   ar
     8     8     9    1
     9     9    10    1
    10    10    11   ar
    11    11    12   ar
    12    12    13   ar
    13    13    14    2
    14    13    15   ar
    15    15    16   ar
    16    16    17   ar
    17    17    18   ar
    18    18    19   ar
    19    19    20   ar
    20    10    20   ar
    21    15    20   ar
    22     8    21   ar
    23     4    21   ar
    24     1    22    1
    25     2    23    1
    26     9    24    1
    27     9    25    1
    28    12    26    1
    29     5    27    1
    30     6    28    1
    31     7    29    1
    32    16    30    1
    33    17    31    1
    34    18    32    1
    35    19    33    1
    36    21    34    1
@<TRIPOS>MOLECULE
mol59_1_26
 34 36 0 0 0
SMALL
USER_CHARGES
****
VDW energy = -29.77
@<TRIPOS>ATOM
   1 N1        4.8577    -8.6243    -5.5271  N.2     1  <O>11      -0.2466
   2 S1        3.2917    -9.0153    -5.7244  S.3     1  <O>11       0.0680
   3 O1        2.7770    -9.8320    -4.4390  O.3     1  <O>11      -0.4186
   4 C1        3.5160   -10.9720    -4.2970  C.ar    1  <O>11       0.1393
   5 C2        4.8973   -10.8747    -4.1134  C.ar    1  <O>11      -0.0184
   6 C3        5.6614   -12.0387    -3.9794  C.ar    1  <O>11      -0.0580
   7 C4        5.0471   -13.2928    -4.0254  C.ar    1  <O>11      -0.0580
   8 C5        3.6618   -13.3751    -4.2031  C.ar    1  <O>11      -0.0380
   9 C6        3.0167   -14.7018    -4.2498  C.3     1  <O>11       0.0172
  10 C7        3.5795   -15.4880    -5.3785  C.ar    1  <O>11       0.0736
  11 N2        2.9867   -15.4132    -6.6426  N.ar    1  <O>11      -0.1750
  12 N3        3.4208   -16.2006    -7.6542  N.ar    1  <O>11      -0.2425
  13 C8        4.4475   -17.0550    -7.4296  C.ar    1  <O>11       0.2725
  14 O2        4.7884   -17.9145    -8.4921  O.2     1  <O>11      -0.2658
  15 C9        5.1608   -17.1166    -6.2237  C.ar    1  <O>11       0.0496
  16 C10       6.2705   -17.9664    -6.0042  C.ar    1  <O>11      -0.0487
  17 C11       6.9158   -18.0015    -4.7669  C.ar    1  <O>11      -0.0610
  18 C12       6.4642   -17.1971    -3.7270  C.ar    1  <O>11      -0.0611
  19 C13       5.3656   -16.3572    -3.9226  C.ar    1  <O>11      -0.0521
  20 C14       4.7048   -16.3024    -5.1715  C.ar    1  <O>11       0.0106
  21 C15       2.8907   -12.2193    -4.3359  C.ar    1  <O>11      -0.0149
  22 H1        5.5553    -9.3586    -5.4064  H       1  <O>11       0.1976
  23 H2        2.5716    -7.9056    -5.8617  H       1  <O>11       0.1591
  24 H3        1.9430   -14.5785    -4.3919  H       1  <O>11       0.0377
  25 H4        3.1999   -15.2274    -3.3124  H       1  <O>11       0.0377
  26 H5        2.9852   -16.1513    -8.5638  H       1  <O>11       0.1921
  27 H6        5.3517    -9.9489    -4.0768  H       1  <O>11       0.0654
  28 H7        6.6825   -11.9709    -3.8462  H       1  <O>11       0.0619
  29 H8        5.6108   -14.1518    -3.9290  H       1  <O>11       0.0620
  30 H9        6.6080   -18.5695    -6.7706  H       1  <O>11       0.0625
  31 H10       7.7268   -18.6236    -4.6244  H       1  <O>11       0.0618
  32 H11       6.9400   -17.2205    -2.8116  H       1  <O>11       0.0618
  33 H12       5.0312   -15.7679    -3.1443  H       1  <O>11       0.0624
  34 H13       1.8686   -12.2863    -4.4617  H       1  <O>11       0.0657
@<TRIPOS>BOND
     1     1     2    2
     2     2     3    1
     3     3     4    1
     4     4     5   ar
     5     5     6   ar
     6     6     7   ar
     7     7     8   ar
     8     8     9    1
     9     9    10    1
    10    10    11   ar
    11    11    12   ar
    12    12    13   ar
    13    13    14    2
    14    13    15   ar
    15    15    16   ar
    16    16    17   ar
    17    17    18   ar
    18    18    19   ar
    19    19    20   ar
    20    10    20   ar
    21    15    20   ar
    22     8    21   ar
    23     4    21   ar
    24     1    22    1
    25     2    23    1
    26     9    24    1
    27     9    25    1
    28    12    26    1
    29     5    27    1
    30     6    28    1
    31     7    29    1
    32    16    30    1
    33    17    31    1
    34    18    32    1
    35    19    33    1
    36    21    34    1
@<TRIPOS>MOLECULE
mol59_1_27
 34 36 0 0 0
SMALL
USER_CHARGES
****
VDW energy = -29.01
@<TRIPOS>ATOM
   1 N1        4.8577    -8.6243    -5.5271  N.2     1  <O>11      -0.2466
   2 S1        3.2917    -9.0153    -5.7244  S.3     1  <O>11       0.0680
   3 O1        2.7770    -9.8320    -4.4390  O.3     1  <O>11      -0.4186
   4 C1        3.5160   -10.9720    -4.2970  C.ar    1  <O>11       0.1393
   5 C2        3.3415   -11.7645    -3.1601  C.ar    1  <O>11      -0.0184
   6 C3        4.1038   -12.9267    -3.0029  C.ar    1  <O>11      -0.0580
   7 C4        5.0330   -13.2962    -3.9788  C.ar    1  <O>11      -0.0580
   8 C5        5.1925   -12.4966    -5.1157  C.ar    1  <O>11      -0.0380
   9 C6        6.1741   -12.8911    -6.1448  C.3     1  <O>11       0.0172
  10 C7        5.8175   -14.2295    -6.6837  C.ar    1  <O>11       0.0736
  11 N2        4.7957   -14.9717    -6.0838  N.ar    1  <O>11      -0.1750
  12 N3        4.5287   -16.2333    -6.4948  N.ar    1  <O>11      -0.2425
  13 C8        5.2572   -16.7645    -7.5056  C.ar    1  <O>11       0.2725
  14 O2        4.9967   -18.1122    -7.8217  O.2     1  <O>11      -0.2658
  15 C9        6.2268   -16.0519    -8.2259  C.ar    1  <O>11       0.0496
  16 C10       6.9490   -16.5846    -9.3197  C.ar    1  <O>11      -0.0487
  17 C11       7.9252   -15.8301    -9.9728  C.ar    1  <O>11      -0.0610
  18 C12       8.2028   -14.5371    -9.5448  C.ar    1  <O>11      -0.0611
  19 C13       7.5053   -13.9969    -8.4620  C.ar    1  <O>11      -0.0521
  20 C14       6.5075   -14.7434    -7.7938  C.ar    1  <O>11       0.0106
  21 C15       4.4352   -11.3360    -5.2824  C.ar    1  <O>11      -0.0149
  22 H1        5.5553    -9.3586    -5.4064  H       1  <O>11       0.1976
  23 H2        2.5716    -7.9056    -5.8617  H       1  <O>11       0.1591
  24 H3        7.1690   -12.9308    -5.7011  H       1  <O>11       0.0377
  25 H4        6.1668   -12.1591    -6.9527  H       1  <O>11       0.0377
  26 H5        3.7964   -16.7707    -6.0540  H       1  <O>11       0.1921
  27 H6        2.6538   -11.4939    -2.4398  H       1  <O>11       0.0654
  28 H7        3.9795   -13.5135    -2.1630  H       1  <O>11       0.0619
  29 H8        5.5972   -14.1523    -3.8620  H       1  <O>11       0.0620
  30 H9        6.7510   -17.5455    -9.6396  H       1  <O>11       0.0625
  31 H10       8.4399   -16.2317   -10.7721  H       1  <O>11       0.0618
  32 H11       8.9234   -13.9769   -10.0264  H       1  <O>11       0.0618
  33 H12       7.7214   -13.0389    -8.1450  H       1  <O>11       0.0624
  34 H13       4.5537   -10.7529    -6.1256  H       1  <O>11       0.0657
@<TRIPOS>BOND
     1     1     2    2
     2     2     3    1
     3     3     4    1
     4     4     5   ar
     5     5     6   ar
     6     6     7   ar
     7     7     8   ar
     8     8     9    1
     9     9    10    1
    10    10    11   ar
    11    11    12   ar
    12    12    13   ar
    13    13    14    2
    14    13    15   ar
    15    15    16   ar
    16    16    17   ar
    17    17    18   ar
    18    18    19   ar
    19    19    20   ar
    20    10    20   ar
    21    15    20   ar
    22     8    21   ar
    23     4    21   ar
    24     1    22    1
    25     2    23    1
    26     9    24    1
    27     9    25    1
    28    12    26    1
    29     5    27    1
    30     6    28    1
    31     7    29    1
    32    16    30    1
    33    17    31    1
    34    18    32    1
    35    19    33    1
    36    21    34    1
@<TRIPOS>MOLECULE
mol59_1_28
 34 36 0 0 0
SMALL
USER_CHARGES
****
VDW energy = -28.46
@<TRIPOS>ATOM
   1 N1        4.8577    -8.6243    -5.5271  N.2     1  <O>11      -0.2466
   2 S1        3.2917    -9.0153    -5.7244  S.3     1  <O>11       0.0680
   3 O1        2.7770    -9.8320    -4.4390  O.3     1  <O>11      -0.4186
   4 C1        3.5160   -10.9720    -4.2970  C.ar    1  <O>11       0.1393
   5 C2        3.3415   -11.7645    -3.1601  C.ar    1  <O>11      -0.0184
   6 C3        4.1038   -12.9267    -3.0029  C.ar    1  <O>11      -0.0580
   7 C4        5.0330   -13.2962    -3.9788  C.ar    1  <O>11      -0.0580
   8 C5        5.1925   -12.4966    -5.1157  C.ar    1  <O>11      -0.0380
   9 C6        6.1741   -12.8911    -6.1448  C.3     1  <O>11       0.0172
  10 C7        7.4935   -12.2832    -5.8312  C.ar    1  <O>11       0.0736
  11 N2        7.8168   -11.0212    -6.3392  N.ar    1  <O>11      -0.1750
  12 N3        9.0511   -10.4989    -6.1510  N.ar    1  <O>11      -0.2425
  13 C8        9.9675   -11.2102    -5.4519  C.ar    1  <O>11       0.2725
  14 O2       11.2603   -10.6565    -5.3735  O.2     1  <O>11      -0.2658
  15 C9        9.6913   -12.4334    -4.8240  C.ar    1  <O>11       0.0496
  16 C10      10.6287   -13.1513    -4.0446  C.ar    1  <O>11      -0.0487
  17 C11      10.2974   -14.3814    -3.4736  C.ar    1  <O>11      -0.0610
  18 C12       9.0314   -14.9195    -3.6738  C.ar    1  <O>11      -0.0611
  19 C13       8.0952   -14.2288    -4.4464  C.ar    1  <O>11      -0.0521
  20 C14       8.4104   -12.9780    -5.0255  C.ar    1  <O>11       0.0106
  21 C15       4.4352   -11.3360    -5.2824  C.ar    1  <O>11      -0.0149
  22 H1        5.5553    -9.3586    -5.4064  H       1  <O>11       0.1976
  23 H2        2.5716    -7.9056    -5.8617  H       1  <O>11       0.1591
  24 H3        5.8361   -12.5434    -7.1211  H       1  <O>11       0.0377
  25 H4        6.2675   -13.9772    -6.1596  H       1  <O>11       0.0377
  26 H5        9.2851    -9.5913    -6.5265  H       1  <O>11       0.1921
  27 H6        2.6538   -11.4939    -2.4398  H       1  <O>11       0.0654
  28 H7        3.9795   -13.5135    -2.1630  H       1  <O>11       0.0619
  29 H8        5.5972   -14.1523    -3.8620  H       1  <O>11       0.0620
  30 H9       11.5718   -12.7596    -3.8958  H       1  <O>11       0.0625
  31 H10      10.9912   -14.8903    -2.9038  H       1  <O>11       0.0618
  32 H11       8.7837   -15.8282    -3.2521  H       1  <O>11       0.0618
  33 H12       7.1596   -14.6373    -4.5969  H       1  <O>11       0.0624
  34 H13       4.5537   -10.7529    -6.1256  H       1  <O>11       0.0657
@<TRIPOS>BOND
     1     1     2    2
     2     2     3    1
     3     3     4    1
     4     4     5   ar
     5     5     6   ar
     6     6     7   ar
     7     7     8   ar
     8     8     9    1
     9     9    10    1
    10    10    11   ar
    11    11    12   ar
    12    12    13   ar
    13    13    14    2
    14    13    15   ar
    15    15    16   ar
    16    16    17   ar
    17    17    18   ar
    18    18    19   ar
    19    19    20   ar
    20    10    20   ar
    21    15    20   ar
    22     8    21   ar
    23     4    21   ar
    24     1    22    1
    25     2    23    1
    26     9    24    1
    27     9    25    1
    28    12    26    1
    29     5    27    1
    30     6    28    1
    31     7    29    1
    32    16    30    1
    33    17    31    1
    34    18    32    1
    35    19    33    1
    36    21    34    1
@<TRIPOS>MOLECULE
mol59_1_29
 34 36 0 0 0
SMALL
USER_CHARGES
****
VDW energy = -27.02
@<TRIPOS>ATOM
   1 N1        4.8577    -8.6243    -5.5271  N.2     1  <O>11      -0.2466
   2 S1        3.2917    -9.0153    -5.7244  S.3     1  <O>11       0.0680
   3 O1        2.7770    -9.8320    -4.4390  O.3     1  <O>11      -0.4186
   4 C1        3.5160   -10.9720    -4.2970  C.ar    1  <O>11       0.1393
   5 C2        3.3415   -11.7645    -3.1601  C.ar    1  <O>11      -0.0184
   6 C3        4.1038   -12.9267    -3.0029  C.ar    1  <O>11      -0.0580
   7 C4        5.0330   -13.2962    -3.9788  C.ar    1  <O>11      -0.0580
   8 C5        5.1925   -12.4966    -5.1157  C.ar    1  <O>11      -0.0380
   9 C6        6.1741   -12.8911    -6.1448  C.3     1  <O>11       0.0172
  10 C7        5.8175   -14.2295    -6.6837  C.ar    1  <O>11       0.0736
  11 N2        4.9680   -14.3307    -7.7897  N.ar    1  <O>11      -0.1750
  12 N3        4.5499   -15.5409    -8.2282  N.ar    1  <O>11      -0.2425
  13 C8        4.9760   -16.6562    -7.5885  C.ar    1  <O>11       0.2725
  14 O2        4.4301   -17.8769    -8.0311  O.2     1  <O>11      -0.2658
  15 C9        5.9068   -16.6457    -6.5396  C.ar    1  <O>11       0.0496
  16 C10       6.3983   -17.8120    -5.9072  C.ar    1  <O>11      -0.0487
  17 C11       7.3007   -17.7285    -4.8454  C.ar    1  <O>11      -0.0610
  18 C12       7.7236   -16.4843    -4.3920  C.ar    1  <O>11      -0.0611
  19 C13       7.2436   -15.3217    -4.9990  C.ar    1  <O>11      -0.0521
  20 C14       6.3356   -15.3873    -6.0809  C.ar    1  <O>11       0.0106
  21 C15       4.4352   -11.3360    -5.2824  C.ar    1  <O>11      -0.0149
  22 H1        5.5553    -9.3586    -5.4064  H       1  <O>11       0.1976
  23 H2        2.5716    -7.9056    -5.8617  H       1  <O>11       0.1591
  24 H3        7.1690   -12.9308    -5.7011  H       1  <O>11       0.0377
  25 H4        6.1668   -12.1591    -6.9527  H       1  <O>11       0.0377
  26 H5        3.9292   -15.6111    -9.0214  H       1  <O>11       0.1921
  27 H6        2.6538   -11.4939    -2.4398  H       1  <O>11       0.0654
  28 H7        3.9795   -13.5135    -2.1630  H       1  <O>11       0.0619
  29 H8        5.5972   -14.1523    -3.8620  H       1  <O>11       0.0620
  30 H9        6.0849   -18.7387    -6.2360  H       1  <O>11       0.0625
  31 H10       7.6533   -18.5890    -4.3979  H       1  <O>11       0.0618
  32 H11       8.3913   -16.4198    -3.6078  H       1  <O>11       0.0618
  33 H12       7.5562   -14.4012    -4.6528  H       1  <O>11       0.0624
  34 H13       4.5537   -10.7529    -6.1256  H       1  <O>11       0.0657
@<TRIPOS>BOND
     1     1     2    2
     2     2     3    1
     3     3     4    1
     4     4     5   ar
     5     5     6   ar
     6     6     7   ar
     7     7     8   ar
     8     8     9    1
     9     9    10    1
    10    10    11   ar
    11    11    12   ar
    12    12    13   ar
    13    13    14    2
    14    13    15   ar
    15    15    16   ar
    16    16    17   ar
    17    17    18   ar
    18    18    19   ar
    19    19    20   ar
    20    10    20   ar
    21    15    20   ar
    22     8    21   ar
    23     4    21   ar
    24     1    22    1
    25     2    23    1
    26     9    24    1
    27     9    25    1
    28    12    26    1
    29     5    27    1
    30     6    28    1
    31     7    29    1
    32    16    30    1
    33    17    31    1
    34    18    32    1
    35    19    33    1
    36    21    34    1
@<TRIPOS>MOLECULE
mol59_1_30
 34 36 0 0 0
SMALL
USER_CHARGES
****
VDW energy = -23.51
@<TRIPOS>ATOM
   1 N1        4.8577    -8.6243    -5.5271  N.2     1  <O>11      -0.2466
   2 S1        3.2917    -9.0153    -5.7244  S.3     1  <O>11       0.0680
   3 O1        2.7770    -9.8320    -4.4390  O.3     1  <O>11      -0.4186
   4 C1        3.5160   -10.9720    -4.2970  C.ar    1  <O>11       0.1393
   5 C2        3.3415   -11.7645    -3.1601  C.ar    1  <O>11      -0.0184
   6 C3        4.1038   -12.9267    -3.0029  C.ar    1  <O>11      -0.0580
   7 C4        5.0330   -13.2962    -3.9788  C.ar    1  <O>11      -0.0580
   8 C5        5.1925   -12.4966    -5.1157  C.ar    1  <O>11      -0.0380
   9 C6        6.1741   -12.8911    -6.1448  C.3     1  <O>11       0.0172
  10 C7        7.5310   -12.9467    -5.5411  C.ar    1  <O>11       0.0736
  11 N2        8.3395   -11.8059    -5.5398  N.ar    1  <O>11      -0.1750
  12 N3        9.6144   -11.8661    -5.0895  N.ar    1  <O>11      -0.2425
  13 C8       10.0944   -13.0453    -4.6272  C.ar    1  <O>11       0.2725
  14 O2       11.4551   -13.0661    -4.2638  O.2     1  <O>11      -0.2658
  15 C9        9.3186   -14.2066    -4.4997  C.ar    1  <O>11       0.0496
  16 C10       9.8001   -15.4241    -3.9635  C.ar    1  <O>11      -0.0487
  17 C11       8.9823   -16.5533    -3.8953  C.ar    1  <O>11      -0.0610
  18 C12       7.6753   -16.4914    -4.3647  C.ar    1  <O>11      -0.0611
  19 C13       7.1846   -15.3003    -4.9042  C.ar    1  <O>11      -0.0521
  20 C14       7.9959   -14.1443    -4.9737  C.ar    1  <O>11       0.0106
  21 C15       4.4352   -11.3360    -5.2824  C.ar    1  <O>11      -0.0149
  22 H1        5.5553    -9.3586    -5.4064  H       1  <O>11       0.1976
  23 H2        2.5716    -7.9056    -5.8617  H       1  <O>11       0.1591
  24 H3        6.1654   -12.1605    -6.9537  H       1  <O>11       0.0377
  25 H4        5.9106   -13.8723    -6.5402  H       1  <O>11       0.0377
  26 H5       10.1992   -11.0431    -5.0979  H       1  <O>11       0.1921
  27 H6        2.6538   -11.4939    -2.4398  H       1  <O>11       0.0654
  28 H7        3.9795   -13.5135    -2.1630  H       1  <O>11       0.0619
  29 H8        5.5972   -14.1523    -3.8620  H       1  <O>11       0.0620
  30 H9       10.7709   -15.4781    -3.6175  H       1  <O>11       0.0625
  31 H10       9.3474   -17.4326    -3.4971  H       1  <O>11       0.0618
  32 H11       7.0684   -17.3245    -4.3146  H       1  <O>11       0.0618
  33 H12       6.2157   -15.2633    -5.2572  H       1  <O>11       0.0624
  34 H13       4.5537   -10.7529    -6.1256  H       1  <O>11       0.0657
@<TRIPOS>BOND
     1     1     2    2
     2     2     3    1
     3     3     4    1
     4     4     5   ar
     5     5     6   ar
     6     6     7   ar
     7     7     8   ar
     8     8     9    1
     9     9    10    1
    10    10    11   ar
    11    11    12   ar
    12    12    13   ar
    13    13    14    2
    14    13    15   ar
    15    15    16   ar
    16    16    17   ar
    17    17    18   ar
    18    18    19   ar
    19    19    20   ar
    20    10    20   ar
    21    15    20   ar
    22     8    21   ar
    23     4    21   ar
    24     1    22    1
    25     2    23    1
    26     9    24    1
    27     9    25    1
    28    12    26    1
    29     5    27    1
    30     6    28    1
    31     7    29    1
    32    16    30    1
    33    17    31    1
    34    18    32    1
    35    19    33    1
    36    21    34    1
