@<TRIPOS>MOLECULE
mol57_1_1
 34 36 0 0 0
SMALL
USER_CHARGES
****
VDW energy = -82.05
@<TRIPOS>ATOM
   1 C1        2.8832    -9.8059    -4.4252  C.3     1  <O>11      -0.0377
   2 C2        1.4617   -10.1611    -4.6036  C.ar    1  <O>11      -0.0264
   3 C3        0.8050   -10.8783    -3.6012  C.ar    1  <O>11      -0.0569
   4 C4       -0.5391   -11.2290    -3.7692  C.ar    1  <O>11      -0.0614
   5 C5       -1.2224   -10.8607    -4.9311  C.ar    1  <O>11      -0.0598
   6 C6       -0.5527   -10.1366    -5.9237  C.ar    1  <O>11      -0.0374
   7 C7        0.7874    -9.7806    -5.7650  C.ar    1  <O>11       0.0558
   8 N1        1.4480    -9.0580    -6.7440  N.ar    1  <O>11      -0.2434
   9 C8        2.0647    -9.6480    -7.6886  C.ar    1  <O>11       0.1727
  10 C9        2.3024   -10.9298    -8.0929  C.ar    1  <O>11       0.0612
  11 C10       3.4345   -11.6223    -7.6307  C.ar    1  <O>11      -0.0441
  12 C11       3.6829   -12.9305    -8.0543  C.ar    1  <O>11      -0.0193
  13 C12       2.8064   -13.5630    -8.9402  C.ar    1  <O>11       0.1204
  14 O1        3.0330   -14.7729    -9.3377  O.3     1  <O>11      -0.5066
  15 C13       1.6762   -12.8765    -9.3963  C.ar    1  <O>11       0.0220
  16 C14       1.4168   -11.5699    -8.9778  C.ar    1  <O>11       0.1310
  17 O2        0.3685   -10.9375    -9.3952  O.3     1  <O>11      -0.5059
  18 N2        2.5592    -8.6538    -8.3938  N.ar    1  <O>11      -0.1507
  19 N3        2.1738    -7.4710    -7.7818  N.ar    1  <O>11      -0.2260
  20 C15       1.4560    -7.7847    -6.7236  C.ar    1  <O>11       0.3489
  21 O3        0.8109    -7.0015    -5.7476  O.2     1  <O>11      -0.2446
  22 H1        3.2314    -9.2521    -5.2971  H       1  <O>11       0.0278
  23 H2        3.4736   -10.7152    -4.3128  H       1  <O>11       0.0278
  24 H3        2.9942    -9.1880    -3.5342  H       1  <O>11       0.0278
  25 H4        2.3290   -15.0519    -9.9433  H       1  <O>11       0.2921
  26 H5        0.3497   -10.0495    -9.0062  H       1  <O>11       0.2922
  27 H6        2.3562    -6.5085    -8.0245  H       1  <O>11       0.1937
  28 H7        1.3082   -11.1481    -2.7415  H       1  <O>11       0.0621
  29 H8       -1.0275   -11.7615    -3.0324  H       1  <O>11       0.0618
  30 H9       -2.2132   -11.1207    -5.0562  H       1  <O>11       0.0618
  31 H10      -1.0552    -9.8628    -6.7825  H       1  <O>11       0.0638
  32 H11       4.0856   -11.1625    -6.9752  H       1  <O>11       0.0627
  33 H12       4.5173   -13.4318    -7.7114  H       1  <O>11       0.0654
  34 H13       1.0265   -13.3412   -10.0497  H       1  <O>11       0.0691
@<TRIPOS>BOND
     1     1     2    1
     2     2     3   ar
     3     3     4   ar
     4     4     5   ar
     5     5     6   ar
     6     6     7   ar
     7     2     7   ar
     8     7     8    1
     9     8     9   ar
    10     9    10    1
    11    10    11   ar
    12    11    12   ar
    13    12    13   ar
    14    13    14    1
    15    13    15   ar
    16    15    16   ar
    17    10    16   ar
    18    16    17    1
    19     9    18   ar
    20    18    19   ar
    21    19    20   ar
    22     8    20   ar
    23    20    21    2
    24     1    22    1
    25     1    23    1
    26     1    24    1
    27    14    25    1
    28    17    26    1
    29    19    27    1
    30     3    28    1
    31     4    29    1
    32     5    30    1
    33     6    31    1
    34    11    32    1
    35    12    33    1
    36    15    34    1
@<TRIPOS>MOLECULE
mol57_1_2
 34 36 0 0 0
SMALL
USER_CHARGES
****
VDW energy = -82.04
@<TRIPOS>ATOM
   1 C1        2.8832    -9.8059    -4.4252  C.3     1  <O>11      -0.0377
   2 C2        1.4617   -10.1611    -4.6036  C.ar    1  <O>11      -0.0264
   3 C3        0.8050   -10.8783    -3.6012  C.ar    1  <O>11      -0.0569
   4 C4       -0.5391   -11.2290    -3.7692  C.ar    1  <O>11      -0.0614
   5 C5       -1.2224   -10.8607    -4.9311  C.ar    1  <O>11      -0.0598
   6 C6       -0.5527   -10.1366    -5.9237  C.ar    1  <O>11      -0.0374
   7 C7        0.7874    -9.7806    -5.7650  C.ar    1  <O>11       0.0558
   8 N1        1.4480    -9.0580    -6.7440  N.ar    1  <O>11      -0.2434
   9 C8        1.4556    -7.7851    -6.7246  C.ar    1  <O>11       0.1727
  10 C9        0.9605    -6.7848    -5.9389  C.ar    1  <O>11       0.0612
  11 C10       1.7185    -6.2811    -4.8681  C.ar    1  <O>11      -0.0441
  12 C11       1.2059    -5.2649    -4.0574  C.ar    1  <O>11      -0.0193
  13 C12      -0.0648    -4.7387    -4.3056  C.ar    1  <O>11       0.1204
  14 O1       -0.5453    -3.7999    -3.5566  O.3     1  <O>11      -0.5066
  15 C13      -0.8176    -5.2354    -5.3747  C.ar    1  <O>11       0.0220
  16 C14      -0.3145    -6.2490    -6.1927  C.ar    1  <O>11       0.1310
  17 O2       -1.0085    -6.7040    -7.1849  O.3     1  <O>11      -0.5059
  18 N2        2.1572    -7.4710    -7.7920  N.ar    1  <O>11      -0.1507
  19 N3        2.5433    -8.6530    -8.4050  N.ar    1  <O>11      -0.2260
  20 C15       2.0641    -9.6487    -7.6892  C.ar    1  <O>11       0.3489
  21 O3        2.1469   -11.0469    -7.8320  O.2     1  <O>11      -0.2446
  22 H1        3.2314    -9.2521    -5.2971  H       1  <O>11       0.0278
  23 H2        3.4736   -10.7152    -4.3128  H       1  <O>11       0.0278
  24 H3        2.9942    -9.1880    -3.5342  H       1  <O>11       0.0278
  25 H4       -1.4297    -3.5560    -3.8705  H       1  <O>11       0.2921
  26 H5       -0.5076    -7.3993    -7.6387  H       1  <O>11       0.2922
  27 H6        3.0870    -8.8212    -9.2384  H       1  <O>11       0.1937
  28 H7        1.3082   -11.1481    -2.7415  H       1  <O>11       0.0621
  29 H8       -1.0275   -11.7615    -3.0324  H       1  <O>11       0.0618
  30 H9       -2.2132   -11.1207    -5.0562  H       1  <O>11       0.0618
  31 H10      -1.0552    -9.8628    -6.7825  H       1  <O>11       0.0638
  32 H11       2.6582    -6.6636    -4.6795  H       1  <O>11       0.0627
  33 H12       1.7682    -4.9015    -3.2721  H       1  <O>11       0.0654
  34 H13      -1.7558    -4.8482    -5.5612  H       1  <O>11       0.0691
@<TRIPOS>BOND
     1     1     2    1
     2     2     3   ar
     3     3     4   ar
     4     4     5   ar
     5     5     6   ar
     6     6     7   ar
     7     2     7   ar
     8     7     8    1
     9     8     9   ar
    10     9    10    1
    11    10    11   ar
    12    11    12   ar
    13    12    13   ar
    14    13    14    1
    15    13    15   ar
    16    15    16   ar
    17    10    16   ar
    18    16    17    1
    19     9    18   ar
    20    18    19   ar
    21    19    20   ar
    22     8    20   ar
    23    20    21    2
    24     1    22    1
    25     1    23    1
    26     1    24    1
    27    14    25    1
    28    17    26    1
    29    19    27    1
    30     3    28    1
    31     4    29    1
    32     5    30    1
    33     6    31    1
    34    11    32    1
    35    12    33    1
    36    15    34    1
@<TRIPOS>MOLECULE
mol57_1_3
 34 36 0 0 0
SMALL
USER_CHARGES
****
VDW energy = -77.69
@<TRIPOS>ATOM
   1 C1        2.8832    -9.8059    -4.4252  C.3     1  <O>11      -0.0377
   2 C2        1.4617   -10.1611    -4.6036  C.ar    1  <O>11      -0.0264
   3 C3        0.8050   -10.8783    -3.6012  C.ar    1  <O>11      -0.0569
   4 C4       -0.5391   -11.2290    -3.7692  C.ar    1  <O>11      -0.0614
   5 C5       -1.2224   -10.8607    -4.9311  C.ar    1  <O>11      -0.0598
   6 C6       -0.5527   -10.1366    -5.9237  C.ar    1  <O>11      -0.0374
   7 C7        0.7874    -9.7806    -5.7650  C.ar    1  <O>11       0.0558
   8 N1        1.4480    -9.0580    -6.7440  N.ar    1  <O>11      -0.2434
   9 C8        1.4556    -7.7851    -6.7246  C.ar    1  <O>11       0.1727
  10 C9        0.9605    -6.7848    -5.9389  C.ar    1  <O>11       0.0612
  11 C10      -0.3129    -6.2468    -6.1917  C.ar    1  <O>11      -0.0441
  12 C11      -0.8139    -5.2150    -5.3938  C.ar    1  <O>11      -0.0193
  13 C12      -0.0537    -4.7097    -4.3355  C.ar    1  <O>11       0.1204
  14 O1       -0.5115    -3.7526    -3.5954  O.3     1  <O>11      -0.5066
  15 C13       1.2116    -5.2485    -4.0795  C.ar    1  <O>11       0.0220
  16 C14       1.7212    -6.2813    -4.8689  C.ar    1  <O>11       0.1310
  17 O2        2.8888    -6.7832    -4.6283  O.3     1  <O>11      -0.5059
  18 N2        2.1572    -7.4710    -7.7920  N.ar    1  <O>11      -0.1507
  19 N3        2.5433    -8.6530    -8.4050  N.ar    1  <O>11      -0.2260
  20 C15       2.0641    -9.6487    -7.6892  C.ar    1  <O>11       0.3489
  21 O3        2.1469   -11.0469    -7.8320  O.2     1  <O>11      -0.2446
  22 H1        3.2314    -9.2521    -5.2971  H       1  <O>11       0.0278
  23 H2        3.4736   -10.7152    -4.3128  H       1  <O>11       0.0278
  24 H3        2.9942    -9.1880    -3.5342  H       1  <O>11       0.0278
  25 H4        0.1417    -3.5293    -2.9144  H       1  <O>11       0.2921
  26 H5        3.0788    -7.4840    -5.2710  H       1  <O>11       0.2922
  27 H6        3.0870    -8.8212    -9.2384  H       1  <O>11       0.1937
  28 H7        1.3082   -11.1481    -2.7415  H       1  <O>11       0.0621
  29 H8       -1.0275   -11.7615    -3.0324  H       1  <O>11       0.0618
  30 H9       -2.2132   -11.1207    -5.0562  H       1  <O>11       0.0618
  31 H10      -1.0552    -9.8628    -6.7825  H       1  <O>11       0.0638
  32 H11      -0.8808    -6.6157    -6.9704  H       1  <O>11       0.0627
  33 H12      -1.7494    -4.8243    -5.5867  H       1  <O>11       0.0654
  34 H13       1.7749    -4.8782    -3.2982  H       1  <O>11       0.0691
@<TRIPOS>BOND
     1     1     2    1
     2     2     3   ar
     3     3     4   ar
     4     4     5   ar
     5     5     6   ar
     6     6     7   ar
     7     2     7   ar
     8     7     8    1
     9     8     9   ar
    10     9    10    1
    11    10    11   ar
    12    11    12   ar
    13    12    13   ar
    14    13    14    1
    15    13    15   ar
    16    15    16   ar
    17    10    16   ar
    18    16    17    1
    19     9    18   ar
    20    18    19   ar
    21    19    20   ar
    22     8    20   ar
    23    20    21    2
    24     1    22    1
    25     1    23    1
    26     1    24    1
    27    14    25    1
    28    17    26    1
    29    19    27    1
    30     3    28    1
    31     4    29    1
    32     5    30    1
    33     6    31    1
    34    11    32    1
    35    12    33    1
    36    15    34    1
@<TRIPOS>MOLECULE
mol57_1_4
 34 36 0 0 0
SMALL
USER_CHARGES
****
VDW energy = -77.42
@<TRIPOS>ATOM
   1 C1        2.8832    -9.8059    -4.4252  C.3     1  <O>11      -0.0377
   2 C2        1.4617   -10.1611    -4.6036  C.ar    1  <O>11      -0.0264
   3 C3        0.8050   -10.8783    -3.6012  C.ar    1  <O>11      -0.0569
   4 C4       -0.5391   -11.2290    -3.7692  C.ar    1  <O>11      -0.0614
   5 C5       -1.2224   -10.8607    -4.9311  C.ar    1  <O>11      -0.0598
   6 C6       -0.5527   -10.1366    -5.9237  C.ar    1  <O>11      -0.0374
   7 C7        0.7874    -9.7806    -5.7650  C.ar    1  <O>11       0.0558
   8 N1        1.4480    -9.0580    -6.7440  N.ar    1  <O>11      -0.2434
   9 C8        2.0647    -9.6480    -7.6886  C.ar    1  <O>11       0.1727
  10 C9        2.3024   -10.9298    -8.0929  C.ar    1  <O>11       0.0612
  11 C10       1.4179   -11.5720    -8.9761  C.ar    1  <O>11      -0.0441
  12 C11       1.6562   -12.8881    -9.3803  C.ar    1  <O>11      -0.0193
  13 C12       2.7779   -13.5774    -8.9113  C.ar    1  <O>11       0.1204
  14 O1        3.0018   -14.7969    -9.2801  O.3     1  <O>11      -0.5066
  15 C13       3.6620   -12.9371    -8.0367  C.ar    1  <O>11       0.0220
  16 C14       3.4350   -11.6214    -7.6280  C.ar    1  <O>11       0.1310
  17 O2        4.2559   -11.0276    -6.8239  O.3     1  <O>11      -0.5059
  18 N2        2.5592    -8.6538    -8.3938  N.ar    1  <O>11      -0.1507
  19 N3        2.1738    -7.4710    -7.7818  N.ar    1  <O>11      -0.2260
  20 C15       1.4560    -7.7847    -6.7236  C.ar    1  <O>11       0.3489
  21 O3        0.8109    -7.0015    -5.7476  O.2     1  <O>11      -0.2446
  22 H1        3.2314    -9.2521    -5.2971  H       1  <O>11       0.0278
  23 H2        3.4736   -10.7152    -4.3128  H       1  <O>11       0.0278
  24 H3        2.9942    -9.1880    -3.5342  H       1  <O>11       0.0278
  25 H4        3.8168   -15.1167    -8.8633  H       1  <O>11       0.2921
  26 H5        3.9430   -10.1267    -6.6487  H       1  <O>11       0.2922
  27 H6        2.3562    -6.5085    -8.0245  H       1  <O>11       0.1937
  28 H7        1.3082   -11.1481    -2.7415  H       1  <O>11       0.0621
  29 H8       -1.0275   -11.7615    -3.0324  H       1  <O>11       0.0618
  30 H9       -2.2132   -11.1207    -5.0562  H       1  <O>11       0.0618
  31 H10      -1.0552    -9.8628    -6.7825  H       1  <O>11       0.0638
  32 H11       0.5882   -11.0690    -9.3279  H       1  <O>11       0.0627
  33 H12       1.0011   -13.3532   -10.0280  H       1  <O>11       0.0654
  34 H13       4.4917   -13.4430    -7.6894  H       1  <O>11       0.0691
@<TRIPOS>BOND
     1     1     2    1
     2     2     3   ar
     3     3     4   ar
     4     4     5   ar
     5     5     6   ar
     6     6     7   ar
     7     2     7   ar
     8     7     8    1
     9     8     9   ar
    10     9    10    1
    11    10    11   ar
    12    11    12   ar
    13    12    13   ar
    14    13    14    1
    15    13    15   ar
    16    15    16   ar
    17    10    16   ar
    18    16    17    1
    19     9    18   ar
    20    18    19   ar
    21    19    20   ar
    22     8    20   ar
    23    20    21    2
    24     1    22    1
    25     1    23    1
    26     1    24    1
    27    14    25    1
    28    17    26    1
    29    19    27    1
    30     3    28    1
    31     4    29    1
    32     5    30    1
    33     6    31    1
    34    11    32    1
    35    12    33    1
    36    15    34    1
@<TRIPOS>MOLECULE
mol57_1_5
 34 36 0 0 0
SMALL
USER_CHARGES
****
VDW energy = -71.44
@<TRIPOS>ATOM
   1 C1        2.8832    -9.8059    -4.4252  C.3     1  <O>11      -0.0377
   2 C2        1.4617   -10.1611    -4.6036  C.ar    1  <O>11      -0.0264
   3 C3        0.8050   -10.8783    -3.6012  C.ar    1  <O>11      -0.0569
   4 C4       -0.5391   -11.2290    -3.7692  C.ar    1  <O>11      -0.0614
   5 C5       -1.2224   -10.8607    -4.9311  C.ar    1  <O>11      -0.0598
   6 C6       -0.5527   -10.1366    -5.9237  C.ar    1  <O>11      -0.0374
   7 C7        0.7874    -9.7806    -5.7650  C.ar    1  <O>11       0.0558
   8 N1        1.4480    -9.0580    -6.7440  N.ar    1  <O>11      -0.2434
   9 C8        1.4556    -7.7851    -6.7246  C.ar    1  <O>11       0.1727
  10 C9        0.9605    -6.7848    -5.9389  C.ar    1  <O>11       0.0612
  11 C10       1.8298    -5.8665    -5.3258  C.ar    1  <O>11      -0.0441
  12 C11       1.3226    -4.8498    -4.5125  C.ar    1  <O>11      -0.0193
  13 C12      -0.0544    -4.7357    -4.3029  C.ar    1  <O>11       0.1204
  14 O1       -0.5291    -3.7980    -3.5487  O.3     1  <O>11      -0.5066
  15 C13      -0.9209    -5.6457    -4.9174  C.ar    1  <O>11       0.0220
  16 C14      -0.4253    -6.6641    -5.7340  C.ar    1  <O>11       0.1310
  17 O2       -1.2273    -7.5019    -6.3068  O.3     1  <O>11      -0.5059
  18 N2        2.1572    -7.4710    -7.7920  N.ar    1  <O>11      -0.1507
  19 N3        2.5433    -8.6530    -8.4050  N.ar    1  <O>11      -0.2260
  20 C15       2.0641    -9.6487    -7.6892  C.ar    1  <O>11       0.3489
  21 O3        2.1469   -11.0469    -7.8320  O.2     1  <O>11      -0.2446
  22 H1        3.2314    -9.2521    -5.2971  H       1  <O>11       0.0278
  23 H2        3.4736   -10.7152    -4.3128  H       1  <O>11       0.0278
  24 H3        2.9942    -9.1880    -3.5342  H       1  <O>11       0.0278
  25 H4       -1.4957    -3.8670    -3.5162  H       1  <O>11       0.2921
  26 H5       -0.7133    -8.1357    -6.8306  H       1  <O>11       0.2922
  27 H6        3.0870    -8.8212    -9.2384  H       1  <O>11       0.1937
  28 H7        1.3082   -11.1481    -2.7415  H       1  <O>11       0.0621
  29 H8       -1.0275   -11.7615    -3.0324  H       1  <O>11       0.0618
  30 H9       -2.2132   -11.1207    -5.0562  H       1  <O>11       0.0618
  31 H10      -1.0552    -9.8628    -6.7825  H       1  <O>11       0.0638
  32 H11       2.8478    -5.9434    -5.4770  H       1  <O>11       0.0627
  33 H12       1.9677    -4.1802    -4.0647  H       1  <O>11       0.0654
  34 H13      -1.9383    -5.5635    -4.7654  H       1  <O>11       0.0691
@<TRIPOS>BOND
     1     1     2    1
     2     2     3   ar
     3     3     4   ar
     4     4     5   ar
     5     5     6   ar
     6     6     7   ar
     7     2     7   ar
     8     7     8    1
     9     8     9   ar
    10     9    10    1
    11    10    11   ar
    12    11    12   ar
    13    12    13   ar
    14    13    14    1
    15    13    15   ar
    16    15    16   ar
    17    10    16   ar
    18    16    17    1
    19     9    18   ar
    20    18    19   ar
    21    19    20   ar
    22     8    20   ar
    23    20    21    2
    24     1    22    1
    25     1    23    1
    26     1    24    1
    27    14    25    1
    28    17    26    1
    29    19    27    1
    30     3    28    1
    31     4    29    1
    32     5    30    1
    33     6    31    1
    34    11    32    1
    35    12    33    1
    36    15    34    1
@<TRIPOS>MOLECULE
mol57_1_6
 34 36 0 0 0
SMALL
USER_CHARGES
****
VDW energy = -70.59
@<TRIPOS>ATOM
   1 C1        2.8832    -9.8059    -4.4252  C.3     1  <O>11      -0.0377
   2 C2        1.4617   -10.1611    -4.6036  C.ar    1  <O>11      -0.0264
   3 C3        0.8050   -10.8783    -3.6012  C.ar    1  <O>11      -0.0569
   4 C4       -0.5391   -11.2290    -3.7692  C.ar    1  <O>11      -0.0614
   5 C5       -1.2224   -10.8607    -4.9311  C.ar    1  <O>11      -0.0598
   6 C6       -0.5527   -10.1366    -5.9237  C.ar    1  <O>11      -0.0374
   7 C7        0.7874    -9.7806    -5.7650  C.ar    1  <O>11       0.0558
   8 N1        1.4480    -9.0580    -6.7440  N.ar    1  <O>11      -0.2434
   9 C8        2.0647    -9.6480    -7.6886  C.ar    1  <O>11       0.1727
  10 C9        2.3024   -10.9298    -8.0929  C.ar    1  <O>11       0.0612
  11 C10       3.6190   -11.4110    -8.1921  C.ar    1  <O>11      -0.0441
  12 C11       3.8616   -12.7199    -8.6171  C.ar    1  <O>11      -0.0193
  13 C12       2.7966   -13.5631    -8.9456  C.ar    1  <O>11       0.1204
  14 O1        3.0156   -14.7747    -9.3422  O.3     1  <O>11      -0.5066
  15 C13       1.4856   -13.0868    -8.8416  C.ar    1  <O>11       0.0220
  16 C14       1.2313   -11.7816    -8.4158  C.ar    1  <O>11       0.1310
  17 O2        0.0186   -11.3434    -8.3142  O.3     1  <O>11      -0.5059
  18 N2        2.5592    -8.6538    -8.3938  N.ar    1  <O>11      -0.1507
  19 N3        2.1738    -7.4710    -7.7818  N.ar    1  <O>11      -0.2260
  20 C15       1.4560    -7.7847    -6.7236  C.ar    1  <O>11       0.3489
  21 O3        0.8109    -7.0015    -5.7476  O.2     1  <O>11      -0.2446
  22 H1        3.2314    -9.2521    -5.2971  H       1  <O>11       0.0278
  23 H2        3.4736   -10.7152    -4.3128  H       1  <O>11       0.0278
  24 H3        2.9942    -9.1880    -3.5342  H       1  <O>11       0.0278
  25 H4        2.1704   -15.2135    -9.5245  H       1  <O>11       0.2921
  26 H5        0.0312   -10.4234    -8.0080  H       1  <O>11       0.2922
  27 H6        2.3562    -6.5085    -8.0245  H       1  <O>11       0.1937
  28 H7        1.3082   -11.1481    -2.7415  H       1  <O>11       0.0621
  29 H8       -1.0275   -11.7615    -3.0324  H       1  <O>11       0.0618
  30 H9       -2.2132   -11.1207    -5.0562  H       1  <O>11       0.0618
  31 H10      -1.0552    -9.8628    -6.7825  H       1  <O>11       0.0638
  32 H11       4.4106   -10.7948    -7.9498  H       1  <O>11       0.0627
  33 H12       4.8314   -13.0653    -8.6887  H       1  <O>11       0.0654
  34 H13       0.6970   -13.7074    -9.0825  H       1  <O>11       0.0691
@<TRIPOS>BOND
     1     1     2    1
     2     2     3   ar
     3     3     4   ar
     4     4     5   ar
     5     5     6   ar
     6     6     7   ar
     7     2     7   ar
     8     7     8    1
     9     8     9   ar
    10     9    10    1
    11    10    11   ar
    12    11    12   ar
    13    12    13   ar
    14    13    14    1
    15    13    15   ar
    16    15    16   ar
    17    10    16   ar
    18    16    17    1
    19     9    18   ar
    20    18    19   ar
    21    19    20   ar
    22     8    20   ar
    23    20    21    2
    24     1    22    1
    25     1    23    1
    26     1    24    1
    27    14    25    1
    28    17    26    1
    29    19    27    1
    30     3    28    1
    31     4    29    1
    32     5    30    1
    33     6    31    1
    34    11    32    1
    35    12    33    1
    36    15    34    1
@<TRIPOS>MOLECULE
mol57_1_7
 34 36 0 0 0
SMALL
USER_CHARGES
****
VDW energy = -68.18
@<TRIPOS>ATOM
   1 C1        2.8832    -9.8059    -4.4252  C.3     1  <O>11      -0.0377
   2 C2        1.4617   -10.1611    -4.6036  C.ar    1  <O>11      -0.0264
   3 C3        0.8050   -10.8783    -3.6012  C.ar    1  <O>11      -0.0569
   4 C4       -0.5391   -11.2290    -3.7692  C.ar    1  <O>11      -0.0614
   5 C5       -1.2224   -10.8607    -4.9311  C.ar    1  <O>11      -0.0598
   6 C6       -0.5527   -10.1366    -5.9237  C.ar    1  <O>11      -0.0374
   7 C7        0.7874    -9.7806    -5.7650  C.ar    1  <O>11       0.0558
   8 N1        1.4480    -9.0580    -6.7440  N.ar    1  <O>11      -0.2434
   9 C8        1.9515    -7.9172    -6.4875  C.ar    1  <O>11       0.1727
  10 C9        2.0642    -7.0822    -5.4137  C.ar    1  <O>11       0.0612
  11 C10       3.3311    -6.7083    -4.9342  C.ar    1  <O>11      -0.0441
  12 C11       3.4453    -5.8625    -3.8278  C.ar    1  <O>11      -0.0193
  13 C12       2.3001    -5.3790    -3.1890  C.ar    1  <O>11       0.1204
  14 O1        2.4000    -4.5980    -2.1627  O.3     1  <O>11      -0.5066
  15 C13       1.0386    -5.7459    -3.6692  C.ar    1  <O>11       0.0220
  16 C14       0.9126    -6.5886    -4.7754  C.ar    1  <O>11       0.1310
  17 O2       -0.2541    -6.9230    -5.2228  O.3     1  <O>11      -0.5059
  18 N2        2.4717    -7.5509    -7.6388  N.ar    1  <O>11      -0.1507
  19 N3        2.2283    -8.5648    -8.5524  N.ar    1  <O>11      -0.2260
  20 C15       1.5678    -9.5162    -7.9262  C.ar    1  <O>11       0.3489
  21 O3        1.0703   -10.7635    -8.3492  O.2     1  <O>11      -0.2446
  22 H1        3.2314    -9.2521    -5.2971  H       1  <O>11       0.0278
  23 H2        3.4736   -10.7152    -4.3128  H       1  <O>11       0.0278
  24 H3        2.9942    -9.1880    -3.5342  H       1  <O>11       0.0278
  25 H4        1.5137    -4.3601    -1.8495  H       1  <O>11       0.2921
  26 H5       -0.1516    -7.5087    -5.9887  H       1  <O>11       0.2922
  27 H6        2.4708    -8.6507    -9.5283  H       1  <O>11       0.1937
  28 H7        1.3082   -11.1481    -2.7415  H       1  <O>11       0.0621
  29 H8       -1.0275   -11.7615    -3.0324  H       1  <O>11       0.0618
  30 H9       -2.2132   -11.1207    -5.0562  H       1  <O>11       0.0618
  31 H10      -1.0552    -9.8628    -6.7825  H       1  <O>11       0.0638
  32 H11       4.1814    -7.0601    -5.4014  H       1  <O>11       0.0627
  33 H12       4.3792    -5.5938    -3.4808  H       1  <O>11       0.0654
  34 H13       0.1911    -5.3897    -3.2004  H       1  <O>11       0.0691
@<TRIPOS>BOND
     1     1     2    1
     2     2     3   ar
     3     3     4   ar
     4     4     5   ar
     5     5     6   ar
     6     6     7   ar
     7     2     7   ar
     8     7     8    1
     9     8     9   ar
    10     9    10    1
    11    10    11   ar
    12    11    12   ar
    13    12    13   ar
    14    13    14    1
    15    13    15   ar
    16    15    16   ar
    17    10    16   ar
    18    16    17    1
    19     9    18   ar
    20    18    19   ar
    21    19    20   ar
    22     8    20   ar
    23    20    21    2
    24     1    22    1
    25     1    23    1
    26     1    24    1
    27    14    25    1
    28    17    26    1
    29    19    27    1
    30     3    28    1
    31     4    29    1
    32     5    30    1
    33     6    31    1
    34    11    32    1
    35    12    33    1
    36    15    34    1
@<TRIPOS>MOLECULE
mol57_1_8
 34 36 0 0 0
SMALL
USER_CHARGES
****
VDW energy = -67.19
@<TRIPOS>ATOM
   1 C1        2.8832    -9.8059    -4.4252  C.3     1  <O>11      -0.0377
   2 C2        1.4617   -10.1611    -4.6036  C.ar    1  <O>11      -0.0264
   3 C3        0.8050   -10.8783    -3.6012  C.ar    1  <O>11      -0.0569
   4 C4       -0.5391   -11.2290    -3.7692  C.ar    1  <O>11      -0.0614
   5 C5       -1.2224   -10.8607    -4.9311  C.ar    1  <O>11      -0.0598
   6 C6       -0.5527   -10.1366    -5.9237  C.ar    1  <O>11      -0.0374
   7 C7        0.7874    -9.7806    -5.7650  C.ar    1  <O>11       0.0558
   8 N1        1.4480    -9.0580    -6.7440  N.ar    1  <O>11      -0.2434
   9 C8        2.4790    -9.5305    -7.3223  C.ar    1  <O>11       0.1727
  10 C9        3.2263   -10.6719    -7.2791  C.ar    1  <O>11       0.0612
  11 C10       4.5911   -10.6155    -6.9490  C.ar    1  <O>11      -0.0441
  12 C11       5.3578   -11.7833    -6.9162  C.ar    1  <O>11      -0.0193
  13 C12       4.7735   -13.0185    -7.2096  C.ar    1  <O>11       0.1204
  14 O1        5.4793   -14.1023    -7.1835  O.3     1  <O>11      -0.5066
  15 C13       3.4138   -13.0763    -7.5327  C.ar    1  <O>11       0.0220
  16 C14       2.6376   -11.9161    -7.5662  C.ar    1  <O>11       0.1310
  17 O2        1.3789   -11.9706    -7.8592  O.3     1  <O>11      -0.5059
  18 N2        2.8199    -8.5753    -8.1599  N.ar    1  <O>11      -0.1507
  19 N3        1.9083    -7.5412    -8.0128  N.ar    1  <O>11      -0.2260
  20 C15       1.0412    -7.9018    -7.0900  C.ar    1  <O>11       0.3489
  21 O3       -0.0867    -7.2600    -6.5441  O.2     1  <O>11      -0.2446
  22 H1        3.2314    -9.2521    -5.2971  H       1  <O>11       0.0278
  23 H2        3.4736   -10.7152    -4.3128  H       1  <O>11       0.0278
  24 H3        2.9942    -9.1880    -3.5342  H       1  <O>11       0.0278
  25 H4        4.9177   -14.8598    -7.4096  H       1  <O>11       0.2921
  26 H5        1.0020   -11.0775    -7.8357  H       1  <O>11       0.2922
  27 H6        1.8380    -6.6478    -8.4771  H       1  <O>11       0.1937
  28 H7        1.3082   -11.1481    -2.7415  H       1  <O>11       0.0621
  29 H8       -1.0275   -11.7615    -3.0324  H       1  <O>11       0.0618
  30 H9       -2.2132   -11.1207    -5.0562  H       1  <O>11       0.0618
  31 H10      -1.0552    -9.8628    -6.7825  H       1  <O>11       0.0638
  32 H11       5.0293    -9.7073    -6.7297  H       1  <O>11       0.0627
  33 H12       6.3597   -11.7334    -6.6743  H       1  <O>11       0.0654
  34 H13       2.9793   -13.9870    -7.7488  H       1  <O>11       0.0691
@<TRIPOS>BOND
     1     1     2    1
     2     2     3   ar
     3     3     4   ar
     4     4     5   ar
     5     5     6   ar
     6     6     7   ar
     7     2     7   ar
     8     7     8    1
     9     8     9   ar
    10     9    10    1
    11    10    11   ar
    12    11    12   ar
    13    12    13   ar
    14    13    14    1
    15    13    15   ar
    16    15    16   ar
    17    10    16   ar
    18    16    17    1
    19     9    18   ar
    20    18    19   ar
    21    19    20   ar
    22     8    20   ar
    23    20    21    2
    24     1    22    1
    25     1    23    1
    26     1    24    1
    27    14    25    1
    28    17    26    1
    29    19    27    1
    30     3    28    1
    31     4    29    1
    32     5    30    1
    33     6    31    1
    34    11    32    1
    35    12    33    1
    36    15    34    1
@<TRIPOS>MOLECULE
mol57_1_9
 34 36 0 0 0
SMALL
USER_CHARGES
****
VDW energy = -60.90
@<TRIPOS>ATOM
   1 C1        2.8832    -9.8059    -4.4252  C.3     1  <O>11      -0.0377
   2 C2        1.4617   -10.1611    -4.6036  C.ar    1  <O>11      -0.0264
   3 C3        0.8050   -10.8783    -3.6012  C.ar    1  <O>11      -0.0569
   4 C4       -0.5391   -11.2290    -3.7692  C.ar    1  <O>11      -0.0614
   5 C5       -1.2224   -10.8607    -4.9311  C.ar    1  <O>11      -0.0598
   6 C6       -0.5527   -10.1366    -5.9237  C.ar    1  <O>11      -0.0374
   7 C7        0.7874    -9.7806    -5.7650  C.ar    1  <O>11       0.0558
   8 N1        1.4480    -9.0580    -6.7440  N.ar    1  <O>11      -0.2434
   9 C8        1.4556    -7.7851    -6.7246  C.ar    1  <O>11       0.1727
  10 C9        0.9605    -6.7848    -5.9389  C.ar    1  <O>11       0.0612
  11 C10      -0.3035    -6.9125    -5.3383  C.ar    1  <O>11      -0.0441
  12 C11      -0.8141    -5.8829    -4.5435  C.ar    1  <O>11      -0.0193
  13 C12      -0.0713    -4.7173    -4.3370  C.ar    1  <O>11       0.1204
  14 O1       -0.5404    -3.7599    -3.6044  O.3     1  <O>11      -0.5066
  15 C13       1.1894    -4.5917    -4.9297  C.ar    1  <O>11       0.0220
  16 C14       1.7106    -5.6150    -5.7239  C.ar    1  <O>11       0.1310
  17 O2        2.8789    -5.5010    -6.2670  O.3     1  <O>11      -0.5059
  18 N2        2.1572    -7.4710    -7.7920  N.ar    1  <O>11      -0.1507
  19 N3        2.5433    -8.6530    -8.4050  N.ar    1  <O>11      -0.2260
  20 C15       2.0641    -9.6487    -7.6892  C.ar    1  <O>11       0.3489
  21 O3        2.1469   -11.0469    -7.8320  O.2     1  <O>11      -0.2446
  22 H1        3.2314    -9.2521    -5.2971  H       1  <O>11       0.0278
  23 H2        3.4736   -10.7152    -4.3128  H       1  <O>11       0.0278
  24 H3        2.9942    -9.1880    -3.5342  H       1  <O>11       0.0278
  25 H4        0.1023    -3.0348    -3.5688  H       1  <O>11       0.2921
  26 H5        3.0768    -6.2995    -6.7803  H       1  <O>11       0.2922
  27 H6        3.0870    -8.8212    -9.2384  H       1  <O>11       0.1937
  28 H7        1.3082   -11.1481    -2.7415  H       1  <O>11       0.0621
  29 H8       -1.0275   -11.7615    -3.0324  H       1  <O>11       0.0618
  30 H9       -2.2132   -11.1207    -5.0562  H       1  <O>11       0.0618
  31 H10      -1.0552    -9.8628    -6.7825  H       1  <O>11       0.0638
  32 H11      -0.8573    -7.7709    -5.4849  H       1  <O>11       0.0627
  33 H12      -1.7438    -5.9838    -4.1070  H       1  <O>11       0.0654
  34 H13       1.7408    -3.7326    -4.7783  H       1  <O>11       0.0691
@<TRIPOS>BOND
     1     1     2    1
     2     2     3   ar
     3     3     4   ar
     4     4     5   ar
     5     5     6   ar
     6     6     7   ar
     7     2     7   ar
     8     7     8    1
     9     8     9   ar
    10     9    10    1
    11    10    11   ar
    12    11    12   ar
    13    12    13   ar
    14    13    14    1
    15    13    15   ar
    16    15    16   ar
    17    10    16   ar
    18    16    17    1
    19     9    18   ar
    20    18    19   ar
    21    19    20   ar
    22     8    20   ar
    23    20    21    2
    24     1    22    1
    25     1    23    1
    26     1    24    1
    27    14    25    1
    28    17    26    1
    29    19    27    1
    30     3    28    1
    31     4    29    1
    32     5    30    1
    33     6    31    1
    34    11    32    1
    35    12    33    1
    36    15    34    1
@<TRIPOS>MOLECULE
mol57_1_10
 34 36 0 0 0
SMALL
USER_CHARGES
****
VDW energy = -59.89
@<TRIPOS>ATOM
   1 C1        2.8832    -9.8059    -4.4252  C.3     1  <O>11      -0.0377
   2 C2        1.4617   -10.1611    -4.6036  C.ar    1  <O>11      -0.0264
   3 C3        0.8050   -10.8783    -3.6012  C.ar    1  <O>11      -0.0569
   4 C4       -0.5391   -11.2290    -3.7692  C.ar    1  <O>11      -0.0614
   5 C5       -1.2224   -10.8607    -4.9311  C.ar    1  <O>11      -0.0598
   6 C6       -0.5527   -10.1366    -5.9237  C.ar    1  <O>11      -0.0374
   7 C7        0.7874    -9.7806    -5.7650  C.ar    1  <O>11       0.0558
   8 N1        1.4480    -9.0580    -6.7440  N.ar    1  <O>11      -0.2434
   9 C8        2.0647    -9.6480    -7.6886  C.ar    1  <O>11       0.1727
  10 C9        2.3024   -10.9298    -8.0929  C.ar    1  <O>11       0.0612
  11 C10       2.5221   -11.9445    -7.1458  C.ar    1  <O>11      -0.0441
  12 C11       2.7767   -13.2541    -7.5612  C.ar    1  <O>11      -0.0193
  13 C12       2.8132   -13.5672    -8.9227  C.ar    1  <O>11       0.1204
  14 O1        3.0513   -14.7774    -9.3128  O.3     1  <O>11      -0.5066
  15 C13       2.5890   -12.5591    -9.8660  C.ar    1  <O>11       0.0220
  16 C14       2.3314   -11.2475    -9.4623  C.ar    1  <O>11       0.1310
  17 O2        2.1182   -10.3167   -10.3348  O.3     1  <O>11      -0.5059
  18 N2        2.5592    -8.6538    -8.3938  N.ar    1  <O>11      -0.1507
  19 N3        2.1738    -7.4710    -7.7818  N.ar    1  <O>11      -0.2260
  20 C15       1.4560    -7.7847    -6.7236  C.ar    1  <O>11       0.3489
  21 O3        0.8109    -7.0015    -5.7476  O.2     1  <O>11      -0.2446
  22 H1        3.2314    -9.2521    -5.2971  H       1  <O>11       0.0278
  23 H2        3.4736   -10.7152    -4.3128  H       1  <O>11       0.0278
  24 H3        2.9942    -9.1880    -3.5342  H       1  <O>11       0.0278
  25 H4        3.0382   -14.8137   -10.2817  H       1  <O>11       0.2921
  26 H5        1.9591    -9.4758    -9.8789  H       1  <O>11       0.2922
  27 H6        2.3562    -6.5085    -8.0245  H       1  <O>11       0.1937
  28 H7        1.3082   -11.1481    -2.7415  H       1  <O>11       0.0621
  29 H8       -1.0275   -11.7615    -3.0324  H       1  <O>11       0.0618
  30 H9       -2.2132   -11.1207    -5.0562  H       1  <O>11       0.0618
  31 H10      -1.0552    -9.8628    -6.7825  H       1  <O>11       0.0638
  32 H11       2.4952   -11.7213    -6.1386  H       1  <O>11       0.0627
  33 H12       2.9384   -13.9933    -6.8595  H       1  <O>11       0.0654
  34 H13       2.6143   -12.7873   -10.8721  H       1  <O>11       0.0691
@<TRIPOS>BOND
     1     1     2    1
     2     2     3   ar
     3     3     4   ar
     4     4     5   ar
     5     5     6   ar
     6     6     7   ar
     7     2     7   ar
     8     7     8    1
     9     8     9   ar
    10     9    10    1
    11    10    11   ar
    12    11    12   ar
    13    12    13   ar
    14    13    14    1
    15    13    15   ar
    16    15    16   ar
    17    10    16   ar
    18    16    17    1
    19     9    18   ar
    20    18    19   ar
    21    19    20   ar
    22     8    20   ar
    23    20    21    2
    24     1    22    1
    25     1    23    1
    26     1    24    1
    27    14    25    1
    28    17    26    1
    29    19    27    1
    30     3    28    1
    31     4    29    1
    32     5    30    1
    33     6    31    1
    34    11    32    1
    35    12    33    1
    36    15    34    1
@<TRIPOS>MOLECULE
mol57_1_11
 34 36 0 0 0
SMALL
USER_CHARGES
****
VDW energy = -53.57
@<TRIPOS>ATOM
   1 C1        2.8832    -9.8059    -4.4252  C.3     1  <O>11      -0.0377
   2 C2        1.4617   -10.1611    -4.6036  C.ar    1  <O>11      -0.0264
   3 C3        0.8050   -10.8783    -3.6012  C.ar    1  <O>11      -0.0569
   4 C4       -0.5391   -11.2290    -3.7692  C.ar    1  <O>11      -0.0614
   5 C5       -1.2224   -10.8607    -4.9311  C.ar    1  <O>11      -0.0598
   6 C6       -0.5527   -10.1366    -5.9237  C.ar    1  <O>11      -0.0374
   7 C7        0.7874    -9.7806    -5.7650  C.ar    1  <O>11       0.0558
   8 N1        1.4480    -9.0580    -6.7440  N.ar    1  <O>11      -0.2434
   9 C8        1.9515    -7.9172    -6.4875  C.ar    1  <O>11       0.1727
  10 C9        2.0642    -7.0822    -5.4137  C.ar    1  <O>11       0.0612
  11 C10       1.0111    -6.9657    -4.4905  C.ar    1  <O>11      -0.0441
  12 C11       1.1232    -6.1019    -3.3979  C.ar    1  <O>11      -0.0193
  13 C12       2.2847    -5.3472    -3.2122  C.ar    1  <O>11       0.1204
  14 O1        2.3926    -4.5439    -2.2040  O.3     1  <O>11      -0.5066
  15 C13       3.3357    -5.4668    -4.1274  C.ar    1  <O>11       0.0220
  16 C14       3.2356    -6.3285    -5.2215  C.ar    1  <O>11       0.1310
  17 O2        4.2100    -6.4433    -6.0644  O.3     1  <O>11      -0.5059
  18 N2        2.4717    -7.5509    -7.6388  N.ar    1  <O>11      -0.1507
  19 N3        2.2283    -8.5648    -8.5524  N.ar    1  <O>11      -0.2260
  20 C15       1.5678    -9.5162    -7.9262  C.ar    1  <O>11       0.3489
  21 O3        1.0703   -10.7635    -8.3492  O.2     1  <O>11      -0.2446
  22 H1        3.2314    -9.2521    -5.2971  H       1  <O>11       0.0278
  23 H2        3.4736   -10.7152    -4.3128  H       1  <O>11       0.0278
  24 H3        2.9942    -9.1880    -3.5342  H       1  <O>11       0.0278
  25 H4        3.2571    -4.1056    -2.2304  H       1  <O>11       0.2921
  26 H5        3.9677    -7.0795    -6.7549  H       1  <O>11       0.2922
  27 H6        2.4708    -8.6507    -9.5283  H       1  <O>11       0.1937
  28 H7        1.3082   -11.1481    -2.7415  H       1  <O>11       0.0621
  29 H8       -1.0275   -11.7615    -3.0324  H       1  <O>11       0.0618
  30 H9       -2.2132   -11.1207    -5.0562  H       1  <O>11       0.0618
  31 H10      -1.0552    -9.8628    -6.7825  H       1  <O>11       0.0638
  32 H11       0.1509    -7.5208    -4.6201  H       1  <O>11       0.0627
  33 H12       0.3448    -6.0209    -2.7251  H       1  <O>11       0.0654
  34 H13       4.1950    -4.9116    -3.9925  H       1  <O>11       0.0691
@<TRIPOS>BOND
     1     1     2    1
     2     2     3   ar
     3     3     4   ar
     4     4     5   ar
     5     5     6   ar
     6     6     7   ar
     7     2     7   ar
     8     7     8    1
     9     8     9   ar
    10     9    10    1
    11    10    11   ar
    12    11    12   ar
    13    12    13   ar
    14    13    14    1
    15    13    15   ar
    16    15    16   ar
    17    10    16   ar
    18    16    17    1
    19     9    18   ar
    20    18    19   ar
    21    19    20   ar
    22     8    20   ar
    23    20    21    2
    24     1    22    1
    25     1    23    1
    26     1    24    1
    27    14    25    1
    28    17    26    1
    29    19    27    1
    30     3    28    1
    31     4    29    1
    32     5    30    1
    33     6    31    1
    34    11    32    1
    35    12    33    1
    36    15    34    1
@<TRIPOS>MOLECULE
mol57_1_12
 34 36 0 0 0
SMALL
USER_CHARGES
****
VDW energy = -48.59
@<TRIPOS>ATOM
   1 C1        2.8832    -9.8059    -4.4252  C.3     1  <O>11      -0.0377
   2 C2        1.4617   -10.1611    -4.6036  C.ar    1  <O>11      -0.0264
   3 C3        0.8050   -10.8783    -3.6012  C.ar    1  <O>11      -0.0569
   4 C4       -0.5391   -11.2290    -3.7692  C.ar    1  <O>11      -0.0614
   5 C5       -1.2224   -10.8607    -4.9311  C.ar    1  <O>11      -0.0598
   6 C6       -0.5527   -10.1366    -5.9237  C.ar    1  <O>11      -0.0374
   7 C7        0.7874    -9.7806    -5.7650  C.ar    1  <O>11       0.0558
   8 N1        1.4480    -9.0580    -6.7440  N.ar    1  <O>11      -0.2434
   9 C8        1.9515    -7.9172    -6.4875  C.ar    1  <O>11       0.1727
  10 C9        2.0642    -7.0822    -5.4137  C.ar    1  <O>11       0.0612
  11 C10       3.1696    -7.1787    -4.5514  C.ar    1  <O>11      -0.0441
  12 C11       3.2781    -6.3309    -3.4460  C.ar    1  <O>11      -0.0193
  13 C12       2.2890    -5.3777    -3.1889  C.ar    1  <O>11       0.1204
  14 O1        2.3831    -4.5922    -2.1654  O.3     1  <O>11      -0.5066
  15 C13       1.1912    -5.2770    -4.0499  C.ar    1  <O>11       0.0220
  16 C14       1.0737    -6.1173    -5.1588  C.ar    1  <O>11       0.1310
  17 O2        0.0614    -6.0199    -5.9581  O.3     1  <O>11      -0.5059
  18 N2        2.4717    -7.5509    -7.6388  N.ar    1  <O>11      -0.1507
  19 N3        2.2283    -8.5648    -8.5524  N.ar    1  <O>11      -0.2260
  20 C15       1.5678    -9.5162    -7.9262  C.ar    1  <O>11       0.3489
  21 O3        1.0703   -10.7635    -8.3492  O.2     1  <O>11      -0.2446
  22 H1        3.2314    -9.2521    -5.2971  H       1  <O>11       0.0278
  23 H2        3.4736   -10.7152    -4.3128  H       1  <O>11       0.0278
  24 H3        2.9942    -9.1880    -3.5342  H       1  <O>11       0.0278
  25 H4        1.6168    -3.9985    -2.1415  H       1  <O>11       0.2921
  26 H5        0.1435    -6.6772    -6.6663  H       1  <O>11       0.2922
  27 H6        2.4708    -8.6507    -9.5283  H       1  <O>11       0.1937
  28 H7        1.3082   -11.1481    -2.7415  H       1  <O>11       0.0621
  29 H8       -1.0275   -11.7615    -3.0324  H       1  <O>11       0.0618
  30 H9       -2.2132   -11.1207    -5.0562  H       1  <O>11       0.0618
  31 H10      -1.0552    -9.8628    -6.7825  H       1  <O>11       0.0638
  32 H11       3.9048    -7.8791    -4.7355  H       1  <O>11       0.0627
  33 H12       4.0923    -6.4091    -2.8166  H       1  <O>11       0.0654
  34 H13       0.4597    -4.5734    -3.8634  H       1  <O>11       0.0691
@<TRIPOS>BOND
     1     1     2    1
     2     2     3   ar
     3     3     4   ar
     4     4     5   ar
     5     5     6   ar
     6     6     7   ar
     7     2     7   ar
     8     7     8    1
     9     8     9   ar
    10     9    10    1
    11    10    11   ar
    12    11    12   ar
    13    12    13   ar
    14    13    14    1
    15    13    15   ar
    16    15    16   ar
    17    10    16   ar
    18    16    17    1
    19     9    18   ar
    20    18    19   ar
    21    19    20   ar
    22     8    20   ar
    23    20    21    2
    24     1    22    1
    25     1    23    1
    26     1    24    1
    27    14    25    1
    28    17    26    1
    29    19    27    1
    30     3    28    1
    31     4    29    1
    32     5    30    1
    33     6    31    1
    34    11    32    1
    35    12    33    1
    36    15    34    1
@<TRIPOS>MOLECULE
mol57_1_13
 34 36 0 0 0
SMALL
USER_CHARGES
****
VDW energy = -45.32
@<TRIPOS>ATOM
   1 C1        2.8832    -9.8059    -4.4252  C.3     1  <O>11      -0.0377
   2 C2        1.4617   -10.1611    -4.6036  C.ar    1  <O>11      -0.0264
   3 C3        0.8050   -10.8783    -3.6012  C.ar    1  <O>11      -0.0569
   4 C4       -0.5391   -11.2290    -3.7692  C.ar    1  <O>11      -0.0614
   5 C5       -1.2224   -10.8607    -4.9311  C.ar    1  <O>11      -0.0598
   6 C6       -0.5527   -10.1366    -5.9237  C.ar    1  <O>11      -0.0374
   7 C7        0.7874    -9.7806    -5.7650  C.ar    1  <O>11       0.0558
   8 N1        1.4480    -9.0580    -6.7440  N.ar    1  <O>11      -0.2434
   9 C8        2.4790    -9.5305    -7.3223  C.ar    1  <O>11       0.1727
  10 C9        3.2263   -10.6719    -7.2791  C.ar    1  <O>11       0.0612
  11 C10       4.3215   -10.7715    -6.4042  C.ar    1  <O>11      -0.0441
  12 C11       5.0927   -11.9361    -6.3690  C.ar    1  <O>11      -0.0193
  13 C12       4.7806   -13.0136    -7.2025  C.ar    1  <O>11       0.1204
  14 O1        5.4929   -14.0931    -7.1761  O.3     1  <O>11      -0.5066
  15 C13       3.6872   -12.9176    -8.0696  C.ar    1  <O>11       0.0220
  16 C14       2.9082   -11.7596    -8.1115  C.ar    1  <O>11       0.1310
  17 O2        1.8937   -11.6734    -8.9092  O.3     1  <O>11      -0.5059
  18 N2        2.8199    -8.5753    -8.1599  N.ar    1  <O>11      -0.1507
  19 N3        1.9083    -7.5412    -8.0128  N.ar    1  <O>11      -0.2260
  20 C15       1.0412    -7.9018    -7.0900  C.ar    1  <O>11       0.3489
  21 O3       -0.0867    -7.2600    -6.5441  O.2     1  <O>11      -0.2446
  22 H1        3.2314    -9.2521    -5.2971  H       1  <O>11       0.0278
  23 H2        3.4736   -10.7152    -4.3128  H       1  <O>11       0.0278
  24 H3        2.9942    -9.1880    -3.5342  H       1  <O>11       0.0278
  25 H4        5.1365   -14.7318    -7.8126  H       1  <O>11       0.2921
  26 H5        1.4734   -10.8056    -8.8060  H       1  <O>11       0.2922
  27 H6        1.8380    -6.6478    -8.4771  H       1  <O>11       0.1937
  28 H7        1.3082   -11.1481    -2.7415  H       1  <O>11       0.0621
  29 H8       -1.0275   -11.7615    -3.0324  H       1  <O>11       0.0618
  30 H9       -2.2132   -11.1207    -5.0562  H       1  <O>11       0.0618
  31 H10      -1.0552    -9.8628    -6.7825  H       1  <O>11       0.0638
  32 H11       4.5573    -9.9806    -5.7845  H       1  <O>11       0.0627
  33 H12       5.8963   -12.0009    -5.7247  H       1  <O>11       0.0654
  34 H13       3.4536   -13.7119    -8.6856  H       1  <O>11       0.0691
@<TRIPOS>BOND
     1     1     2    1
     2     2     3   ar
     3     3     4   ar
     4     4     5   ar
     5     5     6   ar
     6     6     7   ar
     7     2     7   ar
     8     7     8    1
     9     8     9   ar
    10     9    10    1
    11    10    11   ar
    12    11    12   ar
    13    12    13   ar
    14    13    14    1
    15    13    15   ar
    16    15    16   ar
    17    10    16   ar
    18    16    17    1
    19     9    18   ar
    20    18    19   ar
    21    19    20   ar
    22     8    20   ar
    23    20    21    2
    24     1    22    1
    25     1    23    1
    26     1    24    1
    27    14    25    1
    28    17    26    1
    29    19    27    1
    30     3    28    1
    31     4    29    1
    32     5    30    1
    33     6    31    1
    34    11    32    1
    35    12    33    1
    36    15    34    1
