@<TRIPOS>MOLECULE
mol58_1_1
 34 36 0 0 0
SMALL
USER_CHARGES
****
VDW energy = -52.70
@<TRIPOS>ATOM
   1 N1        3.5126    -9.1101    -5.4025  N.am    1  <O>11      -0.3253
   2 C1        2.8552    -9.8129    -4.4288  C.2     1  <O>11       0.2416
   3 O1        3.4454   -10.1461    -3.4119  O.2     1  <O>11      -0.2704
   4 C2        1.4620   -10.1610    -4.6040  C.ar    1  <O>11       0.0400
   5 C3        0.5926    -9.2324    -5.1817  C.ar    1  <O>11      -0.0494
   6 C4       -0.7587    -9.5574    -5.3429  C.ar    1  <O>11      -0.0576
   7 C5       -1.2358   -10.8050    -4.9328  C.ar    1  <O>11      -0.0192
   8 C6       -0.3520   -11.7276    -4.3622  C.ar    1  <O>11       0.1326
   9 O2       -0.8223   -12.9461    -3.9646  O.3     1  <O>11      -0.4235
  10 C7       -1.7974   -12.7737    -3.0093  C.ar    1  <O>11       0.3267
  11 N2       -1.4379   -12.7330    -1.7112  N.ar    1  <O>11      -0.1831
  12 C8       -2.4144   -12.5377    -0.8427  C.ar    1  <O>11       0.1237
  13 N3       -3.6946   -12.4196    -1.1502  N.ar    1  <O>11      -0.2157
  14 C9       -3.9688   -12.4603    -2.4438  C.ar    1  <O>11       0.1666
  15 C10      -5.3163   -12.2897    -2.8779  C.ar    1  <O>11       0.0193
  16 C11      -5.8107   -11.0066    -3.1689  C.ar    1  <O>11      -0.0510
  17 C12      -7.1363   -10.8389    -3.5830  C.ar    1  <O>11      -0.0611
  18 C13      -7.9779   -11.9465    -3.7152  C.ar    1  <O>11      -0.0617
  19 C14      -7.4834   -13.2245    -3.4305  C.ar    1  <O>11      -0.0611
  20 C15      -6.1620   -13.4026    -3.0191  C.ar    1  <O>11      -0.0510
  21 N4       -3.0809   -12.6507    -3.4035  N.ar    1  <O>11      -0.1748
  22 C16       0.9978   -11.4132    -4.1985  C.ar    1  <O>11      -0.0071
  23 H1        3.0200    -8.8319    -6.2513  H       1  <O>11       0.1453
  24 H2        4.4949    -8.8646    -5.2793  H       1  <O>11       0.1453
  25 H3        0.9451    -8.3121    -5.4877  H       1  <O>11       0.0625
  26 H4       -1.4052    -8.8734    -5.7660  H       1  <O>11       0.0619
  27 H5       -2.2328   -11.0443    -5.0499  H       1  <O>11       0.0654
  28 H6       -2.1573   -12.4721     0.1546  H       1  <O>11       0.1049
  29 H7       -5.1933   -10.1848    -3.0767  H       1  <O>11       0.0625
  30 H8       -7.4939    -9.8937    -3.7917  H       1  <O>11       0.0618
  31 H9       -8.9560   -11.8232    -4.0203  H       1  <O>11       0.0618
  32 H10      -8.1029   -14.0442    -3.5260  H       1  <O>11       0.0618
  33 H11      -5.8065   -14.3505    -2.8189  H       1  <O>11       0.0625
  34 H12       1.6461   -12.0997    -3.7820  H       1  <O>11       0.0662
@<TRIPOS>BOND
     1     1     2   am
     2     2     3    2
     3     2     4    1
     4     4     5   ar
     5     5     6   ar
     6     6     7   ar
     7     7     8   ar
     8     8     9    1
     9     9    10    1
    10    10    11   ar
    11    11    12   ar
    12    12    13   ar
    13    13    14   ar
    14    14    15    1
    15    15    16   ar
    16    16    17   ar
    17    17    18   ar
    18    18    19   ar
    19    19    20   ar
    20    15    20   ar
    21    14    21   ar
    22    10    21   ar
    23     8    22   ar
    24     4    22   ar
    25     1    23    1
    26     1    24    1
    27     5    25    1
    28     6    26    1
    29     7    27    1
    30    12    28    1
    31    16    29    1
    32    17    30    1
    33    18    31    1
    34    19    32    1
    35    20    33    1
    36    22    34    1
@<TRIPOS>MOLECULE
mol58_1_2
 34 36 0 0 0
SMALL
USER_CHARGES
****
VDW energy = -52.63
@<TRIPOS>ATOM
   1 N1        3.5126    -9.1101    -5.4025  N.am    1  <O>11      -0.3253
   2 C1        2.8552    -9.8129    -4.4288  C.2     1  <O>11       0.2416
   3 O1        3.4454   -10.1461    -3.4119  O.2     1  <O>11      -0.2704
   4 C2        1.4620   -10.1610    -4.6040  C.ar    1  <O>11       0.0400
   5 C3        0.5926    -9.2324    -5.1817  C.ar    1  <O>11      -0.0494
   6 C4       -0.7587    -9.5574    -5.3429  C.ar    1  <O>11      -0.0576
   7 C5       -1.2358   -10.8050    -4.9328  C.ar    1  <O>11      -0.0192
   8 C6       -0.3520   -11.7276    -4.3622  C.ar    1  <O>11       0.1326
   9 O2       -0.8223   -12.9461    -3.9646  O.3     1  <O>11      -0.4235
  10 C7       -1.7974   -12.7737    -3.0093  C.ar    1  <O>11       0.3267
  11 N2       -3.0804   -12.6509    -3.4024  N.ar    1  <O>11      -0.1831
  12 C8       -3.9741   -12.5155    -2.4386  C.ar    1  <O>11       0.1237
  13 N3       -3.6981   -12.4560    -1.1473  N.ar    1  <O>11      -0.2157
  14 C9       -2.4191   -12.5929    -0.8382  C.ar    1  <O>11       0.1666
  15 C10      -2.0282   -12.5943     0.5331  C.ar    1  <O>11       0.0193
  16 C11      -1.9720   -13.8000     1.2535  C.ar    1  <O>11      -0.0510
  17 C12      -1.6001   -13.7989     2.6020  C.ar    1  <O>11      -0.0611
  18 C13      -1.2770   -12.5997     3.2422  C.ar    1  <O>11      -0.0617
  19 C14      -1.3279   -11.4002     2.5228  C.ar    1  <O>11      -0.0611
  20 C15      -1.6953   -11.3908     1.1768  C.ar    1  <O>11      -0.0510
  21 N4       -1.4369   -12.7333    -1.7107  N.ar    1  <O>11      -0.1748
  22 C16       0.9978   -11.4132    -4.1985  C.ar    1  <O>11      -0.0071
  23 H1        3.0200    -8.8319    -6.2513  H       1  <O>11       0.1453
  24 H2        4.4949    -8.8646    -5.2793  H       1  <O>11       0.1453
  25 H3        0.9451    -8.3121    -5.4877  H       1  <O>11       0.0625
  26 H4       -1.4052    -8.8734    -5.7660  H       1  <O>11       0.0619
  27 H5       -2.2328   -11.0443    -5.0499  H       1  <O>11       0.0654
  28 H6       -4.9661   -12.4511    -2.7160  H       1  <O>11       0.1049
  29 H7       -2.2060   -14.6895     0.7857  H       1  <O>11       0.0625
  30 H8       -1.5643   -14.6873     3.1260  H       1  <O>11       0.0618
  31 H9       -1.0030   -12.5984     4.2371  H       1  <O>11       0.0618
  32 H10      -1.0910   -10.5127     2.9933  H       1  <O>11       0.0618
  33 H11      -1.7223   -10.5010     0.6547  H       1  <O>11       0.0625
  34 H12       1.6461   -12.0997    -3.7820  H       1  <O>11       0.0662
@<TRIPOS>BOND
     1     1     2   am
     2     2     3    2
     3     2     4    1
     4     4     5   ar
     5     5     6   ar
     6     6     7   ar
     7     7     8   ar
     8     8     9    1
     9     9    10    1
    10    10    11   ar
    11    11    12   ar
    12    12    13   ar
    13    13    14   ar
    14    14    15    1
    15    15    16   ar
    16    16    17   ar
    17    17    18   ar
    18    18    19   ar
    19    19    20   ar
    20    15    20   ar
    21    14    21   ar
    22    10    21   ar
    23     8    22   ar
    24     4    22   ar
    25     1    23    1
    26     1    24    1
    27     5    25    1
    28     6    26    1
    29     7    27    1
    30    12    28    1
    31    16    29    1
    32    17    30    1
    33    18    31    1
    34    19    32    1
    35    20    33    1
    36    22    34    1
@<TRIPOS>MOLECULE
mol58_1_3
 34 36 0 0 0
SMALL
USER_CHARGES
****
VDW energy = -52.45
@<TRIPOS>ATOM
   1 N1        3.5126    -9.1101    -5.4025  N.am    1  <O>11      -0.3253
   2 C1        2.8552    -9.8129    -4.4288  C.2     1  <O>11       0.2416
   3 O1        3.4454   -10.1461    -3.4119  O.2     1  <O>11      -0.2704
   4 C2        1.4620   -10.1610    -4.6040  C.ar    1  <O>11       0.0400
   5 C3        1.0119   -10.5678    -5.8624  C.ar    1  <O>11      -0.0494
   6 C4       -0.3368   -10.8940    -6.0423  C.ar    1  <O>11      -0.0576
   7 C5       -1.2280   -10.8179    -4.9689  C.ar    1  <O>11      -0.0192
   8 C6       -0.7615   -10.4156    -3.7126  C.ar    1  <O>11       0.1326
   9 O2       -1.6356   -10.3445    -2.6662  O.3     1  <O>11      -0.4235
  10 C7       -2.6348    -9.4459    -2.9616  C.ar    1  <O>11       0.3267
  11 N2       -3.7485    -9.8889    -3.5775  N.ar    1  <O>11      -0.1831
  12 C8       -4.6838    -8.9850    -3.8101  C.ar    1  <O>11       0.1237
  13 N3       -4.5883    -7.6988    -3.5205  N.ar    1  <O>11      -0.2157
  14 C9       -3.4710    -7.3409    -2.9093  C.ar    1  <O>11       0.1666
  15 C10      -3.2974    -5.9831    -2.5097  C.ar    1  <O>11       0.0193
  16 C11      -3.7178    -5.5589    -1.2373  C.ar    1  <O>11      -0.0510
  17 C12      -3.5583    -4.2241    -0.8507  C.ar    1  <O>11      -0.0611
  18 C13      -2.9752    -3.3029    -1.7248  C.ar    1  <O>11      -0.0617
  19 C14      -2.5518    -3.7272    -2.9896  C.ar    1  <O>11      -0.0611
  20 C15      -2.7043    -5.0570    -3.3838  C.ar    1  <O>11      -0.0510
  21 N4       -2.4668    -8.1512    -2.6249  N.ar    1  <O>11      -0.1748
  22 C16       0.5822   -10.0896    -3.5229  C.ar    1  <O>11      -0.0071
  23 H1        3.0200    -8.8319    -6.2513  H       1  <O>11       0.1453
  24 H2        4.4949    -8.8646    -5.2793  H       1  <O>11       0.1453
  25 H3        1.6704   -10.6273    -6.6548  H       1  <O>11       0.0625
  26 H4       -0.6744   -11.1918    -6.9709  H       1  <O>11       0.0619
  27 H5       -2.2232   -11.0568    -5.1017  H       1  <O>11       0.0654
  28 H6       -5.5579    -9.3087    -4.2529  H       1  <O>11       0.1049
  29 H7       -4.1459    -6.2349    -0.5857  H       1  <O>11       0.0625
  30 H8       -3.8724    -3.9185     0.0836  H       1  <O>11       0.0618
  31 H9       -2.8577    -2.3180    -1.4402  H       1  <O>11       0.0618
  32 H10      -2.1220    -3.0490    -3.6378  H       1  <O>11       0.0618
  33 H11      -2.3818    -5.3597    -4.3161  H       1  <O>11       0.0625
  34 H12       0.9217    -9.7986    -2.5928  H       1  <O>11       0.0662
@<TRIPOS>BOND
     1     1     2   am
     2     2     3    2
     3     2     4    1
     4     4     5   ar
     5     5     6   ar
     6     6     7   ar
     7     7     8   ar
     8     8     9    1
     9     9    10    1
    10    10    11   ar
    11    11    12   ar
    12    12    13   ar
    13    13    14   ar
    14    14    15    1
    15    15    16   ar
    16    16    17   ar
    17    17    18   ar
    18    18    19   ar
    19    19    20   ar
    20    15    20   ar
    21    14    21   ar
    22    10    21   ar
    23     8    22   ar
    24     4    22   ar
    25     1    23    1
    26     1    24    1
    27     5    25    1
    28     6    26    1
    29     7    27    1
    30    12    28    1
    31    16    29    1
    32    17    30    1
    33    18    31    1
    34    19    32    1
    35    20    33    1
    36    22    34    1
@<TRIPOS>MOLECULE
mol58_1_4
 34 36 0 0 0
SMALL
USER_CHARGES
****
VDW energy = -50.58
@<TRIPOS>ATOM
   1 N1        3.5126    -9.1101    -5.4025  N.am    1  <O>11      -0.3253
   2 C1        2.8552    -9.8129    -4.4288  C.2     1  <O>11       0.2416
   3 O1        3.4454   -10.1461    -3.4119  O.2     1  <O>11      -0.2704
   4 C2        1.4620   -10.1610    -4.6040  C.ar    1  <O>11       0.0400
   5 C3        0.4753    -9.2803    -4.1539  C.ar    1  <O>11      -0.0494
   6 C4       -0.8742    -9.6160    -4.3087  C.ar    1  <O>11      -0.0576
   7 C5       -1.2337   -10.8229    -4.9139  C.ar    1  <O>11      -0.0192
   8 C6       -0.2346   -11.6920    -5.3661  C.ar    1  <O>11       0.1326
   9 O2       -0.5907   -12.8694    -5.9585  O.3     1  <O>11      -0.4235
  10 C7       -0.6971   -13.8523    -5.0015  C.ar    1  <O>11       0.3267
  11 N2        0.3857   -14.1606    -4.2609  N.ar    1  <O>11      -0.1831
  12 C8        0.2147   -15.0925    -3.3398  C.ar    1  <O>11       0.1237
  13 N3       -0.9095   -15.7539    -3.1255  N.ar    1  <O>11      -0.2157
  14 C9       -1.9301   -15.3900    -3.8844  C.ar    1  <O>11       0.1666
  15 C10      -3.1997   -16.0101    -3.6920  C.ar    1  <O>11       0.0193
  16 C11      -4.3306   -15.5400    -4.3816  C.ar    1  <O>11      -0.0510
  17 C12      -5.5779   -16.1411    -4.1830  C.ar    1  <O>11      -0.0611
  18 C13      -5.7084   -17.2170    -3.3010  C.ar    1  <O>11      -0.0617
  19 C14      -4.5808   -17.6883    -2.6189  C.ar    1  <O>11      -0.0611
  20 C15      -3.3317   -17.0970    -2.8118  C.ar    1  <O>11      -0.0510
  21 N4       -1.8816   -14.4747    -4.8361  N.ar    1  <O>11      -0.1748
  22 C16       1.1140   -11.3653    -5.2175  C.ar    1  <O>11      -0.0071
  23 H1        3.0200    -8.8319    -6.2513  H       1  <O>11       0.1453
  24 H2        4.4949    -8.8646    -5.2793  H       1  <O>11       0.1453
  25 H3        0.7403    -8.3872    -3.7098  H       1  <O>11       0.0625
  26 H4       -1.6064    -8.9700    -3.9748  H       1  <O>11       0.0619
  27 H5       -2.2289   -11.0716    -5.0266  H       1  <O>11       0.0654
  28 H6        1.0228   -15.3220    -2.7404  H       1  <O>11       0.1049
  29 H7       -4.2404   -14.7480    -5.0370  H       1  <O>11       0.0625
  30 H8       -6.4049   -15.7887    -4.6898  H       1  <O>11       0.0618
  31 H9       -6.6285   -17.6606    -3.1539  H       1  <O>11       0.0618
  32 H10      -4.6743   -18.4819    -1.9659  H       1  <O>11       0.0618
  33 H11      -2.5061   -17.4577    -2.3086  H       1  <O>11       0.0625
  34 H12       1.8465   -12.0078    -5.5578  H       1  <O>11       0.0662
@<TRIPOS>BOND
     1     1     2   am
     2     2     3    2
     3     2     4    1
     4     4     5   ar
     5     5     6   ar
     6     6     7   ar
     7     7     8   ar
     8     8     9    1
     9     9    10    1
    10    10    11   ar
    11    11    12   ar
    12    12    13   ar
    13    13    14   ar
    14    14    15    1
    15    15    16   ar
    16    16    17   ar
    17    17    18   ar
    18    18    19   ar
    19    19    20   ar
    20    15    20   ar
    21    14    21   ar
    22    10    21   ar
    23     8    22   ar
    24     4    22   ar
    25     1    23    1
    26     1    24    1
    27     5    25    1
    28     6    26    1
    29     7    27    1
    30    12    28    1
    31    16    29    1
    32    17    30    1
    33    18    31    1
    34    19    32    1
    35    20    33    1
    36    22    34    1
@<TRIPOS>MOLECULE
mol58_1_5
 34 36 0 0 0
SMALL
USER_CHARGES
****
VDW energy = -50.33
@<TRIPOS>ATOM
   1 N1        3.5126    -9.1101    -5.4025  N.am    1  <O>11      -0.3253
   2 C1        2.8552    -9.8129    -4.4288  C.2     1  <O>11       0.2416
   3 O1        3.4454   -10.1461    -3.4119  O.2     1  <O>11      -0.2704
   4 C2        1.4620   -10.1610    -4.6040  C.ar    1  <O>11       0.0400
   5 C3        0.4753    -9.2803    -4.1539  C.ar    1  <O>11      -0.0494
   6 C4       -0.8742    -9.6160    -4.3087  C.ar    1  <O>11      -0.0576
   7 C5       -1.2337   -10.8229    -4.9139  C.ar    1  <O>11      -0.0192
   8 C6       -0.2346   -11.6920    -5.3661  C.ar    1  <O>11       0.1326
   9 O2       -0.5907   -12.8694    -5.9585  O.3     1  <O>11      -0.4235
  10 C7       -0.6971   -13.8523    -5.0015  C.ar    1  <O>11       0.3267
  11 N2       -1.2166   -15.0463    -5.3486  N.ar    1  <O>11      -0.1831
  12 C8       -1.2675   -15.9585    -4.3940  C.ar    1  <O>11       0.1237
  13 N3       -0.8872   -15.7722    -3.1418  N.ar    1  <O>11      -0.2157
  14 C9       -0.3797   -14.5791    -2.8793  C.ar    1  <O>11       0.1666
  15 C10       0.1065   -14.2999    -1.5682  C.ar    1  <O>11       0.0193
  16 C11       0.7817   -13.0959    -1.3034  C.ar    1  <O>11      -0.0510
  17 C12       1.2690   -12.8283    -0.0198  C.ar    1  <O>11      -0.0611
  18 C13       1.0839   -13.7539     1.0106  C.ar    1  <O>11      -0.0617
  19 C14       0.4066   -14.9501     0.7476  C.ar    1  <O>11      -0.0611
  20 C15      -0.0853   -15.2254    -0.5288  C.ar    1  <O>11      -0.0510
  21 N4       -0.2776   -13.5884    -3.7476  N.ar    1  <O>11      -0.1748
  22 C16       1.1140   -11.3653    -5.2175  C.ar    1  <O>11      -0.0071
  23 H1        3.0200    -8.8319    -6.2513  H       1  <O>11       0.1453
  24 H2        4.4949    -8.8646    -5.2793  H       1  <O>11       0.1453
  25 H3        0.7403    -8.3872    -3.7098  H       1  <O>11       0.0625
  26 H4       -1.6064    -8.9700    -3.9748  H       1  <O>11       0.0619
  27 H5       -2.2289   -11.0716    -5.0266  H       1  <O>11       0.0654
  28 H6       -1.6331   -16.8901    -4.6460  H       1  <O>11       0.1049
  29 H7        0.9186   -12.4066    -2.0591  H       1  <O>11       0.0625
  30 H8        1.7670   -11.9439     0.1669  H       1  <O>11       0.0618
  31 H9        1.4436   -13.5570     1.9576  H       1  <O>11       0.0618
  32 H10       0.2695   -15.6361     1.5062  H       1  <O>11       0.0618
  33 H11      -0.5894   -16.1077    -0.7091  H       1  <O>11       0.0625
  34 H12       1.8465   -12.0078    -5.5578  H       1  <O>11       0.0662
@<TRIPOS>BOND
     1     1     2   am
     2     2     3    2
     3     2     4    1
     4     4     5   ar
     5     5     6   ar
     6     6     7   ar
     7     7     8   ar
     8     8     9    1
     9     9    10    1
    10    10    11   ar
    11    11    12   ar
    12    12    13   ar
    13    13    14   ar
    14    14    15    1
    15    15    16   ar
    16    16    17   ar
    17    17    18   ar
    18    18    19   ar
    19    19    20   ar
    20    15    20   ar
    21    14    21   ar
    22    10    21   ar
    23     8    22   ar
    24     4    22   ar
    25     1    23    1
    26     1    24    1
    27     5    25    1
    28     6    26    1
    29     7    27    1
    30    12    28    1
    31    16    29    1
    32    17    30    1
    33    18    31    1
    34    19    32    1
    35    20    33    1
    36    22    34    1
@<TRIPOS>MOLECULE
mol58_1_6
 34 36 0 0 0
SMALL
USER_CHARGES
****
VDW energy = -49.36
@<TRIPOS>ATOM
   1 N1        3.5126    -9.1101    -5.4025  N.am    1  <O>11      -0.3253
   2 C1        2.8552    -9.8129    -4.4288  C.2     1  <O>11       0.2416
   3 O1        3.4454   -10.1461    -3.4119  O.2     1  <O>11      -0.2704
   4 C2        1.4620   -10.1610    -4.6040  C.ar    1  <O>11       0.0400
   5 C3        1.1317   -11.3708    -5.2197  C.ar    1  <O>11      -0.0494
   6 C4       -0.2136   -11.7084    -5.4038  C.ar    1  <O>11      -0.0576
   7 C5       -1.2215   -10.8431    -4.9705  C.ar    1  <O>11      -0.0192
   8 C6       -0.8757    -9.6381    -4.3492  C.ar    1  <O>11       0.1326
   9 O2       -1.8640    -8.7965    -3.9259  O.3     1  <O>11      -0.4235
  10 C7       -1.3398    -7.8762    -3.0475  C.ar    1  <O>11       0.3267
  11 N2       -0.8586    -6.7142    -3.5313  N.ar    1  <O>11      -0.1831
  12 C8       -0.3938    -5.8595    -2.6373  C.ar    1  <O>11       0.1237
  13 N3       -0.3356    -6.0767    -1.3347  N.ar    1  <O>11      -0.2157
  14 C9       -0.8346    -7.2346    -0.9343  C.ar    1  <O>11       0.1666
  15 C10      -0.8639    -7.5383     0.4586  C.ar    1  <O>11       0.0193
  16 C11       0.2218    -8.1936     1.0648  C.ar    1  <O>11      -0.0510
  17 C12       0.1870    -8.5020     2.4288  C.ar    1  <O>11      -0.0611
  18 C13      -0.9256    -8.1566     3.2004  C.ar    1  <O>11      -0.0617
  19 C14      -2.0040    -7.4992     2.5973  C.ar    1  <O>11      -0.0611
  20 C15      -1.9780    -7.1850     1.2381  C.ar    1  <O>11      -0.0510
  21 N4       -1.3250    -8.1674    -1.7312  N.ar    1  <O>11      -0.1748
  22 C16       0.4633    -9.2931    -4.1598  C.ar    1  <O>11      -0.0071
  23 H1        3.0200    -8.8319    -6.2513  H       1  <O>11       0.1453
  24 H2        4.4949    -8.8646    -5.2793  H       1  <O>11       0.1453
  25 H3        1.8757   -12.0117    -5.5369  H       1  <O>11       0.0625
  26 H4       -0.4623   -12.5995    -5.8611  H       1  <O>11       0.0619
  27 H5       -2.2138   -11.0910    -5.1078  H       1  <O>11       0.0654
  28 H6       -0.0490    -4.9504    -2.9833  H       1  <O>11       0.1049
  29 H7        1.0480    -8.4482     0.5013  H       1  <O>11       0.0625
  30 H8        0.9860    -8.9864     2.8668  H       1  <O>11       0.0618
  31 H9       -0.9519    -8.3843     4.2066  H       1  <O>11       0.0618
  32 H10      -2.8276    -7.2440     3.1644  H       1  <O>11       0.0618
  33 H11      -2.7761    -6.6938     0.8060  H       1  <O>11       0.0625
  34 H12       0.7123    -8.4055    -3.6961  H       1  <O>11       0.0662
@<TRIPOS>BOND
     1     1     2   am
     2     2     3    2
     3     2     4    1
     4     4     5   ar
     5     5     6   ar
     6     6     7   ar
     7     7     8   ar
     8     8     9    1
     9     9    10    1
    10    10    11   ar
    11    11    12   ar
    12    12    13   ar
    13    13    14   ar
    14    14    15    1
    15    15    16   ar
    16    16    17   ar
    17    17    18   ar
    18    18    19   ar
    19    19    20   ar
    20    15    20   ar
    21    14    21   ar
    22    10    21   ar
    23     8    22   ar
    24     4    22   ar
    25     1    23    1
    26     1    24    1
    27     5    25    1
    28     6    26    1
    29     7    27    1
    30    12    28    1
    31    16    29    1
    32    17    30    1
    33    18    31    1
    34    19    32    1
    35    20    33    1
    36    22    34    1
@<TRIPOS>MOLECULE
mol58_1_7
 34 36 0 0 0
SMALL
USER_CHARGES
****
VDW energy = -48.91
@<TRIPOS>ATOM
   1 N1        3.5126    -9.1101    -5.4025  N.am    1  <O>11      -0.3253
   2 C1        2.8552    -9.8129    -4.4288  C.2     1  <O>11       0.2416
   3 O1        3.4454   -10.1461    -3.4119  O.2     1  <O>11      -0.2704
   4 C2        1.4620   -10.1610    -4.6040  C.ar    1  <O>11       0.0400
   5 C3        0.4753    -9.2803    -4.1539  C.ar    1  <O>11      -0.0494
   6 C4       -0.8742    -9.6160    -4.3087  C.ar    1  <O>11      -0.0576
   7 C5       -1.2337   -10.8229    -4.9139  C.ar    1  <O>11      -0.0192
   8 C6       -0.2346   -11.6920    -5.3661  C.ar    1  <O>11       0.1326
   9 O2       -0.5907   -12.8694    -5.9585  O.3     1  <O>11      -0.4235
  10 C7        0.4888   -13.3890    -6.6352  C.ar    1  <O>11       0.3267
  11 N2        1.3258   -14.2216    -5.9856  N.ar    1  <O>11      -0.1831
  12 C8        2.3278   -14.7099    -6.6952  C.ar    1  <O>11       0.1237
  13 N3        2.5808   -14.4149    -7.9587  N.ar    1  <O>11      -0.2157
  14 C9        1.7110   -13.5990    -8.5312  C.ar    1  <O>11       0.1666
  15 C10       1.8700   -13.2629    -9.9078  C.ar    1  <O>11       0.0193
  16 C11       2.6359   -12.1450   -10.2812  C.ar    1  <O>11      -0.0510
  17 C12       2.7813   -11.8090   -11.6312  C.ar    1  <O>11      -0.0611
  18 C13       2.1703   -12.5850   -12.6196  C.ar    1  <O>11      -0.0617
  19 C14       1.4123   -13.7012   -12.2475  C.ar    1  <O>11      -0.0611
  20 C15       1.2631   -14.0462   -10.9037  C.ar    1  <O>11      -0.0510
  21 N4        0.6735   -13.0479    -7.9265  N.ar    1  <O>11      -0.1748
  22 C16       1.1140   -11.3653    -5.2175  C.ar    1  <O>11      -0.0071
  23 H1        3.0200    -8.8319    -6.2513  H       1  <O>11       0.1453
  24 H2        4.4949    -8.8646    -5.2793  H       1  <O>11       0.1453
  25 H3        0.7403    -8.3872    -3.7098  H       1  <O>11       0.0625
  26 H4       -1.6064    -8.9700    -3.9748  H       1  <O>11       0.0619
  27 H5       -2.2289   -11.0716    -5.0266  H       1  <O>11       0.0654
  28 H6        2.9632   -15.3740    -6.2259  H       1  <O>11       0.1049
  29 H7        3.0927   -11.5698    -9.5563  H       1  <O>11       0.0625
  30 H8        3.3421   -10.9848   -11.8982  H       1  <O>11       0.0618
  31 H9        2.2770   -12.3372   -13.6157  H       1  <O>11       0.0618
  32 H10       0.9588   -14.2755   -12.9751  H       1  <O>11       0.0618
  33 H11       0.7078   -14.8756   -10.6418  H       1  <O>11       0.0625
  34 H12       1.8465   -12.0078    -5.5578  H       1  <O>11       0.0662
@<TRIPOS>BOND
     1     1     2   am
     2     2     3    2
     3     2     4    1
     4     4     5   ar
     5     5     6   ar
     6     6     7   ar
     7     7     8   ar
     8     8     9    1
     9     9    10    1
    10    10    11   ar
    11    11    12   ar
    12    12    13   ar
    13    13    14   ar
    14    14    15    1
    15    15    16   ar
    16    16    17   ar
    17    17    18   ar
    18    18    19   ar
    19    19    20   ar
    20    15    20   ar
    21    14    21   ar
    22    10    21   ar
    23     8    22   ar
    24     4    22   ar
    25     1    23    1
    26     1    24    1
    27     5    25    1
    28     6    26    1
    29     7    27    1
    30    12    28    1
    31    16    29    1
    32    17    30    1
    33    18    31    1
    34    19    32    1
    35    20    33    1
    36    22    34    1
@<TRIPOS>MOLECULE
mol58_1_8
 34 36 0 0 0
SMALL
USER_CHARGES
****
VDW energy = -47.72
@<TRIPOS>ATOM
   1 N1        3.5126    -9.1101    -5.4025  N.am    1  <O>11      -0.3253
   2 C1        2.8552    -9.8129    -4.4288  C.2     1  <O>11       0.2416
   3 O1        3.4454   -10.1461    -3.4119  O.2     1  <O>11      -0.2704
   4 C2        1.4620   -10.1610    -4.6040  C.ar    1  <O>11       0.0400
   5 C3        0.4753    -9.2803    -4.1539  C.ar    1  <O>11      -0.0494
   6 C4       -0.8742    -9.6160    -4.3087  C.ar    1  <O>11      -0.0576
   7 C5       -1.2337   -10.8229    -4.9139  C.ar    1  <O>11      -0.0192
   8 C6       -0.2346   -11.6920    -5.3661  C.ar    1  <O>11       0.1326
   9 O2       -0.5907   -12.8694    -5.9585  O.3     1  <O>11      -0.4235
  10 C7        0.4888   -13.3890    -6.6352  C.ar    1  <O>11       0.3267
  11 N2        0.6743   -13.0485    -7.9258  N.ar    1  <O>11      -0.1831
  12 C8        1.7427   -13.5567    -8.5140  C.ar    1  <O>11       0.1237
  13 N3        2.6014   -14.3867    -7.9474  N.ar    1  <O>11      -0.2157
  14 C9        2.3588   -14.6672    -6.6776  C.ar    1  <O>11       0.1666
  15 C10       3.2588   -15.5130    -5.9648  C.ar    1  <O>11       0.0193
  16 C11       4.6078   -15.1478    -5.8154  C.ar    1  <O>11      -0.0510
  17 C12       5.4926   -15.9840    -5.1266  C.ar    1  <O>11      -0.0611
  18 C13       5.0410   -17.1869    -4.5773  C.ar    1  <O>11      -0.0617
  19 C14       3.6964   -17.5474    -4.7216  C.ar    1  <O>11      -0.0611
  20 C15       2.8053   -16.7191    -5.4049  C.ar    1  <O>11      -0.0510
  21 N4        1.3259   -14.2218    -5.9845  N.ar    1  <O>11      -0.1748
  22 C16       1.1140   -11.3653    -5.2175  C.ar    1  <O>11      -0.0071
  23 H1        3.0200    -8.8319    -6.2513  H       1  <O>11       0.1453
  24 H2        4.4949    -8.8646    -5.2793  H       1  <O>11       0.1453
  25 H3        0.7403    -8.3872    -3.7098  H       1  <O>11       0.0625
  26 H4       -1.6064    -8.9700    -3.9748  H       1  <O>11       0.0619
  27 H5       -2.2289   -11.0716    -5.0266  H       1  <O>11       0.0654
  28 H6        1.9209   -13.2841    -9.4933  H       1  <O>11       0.1049
  29 H7        4.9469   -14.2591    -6.2156  H       1  <O>11       0.0625
  30 H8        6.4826   -15.7115    -5.0236  H       1  <O>11       0.0618
  31 H9        5.6935   -17.8043    -4.0694  H       1  <O>11       0.0618
  32 H10       3.3602   -18.4357    -4.3182  H       1  <O>11       0.0618
  33 H11       1.8145   -16.9920    -5.4988  H       1  <O>11       0.0625
  34 H12       1.8465   -12.0078    -5.5578  H       1  <O>11       0.0662
@<TRIPOS>BOND
     1     1     2   am
     2     2     3    2
     3     2     4    1
     4     4     5   ar
     5     5     6   ar
     6     6     7   ar
     7     7     8   ar
     8     8     9    1
     9     9    10    1
    10    10    11   ar
    11    11    12   ar
    12    12    13   ar
    13    13    14   ar
    14    14    15    1
    15    15    16   ar
    16    16    17   ar
    17    17    18   ar
    18    18    19   ar
    19    19    20   ar
    20    15    20   ar
    21    14    21   ar
    22    10    21   ar
    23     8    22   ar
    24     4    22   ar
    25     1    23    1
    26     1    24    1
    27     5    25    1
    28     6    26    1
    29     7    27    1
    30    12    28    1
    31    16    29    1
    32    17    30    1
    33    18    31    1
    34    19    32    1
    35    20    33    1
    36    22    34    1
@<TRIPOS>MOLECULE
mol58_1_9
 34 36 0 0 0
SMALL
USER_CHARGES
****
VDW energy = -47.62
@<TRIPOS>ATOM
   1 N1        3.5126    -9.1101    -5.4025  N.am    1  <O>11      -0.3253
   2 C1        2.8552    -9.8129    -4.4288  C.2     1  <O>11       0.2416
   3 O1        3.4454   -10.1461    -3.4119  O.2     1  <O>11      -0.2704
   4 C2        1.4620   -10.1610    -4.6040  C.ar    1  <O>11       0.0400
   5 C3        0.4753    -9.2803    -4.1539  C.ar    1  <O>11      -0.0494
   6 C4       -0.8742    -9.6160    -4.3087  C.ar    1  <O>11      -0.0576
   7 C5       -1.2337   -10.8229    -4.9139  C.ar    1  <O>11      -0.0192
   8 C6       -0.2346   -11.6920    -5.3661  C.ar    1  <O>11       0.1326
   9 O2       -0.5907   -12.8694    -5.9585  O.3     1  <O>11      -0.4235
  10 C7        0.4888   -13.3890    -6.6352  C.ar    1  <O>11       0.3267
  11 N2        1.3258   -14.2216    -5.9856  N.ar    1  <O>11      -0.1831
  12 C8        2.3278   -14.7099    -6.6952  C.ar    1  <O>11       0.1237
  13 N3        2.5808   -14.4149    -7.9587  N.ar    1  <O>11      -0.2157
  14 C9        1.7110   -13.5990    -8.5312  C.ar    1  <O>11       0.1666
  15 C10       1.8700   -13.2629    -9.9078  C.ar    1  <O>11       0.0193
  16 C11       1.8501   -14.2678   -10.8903  C.ar    1  <O>11      -0.0510
  17 C12       2.0184   -13.9385   -12.2393  C.ar    1  <O>11      -0.0611
  18 C13       2.2029   -12.6070   -12.6212  C.ar    1  <O>11      -0.0617
  19 C14       2.2172   -11.6063   -11.6429  C.ar    1  <O>11      -0.0611
  20 C15       2.0478   -11.9242   -10.2949  C.ar    1  <O>11      -0.0510
  21 N4        0.6735   -13.0479    -7.9265  N.ar    1  <O>11      -0.1748
  22 C16       1.1140   -11.3653    -5.2175  C.ar    1  <O>11      -0.0071
  23 H1        3.0200    -8.8319    -6.2513  H       1  <O>11       0.1453
  24 H2        4.4949    -8.8646    -5.2793  H       1  <O>11       0.1453
  25 H3        0.7403    -8.3872    -3.7098  H       1  <O>11       0.0625
  26 H4       -1.6064    -8.9700    -3.9748  H       1  <O>11       0.0619
  27 H5       -2.2289   -11.0716    -5.0266  H       1  <O>11       0.0654
  28 H6        2.9632   -15.3740    -6.2259  H       1  <O>11       0.1049
  29 H7        1.7107   -15.2527   -10.6153  H       1  <O>11       0.0625
  30 H8        2.0063   -14.6816   -12.9553  H       1  <O>11       0.0618
  31 H9        2.3275   -12.3637   -13.6163  H       1  <O>11       0.0618
  32 H10       2.3545   -10.6222   -11.9217  H       1  <O>11       0.0618
  33 H11       2.0530   -11.1769    -9.5831  H       1  <O>11       0.0625
  34 H12       1.8465   -12.0078    -5.5578  H       1  <O>11       0.0662
@<TRIPOS>BOND
     1     1     2   am
     2     2     3    2
     3     2     4    1
     4     4     5   ar
     5     5     6   ar
     6     6     7   ar
     7     7     8   ar
     8     8     9    1
     9     9    10    1
    10    10    11   ar
    11    11    12   ar
    12    12    13   ar
    13    13    14   ar
    14    14    15    1
    15    15    16   ar
    16    16    17   ar
    17    17    18   ar
    18    18    19   ar
    19    19    20   ar
    20    15    20   ar
    21    14    21   ar
    22    10    21   ar
    23     8    22   ar
    24     4    22   ar
    25     1    23    1
    26     1    24    1
    27     5    25    1
    28     6    26    1
    29     7    27    1
    30    12    28    1
    31    16    29    1
    32    17    30    1
    33    18    31    1
    34    19    32    1
    35    20    33    1
    36    22    34    1
@<TRIPOS>MOLECULE
mol58_1_10
 34 36 0 0 0
SMALL
USER_CHARGES
****
VDW energy = -47.50
@<TRIPOS>ATOM
   1 N1        3.5126    -9.1101    -5.4025  N.am    1  <O>11      -0.3253
   2 C1        2.8552    -9.8129    -4.4288  C.2     1  <O>11       0.2416
   3 O1        3.4454   -10.1461    -3.4119  O.2     1  <O>11      -0.2704
   4 C2        1.4620   -10.1610    -4.6040  C.ar    1  <O>11       0.0400
   5 C3        1.0119   -10.5678    -5.8624  C.ar    1  <O>11      -0.0494
   6 C4       -0.3368   -10.8940    -6.0423  C.ar    1  <O>11      -0.0576
   7 C5       -1.2280   -10.8179    -4.9689  C.ar    1  <O>11      -0.0192
   8 C6       -0.7615   -10.4156    -3.7126  C.ar    1  <O>11       0.1326
   9 O2       -1.6356   -10.3445    -2.6662  O.3     1  <O>11      -0.4235
  10 C7       -2.1884    -9.0856    -2.6132  C.ar    1  <O>11       0.3267
  11 N2       -3.3253    -8.8438    -3.2950  N.ar    1  <O>11      -0.1831
  12 C8       -3.8229    -7.6249    -3.1834  C.ar    1  <O>11       0.1237
  13 N3       -3.2745    -6.6387    -2.4949  N.ar    1  <O>11      -0.2157
  14 C9       -2.1660    -6.9542    -1.8454  C.ar    1  <O>11       0.1666
  15 C10      -1.5286    -5.9709    -1.0329  C.ar    1  <O>11       0.0193
  16 C11      -0.3501    -6.2838    -0.3338  C.ar    1  <O>11      -0.0510
  17 C12       0.2678    -5.3223     0.4727  C.ar    1  <O>11      -0.0611
  18 C13      -0.2794    -4.0415     0.5858  C.ar    1  <O>11      -0.0617
  19 C14      -1.4499    -3.7289    -0.1149  C.ar    1  <O>11      -0.0611
  20 C15      -2.0725    -4.6802    -0.9238  C.ar    1  <O>11      -0.0510
  21 N4       -1.5742    -8.1350    -1.8803  N.ar    1  <O>11      -0.1748
  22 C16       0.5822   -10.0896    -3.5229  C.ar    1  <O>11      -0.0071
  23 H1        3.0200    -8.8319    -6.2513  H       1  <O>11       0.1453
  24 H2        4.4949    -8.8646    -5.2793  H       1  <O>11       0.1453
  25 H3        1.6704   -10.6273    -6.6548  H       1  <O>11       0.0625
  26 H4       -0.6744   -11.1918    -6.9709  H       1  <O>11       0.0619
  27 H5       -2.2232   -11.0568    -5.1017  H       1  <O>11       0.0654
  28 H6       -4.7099    -7.4271    -3.6724  H       1  <O>11       0.1049
  29 H7        0.0611    -7.2267    -0.4159  H       1  <O>11       0.0625
  30 H8        1.1309    -5.5597     0.9860  H       1  <O>11       0.0618
  31 H9        0.1759    -3.3320     1.1810  H       1  <O>11       0.0618
  32 H10      -1.8571    -2.7843    -0.0323  H       1  <O>11       0.0618
  33 H11      -2.9313    -4.4360    -1.4413  H       1  <O>11       0.0625
  34 H12       0.9217    -9.7986    -2.5928  H       1  <O>11       0.0662
@<TRIPOS>BOND
     1     1     2   am
     2     2     3    2
     3     2     4    1
     4     4     5   ar
     5     5     6   ar
     6     6     7   ar
     7     7     8   ar
     8     8     9    1
     9     9    10    1
    10    10    11   ar
    11    11    12   ar
    12    12    13   ar
    13    13    14   ar
    14    14    15    1
    15    15    16   ar
    16    16    17   ar
    17    17    18   ar
    18    18    19   ar
    19    19    20   ar
    20    15    20   ar
    21    14    21   ar
    22    10    21   ar
    23     8    22   ar
    24     4    22   ar
    25     1    23    1
    26     1    24    1
    27     5    25    1
    28     6    26    1
    29     7    27    1
    30    12    28    1
    31    16    29    1
    32    17    30    1
    33    18    31    1
    34    19    32    1
    35    20    33    1
    36    22    34    1
@<TRIPOS>MOLECULE
mol58_1_11
 34 36 0 0 0
SMALL
USER_CHARGES
****
VDW energy = -47.44
@<TRIPOS>ATOM
   1 N1        3.5126    -9.1101    -5.4025  N.am    1  <O>11      -0.3253
   2 C1        2.8552    -9.8129    -4.4288  C.2     1  <O>11       0.2416
   3 O1        3.4454   -10.1461    -3.4119  O.2     1  <O>11      -0.2704
   4 C2        1.4620   -10.1610    -4.6040  C.ar    1  <O>11       0.0400
   5 C3        0.4753    -9.2803    -4.1539  C.ar    1  <O>11      -0.0494
   6 C4       -0.8742    -9.6160    -4.3087  C.ar    1  <O>11      -0.0576
   7 C5       -1.2337   -10.8229    -4.9139  C.ar    1  <O>11      -0.0192
   8 C6       -0.2346   -11.6920    -5.3661  C.ar    1  <O>11       0.1326
   9 O2       -0.5907   -12.8694    -5.9585  O.3     1  <O>11      -0.4235
  10 C7        0.4888   -13.3890    -6.6352  C.ar    1  <O>11       0.3267
  11 N2        1.3258   -14.2216    -5.9856  N.ar    1  <O>11      -0.1831
  12 C8        2.3278   -14.7099    -6.6952  C.ar    1  <O>11       0.1237
  13 N3        2.5808   -14.4149    -7.9587  N.ar    1  <O>11      -0.2157
  14 C9        1.7110   -13.5990    -8.5312  C.ar    1  <O>11       0.1666
  15 C10       1.8700   -13.2629    -9.9078  C.ar    1  <O>11       0.0193
  16 C11       3.0395   -12.6212   -10.3508  C.ar    1  <O>11      -0.0510
  17 C12       3.1894   -12.2809   -11.6993  C.ar    1  <O>11      -0.0611
  18 C13       2.1797   -12.5807   -12.6174  C.ar    1  <O>11      -0.0617
  19 C14       1.0178   -13.2246   -12.1767  C.ar    1  <O>11      -0.0611
  20 C15       0.8596   -13.5703   -10.8341  C.ar    1  <O>11      -0.0510
  21 N4        0.6735   -13.0479    -7.9265  N.ar    1  <O>11      -0.1748
  22 C16       1.1140   -11.3653    -5.2175  C.ar    1  <O>11      -0.0071
  23 H1        3.0200    -8.8319    -6.2513  H       1  <O>11       0.1453
  24 H2        4.4949    -8.8646    -5.2793  H       1  <O>11       0.1453
  25 H3        0.7403    -8.3872    -3.7098  H       1  <O>11       0.0625
  26 H4       -1.6064    -8.9700    -3.9748  H       1  <O>11       0.0619
  27 H5       -2.2289   -11.0716    -5.0266  H       1  <O>11       0.0654
  28 H6        2.9632   -15.3740    -6.2259  H       1  <O>11       0.1049
  29 H7        3.7905   -12.4002    -9.6785  H       1  <O>11       0.0625
  30 H8        4.0491   -11.8067   -12.0172  H       1  <O>11       0.0618
  31 H9        2.2897   -12.3294   -13.6123  H       1  <O>11       0.0618
  32 H10       0.2698   -13.4461   -12.8522  H       1  <O>11       0.0618
  33 H11       0.0015   -14.0513   -10.5221  H       1  <O>11       0.0625
  34 H12       1.8465   -12.0078    -5.5578  H       1  <O>11       0.0662
@<TRIPOS>BOND
     1     1     2   am
     2     2     3    2
     3     2     4    1
     4     4     5   ar
     5     5     6   ar
     6     6     7   ar
     7     7     8   ar
     8     8     9    1
     9     9    10    1
    10    10    11   ar
    11    11    12   ar
    12    12    13   ar
    13    13    14   ar
    14    14    15    1
    15    15    16   ar
    16    16    17   ar
    17    17    18   ar
    18    18    19   ar
    19    19    20   ar
    20    15    20   ar
    21    14    21   ar
    22    10    21   ar
    23     8    22   ar
    24     4    22   ar
    25     1    23    1
    26     1    24    1
    27     5    25    1
    28     6    26    1
    29     7    27    1
    30    12    28    1
    31    16    29    1
    32    17    30    1
    33    18    31    1
    34    19    32    1
    35    20    33    1
    36    22    34    1
@<TRIPOS>MOLECULE
mol58_1_12
 34 36 0 0 0
SMALL
USER_CHARGES
****
VDW energy = -47.25
@<TRIPOS>ATOM
   1 N1        3.5126    -9.1101    -5.4025  N.am    1  <O>11      -0.3253
   2 C1        2.8552    -9.8129    -4.4288  C.2     1  <O>11       0.2416
   3 O1        3.4454   -10.1461    -3.4119  O.2     1  <O>11      -0.2704
   4 C2        1.4620   -10.1610    -4.6040  C.ar    1  <O>11       0.0400
   5 C3        0.4753    -9.2803    -4.1539  C.ar    1  <O>11      -0.0494
   6 C4       -0.8742    -9.6160    -4.3087  C.ar    1  <O>11      -0.0576
   7 C5       -1.2337   -10.8229    -4.9139  C.ar    1  <O>11      -0.0192
   8 C6       -0.2346   -11.6920    -5.3661  C.ar    1  <O>11       0.1326
   9 O2       -0.5907   -12.8694    -5.9585  O.3     1  <O>11      -0.4235
  10 C7        0.4888   -13.3890    -6.6352  C.ar    1  <O>11       0.3267
  11 N2        1.0453   -12.6664    -7.6272  N.ar    1  <O>11      -0.1831
  12 C8        2.0954   -13.2053    -8.2212  C.ar    1  <O>11       0.1237
  13 N3        2.6025   -14.3933    -7.9407  N.ar    1  <O>11      -0.2157
  14 C9        2.0091   -15.0389    -6.9501  C.ar    1  <O>11       0.1666
  15 C10       2.5169   -16.3064    -6.5392  C.ar    1  <O>11       0.0193
  16 C11       2.0387   -17.4880    -7.1315  C.ar    1  <O>11      -0.0510
  17 C12       2.5286   -18.7317    -6.7192  C.ar    1  <O>11      -0.0611
  18 C13       3.5007   -18.8088    -5.7185  C.ar    1  <O>11      -0.0617
  19 C14       3.9804   -17.6316    -5.1330  C.ar    1  <O>11      -0.0611
  20 C15       3.5000   -16.3860    -5.5388  C.ar    1  <O>11      -0.0510
  21 N4        0.9545   -14.6043    -6.2832  N.ar    1  <O>11      -0.1748
  22 C16       1.1140   -11.3653    -5.2175  C.ar    1  <O>11      -0.0071
  23 H1        3.0200    -8.8319    -6.2513  H       1  <O>11       0.1453
  24 H2        4.4949    -8.8646    -5.2793  H       1  <O>11       0.1453
  25 H3        0.7403    -8.3872    -3.7098  H       1  <O>11       0.0625
  26 H4       -1.6064    -8.9700    -3.9748  H       1  <O>11       0.0619
  27 H5       -2.2289   -11.0716    -5.0266  H       1  <O>11       0.0654
  28 H6        2.5561   -12.6551    -8.9629  H       1  <O>11       0.1049
  29 H7        1.3233   -17.4378    -7.8736  H       1  <O>11       0.0625
  30 H8        2.1706   -19.5955    -7.1558  H       1  <O>11       0.0618
  31 H9        3.8621   -19.7262    -5.4138  H       1  <O>11       0.0618
  32 H10       4.6975   -17.6854    -4.3928  H       1  <O>11       0.0618
  33 H11       3.8664   -15.5244    -5.1048  H       1  <O>11       0.0625
  34 H12       1.8465   -12.0078    -5.5578  H       1  <O>11       0.0662
@<TRIPOS>BOND
     1     1     2   am
     2     2     3    2
     3     2     4    1
     4     4     5   ar
     5     5     6   ar
     6     6     7   ar
     7     7     8   ar
     8     8     9    1
     9     9    10    1
    10    10    11   ar
    11    11    12   ar
    12    12    13   ar
    13    13    14   ar
    14    14    15    1
    15    15    16   ar
    16    16    17   ar
    17    17    18   ar
    18    18    19   ar
    19    19    20   ar
    20    15    20   ar
    21    14    21   ar
    22    10    21   ar
    23     8    22   ar
    24     4    22   ar
    25     1    23    1
    26     1    24    1
    27     5    25    1
    28     6    26    1
    29     7    27    1
    30    12    28    1
    31    16    29    1
    32    17    30    1
    33    18    31    1
    34    19    32    1
    35    20    33    1
    36    22    34    1
@<TRIPOS>MOLECULE
mol58_1_13
 34 36 0 0 0
SMALL
USER_CHARGES
****
VDW energy = -47.25
@<TRIPOS>ATOM
   1 N1        3.5126    -9.1101    -5.4025  N.am    1  <O>11      -0.3253
   2 C1        2.8552    -9.8129    -4.4288  C.2     1  <O>11       0.2416
   3 O1        3.4454   -10.1461    -3.4119  O.2     1  <O>11      -0.2704
   4 C2        1.4620   -10.1610    -4.6040  C.ar    1  <O>11       0.0400
   5 C3        0.4753    -9.2803    -4.1539  C.ar    1  <O>11      -0.0494
   6 C4       -0.8742    -9.6160    -4.3087  C.ar    1  <O>11      -0.0576
   7 C5       -1.2337   -10.8229    -4.9139  C.ar    1  <O>11      -0.0192
   8 C6       -0.2346   -11.6920    -5.3661  C.ar    1  <O>11       0.1326
   9 O2       -0.5907   -12.8694    -5.9585  O.3     1  <O>11      -0.4235
  10 C7        0.4888   -13.3890    -6.6352  C.ar    1  <O>11       0.3267
  11 N2        1.0453   -12.6664    -7.6272  N.ar    1  <O>11      -0.1831
  12 C8        2.0954   -13.2053    -8.2212  C.ar    1  <O>11       0.1237
  13 N3        2.6025   -14.3933    -7.9407  N.ar    1  <O>11      -0.2157
  14 C9        2.0091   -15.0389    -6.9501  C.ar    1  <O>11       0.1666
  15 C10       2.5169   -16.3064    -6.5392  C.ar    1  <O>11       0.0193
  16 C11       3.5002   -16.3861    -5.5380  C.ar    1  <O>11      -0.0510
  17 C12       4.0064   -17.6291    -5.1442  C.ar    1  <O>11      -0.0611
  18 C13       3.5349   -18.8020    -5.7397  C.ar    1  <O>11      -0.0617
  19 C14       2.5518   -18.7224    -6.7327  C.ar    1  <O>11      -0.0611
  20 C15       2.0387   -17.4874    -7.1309  C.ar    1  <O>11      -0.0510
  21 N4        0.9545   -14.6043    -6.2832  N.ar    1  <O>11      -0.1748
  22 C16       1.1140   -11.3653    -5.2175  C.ar    1  <O>11      -0.0071
  23 H1        3.0200    -8.8319    -6.2513  H       1  <O>11       0.1453
  24 H2        4.4949    -8.8646    -5.2793  H       1  <O>11       0.1453
  25 H3        0.7403    -8.3872    -3.7098  H       1  <O>11       0.0625
  26 H4       -1.6064    -8.9700    -3.9748  H       1  <O>11       0.0619
  27 H5       -2.2289   -11.0716    -5.0266  H       1  <O>11       0.0654
  28 H6        2.5561   -12.6551    -8.9629  H       1  <O>11       0.1049
  29 H7        3.8501   -15.5239    -5.0917  H       1  <O>11       0.0625
  30 H8        4.7309   -17.6802    -4.4110  H       1  <O>11       0.0618
  31 H9        3.9085   -19.7192    -5.4497  H       1  <O>11       0.0618
  32 H10       2.2025   -19.5867    -7.1752  H       1  <O>11       0.0618
  33 H11       1.3088   -17.4417    -7.8591  H       1  <O>11       0.0625
  34 H12       1.8465   -12.0078    -5.5578  H       1  <O>11       0.0662
@<TRIPOS>BOND
     1     1     2   am
     2     2     3    2
     3     2     4    1
     4     4     5   ar
     5     5     6   ar
     6     6     7   ar
     7     7     8   ar
     8     8     9    1
     9     9    10    1
    10    10    11   ar
    11    11    12   ar
    12    12    13   ar
    13    13    14   ar
    14    14    15    1
    15    15    16   ar
    16    16    17   ar
    17    17    18   ar
    18    18    19   ar
    19    19    20   ar
    20    15    20   ar
    21    14    21   ar
    22    10    21   ar
    23     8    22   ar
    24     4    22   ar
    25     1    23    1
    26     1    24    1
    27     5    25    1
    28     6    26    1
    29     7    27    1
    30    12    28    1
    31    16    29    1
    32    17    30    1
    33    18    31    1
    34    19    32    1
    35    20    33    1
    36    22    34    1
@<TRIPOS>MOLECULE
mol58_1_14
 34 36 0 0 0
SMALL
USER_CHARGES
****
VDW energy = -47.03
@<TRIPOS>ATOM
   1 N1        3.5126    -9.1101    -5.4025  N.am    1  <O>11      -0.3253
   2 C1        2.8552    -9.8129    -4.4288  C.2     1  <O>11       0.2416
   3 O1        3.4454   -10.1461    -3.4119  O.2     1  <O>11      -0.2704
   4 C2        1.4620   -10.1610    -4.6040  C.ar    1  <O>11       0.0400
   5 C3        1.0119   -10.5678    -5.8624  C.ar    1  <O>11      -0.0494
   6 C4       -0.3368   -10.8940    -6.0423  C.ar    1  <O>11      -0.0576
   7 C5       -1.2280   -10.8179    -4.9689  C.ar    1  <O>11      -0.0192
   8 C6       -0.7615   -10.4156    -3.7126  C.ar    1  <O>11       0.1326
   9 O2       -1.6356   -10.3445    -2.6662  O.3     1  <O>11      -0.4235
  10 C7       -2.1884    -9.0856    -2.6132  C.ar    1  <O>11       0.3267
  11 N2       -3.0833    -8.8071    -1.6450  N.ar    1  <O>11      -0.1831
  12 C8       -3.5583    -7.5742    -1.6285  C.ar    1  <O>11       0.1237
  13 N3       -3.2511    -6.6282    -2.4992  N.ar    1  <O>11      -0.2157
  14 C9       -2.3598    -6.9732    -3.4140  C.ar    1  <O>11       0.1666
  15 C10      -1.9254    -6.0047    -4.3662  C.ar    1  <O>11       0.0193
  16 C11      -0.9794    -6.3489    -5.3470  C.ar    1  <O>11      -0.0510
  17 C12      -0.5448    -5.3948    -6.2731  C.ar    1  <O>11      -0.0611
  18 C13      -1.0515    -4.0932    -6.2332  C.ar    1  <O>11      -0.0617
  19 C14      -1.9976    -3.7526    -5.2597  C.ar    1  <O>11      -0.0611
  20 C15      -2.4393    -4.6976    -4.3330  C.ar    1  <O>11      -0.0510
  21 N4       -1.8161    -8.1717    -3.5319  N.ar    1  <O>11      -0.1748
  22 C16       0.5822   -10.0896    -3.5229  C.ar    1  <O>11      -0.0071
  23 H1        3.0200    -8.8319    -6.2513  H       1  <O>11       0.1453
  24 H2        4.4949    -8.8646    -5.2793  H       1  <O>11       0.1453
  25 H3        1.6704   -10.6273    -6.6548  H       1  <O>11       0.0625
  26 H4       -0.6744   -11.1918    -6.9709  H       1  <O>11       0.0619
  27 H5       -2.2232   -11.0568    -5.1017  H       1  <O>11       0.0654
  28 H6       -4.2216    -7.3305    -0.8765  H       1  <O>11       0.1049
  29 H7       -0.6039    -7.3094    -5.3842  H       1  <O>11       0.0625
  30 H8        0.1527    -5.6533    -6.9884  H       1  <O>11       0.0618
  31 H9       -0.7308    -3.3889    -6.9159  H       1  <O>11       0.0618
  32 H10      -2.3727    -2.7918    -5.2269  H       1  <O>11       0.0618
  33 H11      -3.1426    -4.4368    -3.6242  H       1  <O>11       0.0625
  34 H12       0.9217    -9.7986    -2.5928  H       1  <O>11       0.0662
@<TRIPOS>BOND
     1     1     2   am
     2     2     3    2
     3     2     4    1
     4     4     5   ar
     5     5     6   ar
     6     6     7   ar
     7     7     8   ar
     8     8     9    1
     9     9    10    1
    10    10    11   ar
    11    11    12   ar
    12    12    13   ar
    13    13    14   ar
    14    14    15    1
    15    15    16   ar
    16    16    17   ar
    17    17    18   ar
    18    18    19   ar
    19    19    20   ar
    20    15    20   ar
    21    14    21   ar
    22    10    21   ar
    23     8    22   ar
    24     4    22   ar
    25     1    23    1
    26     1    24    1
    27     5    25    1
    28     6    26    1
    29     7    27    1
    30    12    28    1
    31    16    29    1
    32    17    30    1
    33    18    31    1
    34    19    32    1
    35    20    33    1
    36    22    34    1
@<TRIPOS>MOLECULE
mol58_1_15
 34 36 0 0 0
SMALL
USER_CHARGES
****
VDW energy = -46.91
@<TRIPOS>ATOM
   1 N1        3.5126    -9.1101    -5.4025  N.am    1  <O>11      -0.3253
   2 C1        2.8552    -9.8129    -4.4288  C.2     1  <O>11       0.2416
   3 O1        3.4454   -10.1461    -3.4119  O.2     1  <O>11      -0.2704
   4 C2        1.4620   -10.1610    -4.6040  C.ar    1  <O>11       0.0400
   5 C3        0.5926    -9.2324    -5.1817  C.ar    1  <O>11      -0.0494
   6 C4       -0.7587    -9.5574    -5.3429  C.ar    1  <O>11      -0.0576
   7 C5       -1.2358   -10.8050    -4.9328  C.ar    1  <O>11      -0.0192
   8 C6       -0.3520   -11.7276    -4.3622  C.ar    1  <O>11       0.1326
   9 O2       -0.8223   -12.9461    -3.9646  O.3     1  <O>11      -0.4235
  10 C7       -1.2366   -12.8744    -2.6545  C.ar    1  <O>11       0.3267
  11 N2       -0.3426   -12.5314    -1.7062  N.ar    1  <O>11      -0.1831
  12 C8       -0.8057   -12.4524    -0.4712  C.ar    1  <O>11       0.1237
  13 N3       -2.0481   -12.7170    -0.1054  N.ar    1  <O>11      -0.2157
  14 C9       -2.8690   -13.0376    -1.0920  C.ar    1  <O>11       0.1666
  15 C10      -4.2425   -13.2901    -0.8037  C.ar    1  <O>11       0.0193
  16 C11      -5.1620   -13.4874    -1.8482  C.ar    1  <O>11      -0.0510
  17 C12      -6.5114   -13.7229    -1.5647  C.ar    1  <O>11      -0.0611
  18 C13      -6.9549   -13.7687    -0.2404  C.ar    1  <O>11      -0.0617
  19 C14      -6.0378   -13.5776     0.7994  C.ar    1  <O>11      -0.0611
  20 C15      -4.6893   -13.3444     0.5271  C.ar    1  <O>11      -0.0510
  21 N4       -2.5238   -13.1494    -2.3625  N.ar    1  <O>11      -0.1748
  22 C16       0.9978   -11.4132    -4.1985  C.ar    1  <O>11      -0.0071
  23 H1        3.0200    -8.8319    -6.2513  H       1  <O>11       0.1453
  24 H2        4.4949    -8.8646    -5.2793  H       1  <O>11       0.1453
  25 H3        0.9451    -8.3121    -5.4877  H       1  <O>11       0.0625
  26 H4       -1.4052    -8.8734    -5.7660  H       1  <O>11       0.0619
  27 H5       -2.2328   -11.0443    -5.0499  H       1  <O>11       0.0654
  28 H6       -0.1451   -12.1611     0.2662  H       1  <O>11       0.1049
  29 H7       -4.8403   -13.4584    -2.8284  H       1  <O>11       0.0625
  30 H8       -7.1819   -13.8634    -2.3365  H       1  <O>11       0.0618
  31 H9       -7.9504   -13.9420    -0.0308  H       1  <O>11       0.0618
  32 H10      -6.3625   -13.6096     1.7784  H       1  <O>11       0.0618
  33 H11      -4.0210   -13.2120     1.3023  H       1  <O>11       0.0625
  34 H12       1.6461   -12.0997    -3.7820  H       1  <O>11       0.0662
@<TRIPOS>BOND
     1     1     2   am
     2     2     3    2
     3     2     4    1
     4     4     5   ar
     5     5     6   ar
     6     6     7   ar
     7     7     8   ar
     8     8     9    1
     9     9    10    1
    10    10    11   ar
    11    11    12   ar
    12    12    13   ar
    13    13    14   ar
    14    14    15    1
    15    15    16   ar
    16    16    17   ar
    17    17    18   ar
    18    18    19   ar
    19    19    20   ar
    20    15    20   ar
    21    14    21   ar
    22    10    21   ar
    23     8    22   ar
    24     4    22   ar
    25     1    23    1
    26     1    24    1
    27     5    25    1
    28     6    26    1
    29     7    27    1
    30    12    28    1
    31    16    29    1
    32    17    30    1
    33    18    31    1
    34    19    32    1
    35    20    33    1
    36    22    34    1
@<TRIPOS>MOLECULE
mol58_1_16
 34 36 0 0 0
SMALL
USER_CHARGES
****
VDW energy = -46.50
@<TRIPOS>ATOM
   1 N1        3.5126    -9.1101    -5.4025  N.am    1  <O>11      -0.3253
   2 C1        2.8552    -9.8129    -4.4288  C.2     1  <O>11       0.2416
   3 O1        3.4454   -10.1461    -3.4119  O.2     1  <O>11      -0.2704
   4 C2        1.4620   -10.1610    -4.6040  C.ar    1  <O>11       0.0400
   5 C3        1.0119   -10.5678    -5.8624  C.ar    1  <O>11      -0.0494
   6 C4       -0.3368   -10.8940    -6.0423  C.ar    1  <O>11      -0.0576
   7 C5       -1.2280   -10.8179    -4.9689  C.ar    1  <O>11      -0.0192
   8 C6       -0.7615   -10.4156    -3.7126  C.ar    1  <O>11       0.1326
   9 O2       -1.6356   -10.3445    -2.6662  O.3     1  <O>11      -0.4235
  10 C7       -0.9343   -10.2863    -1.4839  C.ar    1  <O>11       0.3267
  11 N2       -0.5866    -9.0812    -0.9911  N.ar    1  <O>11      -0.1831
  12 C8        0.0611    -9.0882     0.1606  C.ar    1  <O>11       0.1237
  13 N3        0.4159   -10.1726     0.8280  N.ar    1  <O>11      -0.2157
  14 C9        0.0319   -11.3172     0.2871  C.ar    1  <O>11       0.1666
  15 C10       0.3228   -12.5402     0.9602  C.ar    1  <O>11       0.0193
  16 C11      -0.5890   -13.0740     1.8872  C.ar    1  <O>11      -0.0510
  17 C12      -0.2973   -14.2674     2.5560  C.ar    1  <O>11      -0.0611
  18 C13       0.9008   -14.9408     2.3041  C.ar    1  <O>11      -0.0617
  19 C14       1.8059   -14.4116     1.3769  C.ar    1  <O>11      -0.0611
  20 C15       1.5232   -13.2231     0.7028  C.ar    1  <O>11      -0.0510
  21 N4       -0.6179   -11.4373    -0.8570  N.ar    1  <O>11      -0.1748
  22 C16       0.5822   -10.0896    -3.5229  C.ar    1  <O>11      -0.0071
  23 H1        3.0200    -8.8319    -6.2513  H       1  <O>11       0.1453
  24 H2        4.4949    -8.8646    -5.2793  H       1  <O>11       0.1453
  25 H3        1.6704   -10.6273    -6.6548  H       1  <O>11       0.0625
  26 H4       -0.6744   -11.1918    -6.9709  H       1  <O>11       0.0619
  27 H5       -2.2232   -11.0568    -5.1017  H       1  <O>11       0.0654
  28 H6        0.3096    -8.1748     0.5716  H       1  <O>11       0.1049
  29 H7       -1.4773   -12.5835     2.0752  H       1  <O>11       0.0625
  30 H8       -0.9696   -14.6520     3.2380  H       1  <O>11       0.0618
  31 H9        1.1166   -15.8211     2.7976  H       1  <O>11       0.0618
  32 H10       2.6921   -14.9060     1.1897  H       1  <O>11       0.0618
  33 H11       2.1950   -12.8462     0.0160  H       1  <O>11       0.0625
  34 H12       0.9217    -9.7986    -2.5928  H       1  <O>11       0.0662
@<TRIPOS>BOND
     1     1     2   am
     2     2     3    2
     3     2     4    1
     4     4     5   ar
     5     5     6   ar
     6     6     7   ar
     7     7     8   ar
     8     8     9    1
     9     9    10    1
    10    10    11   ar
    11    11    12   ar
    12    12    13   ar
    13    13    14   ar
    14    14    15    1
    15    15    16   ar
    16    16    17   ar
    17    17    18   ar
    18    18    19   ar
    19    19    20   ar
    20    15    20   ar
    21    14    21   ar
    22    10    21   ar
    23     8    22   ar
    24     4    22   ar
    25     1    23    1
    26     1    24    1
    27     5    25    1
    28     6    26    1
    29     7    27    1
    30    12    28    1
    31    16    29    1
    32    17    30    1
    33    18    31    1
    34    19    32    1
    35    20    33    1
    36    22    34    1
@<TRIPOS>MOLECULE
mol58_1_17
 34 36 0 0 0
SMALL
USER_CHARGES
****
VDW energy = -45.88
@<TRIPOS>ATOM
   1 N1        3.5126    -9.1101    -5.4025  N.am    1  <O>11      -0.3253
   2 C1        2.8552    -9.8129    -4.4288  C.2     1  <O>11       0.2416
   3 O1        3.4454   -10.1461    -3.4119  O.2     1  <O>11      -0.2704
   4 C2        1.4620   -10.1610    -4.6040  C.ar    1  <O>11       0.0400
   5 C3        0.4753    -9.2803    -4.1539  C.ar    1  <O>11      -0.0494
   6 C4       -0.8742    -9.6160    -4.3087  C.ar    1  <O>11      -0.0576
   7 C5       -1.2337   -10.8229    -4.9139  C.ar    1  <O>11      -0.0192
   8 C6       -0.2346   -11.6920    -5.3661  C.ar    1  <O>11       0.1326
   9 O2       -0.5907   -12.8694    -5.9585  O.3     1  <O>11      -0.4235
  10 C7        0.4888   -13.3890    -6.6352  C.ar    1  <O>11       0.3267
  11 N2        1.0453   -12.6664    -7.6272  N.ar    1  <O>11      -0.1831
  12 C8        2.0954   -13.2053    -8.2212  C.ar    1  <O>11       0.1237
  13 N3        2.6025   -14.3933    -7.9407  N.ar    1  <O>11      -0.2157
  14 C9        2.0091   -15.0389    -6.9501  C.ar    1  <O>11       0.1666
  15 C10       2.5169   -16.3064    -6.5392  C.ar    1  <O>11       0.0193
  16 C11       3.8358   -16.4233    -6.0677  C.ar    1  <O>11      -0.0510
  17 C12       4.3369   -17.6692    -5.6763  C.ar    1  <O>11      -0.0611
  18 C13       3.5284   -18.8068    -5.7465  C.ar    1  <O>11      -0.0617
  19 C14       2.2134   -18.6888    -6.2109  C.ar    1  <O>11      -0.0611
  20 C15       1.7034   -17.4501    -6.6015  C.ar    1  <O>11      -0.0510
  21 N4        0.9545   -14.6043    -6.2832  N.ar    1  <O>11      -0.1748
  22 C16       1.1140   -11.3653    -5.2175  C.ar    1  <O>11      -0.0071
  23 H1        3.0200    -8.8319    -6.2513  H       1  <O>11       0.1453
  24 H2        4.4949    -8.8646    -5.2793  H       1  <O>11       0.1453
  25 H3        0.7403    -8.3872    -3.7098  H       1  <O>11       0.0625
  26 H4       -1.6064    -8.9700    -3.9748  H       1  <O>11       0.0619
  27 H5       -2.2289   -11.0716    -5.0266  H       1  <O>11       0.0654
  28 H6        2.5561   -12.6551    -8.9629  H       1  <O>11       0.1049
  29 H7        4.4370   -15.5865    -6.0100  H       1  <O>11       0.0625
  30 H8        5.3074   -17.7486    -5.3344  H       1  <O>11       0.0618
  31 H9        3.8979   -19.7263    -5.4583  H       1  <O>11       0.0618
  32 H10       1.6143   -19.5273    -6.2651  H       1  <O>11       0.0618
  33 H11       0.7299   -17.3742    -6.9355  H       1  <O>11       0.0625
  34 H12       1.8465   -12.0078    -5.5578  H       1  <O>11       0.0662
@<TRIPOS>BOND
     1     1     2   am
     2     2     3    2
     3     2     4    1
     4     4     5   ar
     5     5     6   ar
     6     6     7   ar
     7     7     8   ar
     8     8     9    1
     9     9    10    1
    10    10    11   ar
    11    11    12   ar
    12    12    13   ar
    13    13    14   ar
    14    14    15    1
    15    15    16   ar
    16    16    17   ar
    17    17    18   ar
    18    18    19   ar
    19    19    20   ar
    20    15    20   ar
    21    14    21   ar
    22    10    21   ar
    23     8    22   ar
    24     4    22   ar
    25     1    23    1
    26     1    24    1
    27     5    25    1
    28     6    26    1
    29     7    27    1
    30    12    28    1
    31    16    29    1
    32    17    30    1
    33    18    31    1
    34    19    32    1
    35    20    33    1
    36    22    34    1
@<TRIPOS>MOLECULE
mol58_1_18
 34 36 0 0 0
SMALL
USER_CHARGES
****
VDW energy = -45.19
@<TRIPOS>ATOM
   1 N1        3.5126    -9.1101    -5.4025  N.am    1  <O>11      -0.3253
   2 C1        2.8552    -9.8129    -4.4288  C.2     1  <O>11       0.2416
   3 O1        3.4454   -10.1461    -3.4119  O.2     1  <O>11      -0.2704
   4 C2        1.4620   -10.1610    -4.6040  C.ar    1  <O>11       0.0400
   5 C3        1.0119   -10.5678    -5.8624  C.ar    1  <O>11      -0.0494
   6 C4       -0.3368   -10.8940    -6.0423  C.ar    1  <O>11      -0.0576
   7 C5       -1.2280   -10.8179    -4.9689  C.ar    1  <O>11      -0.0192
   8 C6       -0.7615   -10.4156    -3.7126  C.ar    1  <O>11       0.1326
   9 O2       -1.6356   -10.3445    -2.6662  O.3     1  <O>11      -0.4235
  10 C7       -2.1876   -11.5848    -2.4427  C.ar    1  <O>11       0.3267
  11 N2       -1.5738   -12.4270    -1.5883  N.ar    1  <O>11      -0.1831
  12 C8       -2.1658   -13.5921    -1.3935  C.ar    1  <O>11       0.1237
  13 N3       -3.2729   -13.9935    -1.9938  N.ar    1  <O>11      -0.2157
  14 C9       -3.8223   -13.1097    -2.8107  C.ar    1  <O>11       0.1666
  15 C10      -5.0476   -13.4311    -3.4655  C.ar    1  <O>11       0.0193
  16 C11      -5.7251   -12.4579    -4.2202  C.ar    1  <O>11      -0.0510
  17 C12      -6.9332   -12.7706    -4.8521  C.ar    1  <O>11      -0.0611
  18 C13      -7.4736   -14.0545    -4.7419  C.ar    1  <O>11      -0.0617
  19 C14      -6.7957   -15.0246    -3.9948  C.ar    1  <O>11      -0.0611
  20 C15      -5.5888   -14.7234    -3.3626  C.ar    1  <O>11      -0.0510
  21 N4       -3.3251   -11.9169    -3.0859  N.ar    1  <O>11      -0.1748
  22 C16       0.5822   -10.0896    -3.5229  C.ar    1  <O>11      -0.0071
  23 H1        3.0200    -8.8319    -6.2513  H       1  <O>11       0.1453
  24 H2        4.4949    -8.8646    -5.2793  H       1  <O>11       0.1453
  25 H3        1.6704   -10.6273    -6.6548  H       1  <O>11       0.0625
  26 H4       -0.6744   -11.1918    -6.9709  H       1  <O>11       0.0619
  27 H5       -2.2232   -11.0568    -5.1017  H       1  <O>11       0.0654
  28 H6       -1.7291   -14.2401    -0.7193  H       1  <O>11       0.1049
  29 H7       -5.3295   -11.5089    -4.3085  H       1  <O>11       0.0625
  30 H8       -7.4272   -12.0504    -5.4018  H       1  <O>11       0.0618
  31 H9       -8.3651   -14.2855    -5.2076  H       1  <O>11       0.0618
  32 H10      -7.1930   -15.9733    -3.9105  H       1  <O>11       0.0618
  33 H11      -5.0944   -15.4490    -2.8203  H       1  <O>11       0.0625
  34 H12       0.9217    -9.7986    -2.5928  H       1  <O>11       0.0662
@<TRIPOS>BOND
     1     1     2   am
     2     2     3    2
     3     2     4    1
     4     4     5   ar
     5     5     6   ar
     6     6     7   ar
     7     7     8   ar
     8     8     9    1
     9     9    10    1
    10    10    11   ar
    11    11    12   ar
    12    12    13   ar
    13    13    14   ar
    14    14    15    1
    15    15    16   ar
    16    16    17   ar
    17    17    18   ar
    18    18    19   ar
    19    19    20   ar
    20    15    20   ar
    21    14    21   ar
    22    10    21   ar
    23     8    22   ar
    24     4    22   ar
    25     1    23    1
    26     1    24    1
    27     5    25    1
    28     6    26    1
    29     7    27    1
    30    12    28    1
    31    16    29    1
    32    17    30    1
    33    18    31    1
    34    19    32    1
    35    20    33    1
    36    22    34    1
@<TRIPOS>MOLECULE
mol58_1_19
 34 36 0 0 0
SMALL
USER_CHARGES
****
VDW energy = -44.63
@<TRIPOS>ATOM
   1 N1        3.5126    -9.1101    -5.4025  N.am    1  <O>11      -0.3253
   2 C1        2.8552    -9.8129    -4.4288  C.2     1  <O>11       0.2416
   3 O1        3.4454   -10.1461    -3.4119  O.2     1  <O>11      -0.2704
   4 C2        1.4620   -10.1610    -4.6040  C.ar    1  <O>11       0.0400
   5 C3        1.0119   -10.5678    -5.8624  C.ar    1  <O>11      -0.0494
   6 C4       -0.3368   -10.8940    -6.0423  C.ar    1  <O>11      -0.0576
   7 C5       -1.2280   -10.8179    -4.9689  C.ar    1  <O>11      -0.0192
   8 C6       -0.7615   -10.4156    -3.7126  C.ar    1  <O>11       0.1326
   9 O2       -1.6356   -10.3445    -2.6662  O.3     1  <O>11      -0.4235
  10 C7       -2.6348    -9.4459    -2.9616  C.ar    1  <O>11       0.3267
  11 N2       -3.7485    -9.8889    -3.5775  N.ar    1  <O>11      -0.1831
  12 C8       -4.6838    -8.9850    -3.8101  C.ar    1  <O>11       0.1237
  13 N3       -4.5883    -7.6988    -3.5205  N.ar    1  <O>11      -0.2157
  14 C9       -3.4710    -7.3409    -2.9093  C.ar    1  <O>11       0.1666
  15 C10      -3.2974    -5.9831    -2.5097  C.ar    1  <O>11       0.0193
  16 C11      -2.1185    -5.5803    -1.8589  C.ar    1  <O>11      -0.0510
  17 C12      -1.9543    -4.2508    -1.4564  C.ar    1  <O>11      -0.0611
  18 C13      -2.9592    -3.3116    -1.7024  C.ar    1  <O>11      -0.0617
  19 C14      -4.1306    -3.7121    -2.3553  C.ar    1  <O>11      -0.0611
  20 C15      -4.3030    -5.0354    -2.7630  C.ar    1  <O>11      -0.0510
  21 N4       -2.4668    -8.1512    -2.6249  N.ar    1  <O>11      -0.1748
  22 C16       0.5822   -10.0896    -3.5229  C.ar    1  <O>11      -0.0071
  23 H1        3.0200    -8.8319    -6.2513  H       1  <O>11       0.1453
  24 H2        4.4949    -8.8646    -5.2793  H       1  <O>11       0.1453
  25 H3        1.6704   -10.6273    -6.6548  H       1  <O>11       0.0625
  26 H4       -0.6744   -11.1918    -6.9709  H       1  <O>11       0.0619
  27 H5       -2.2232   -11.0568    -5.1017  H       1  <O>11       0.0654
  28 H6       -5.5579    -9.3087    -4.2529  H       1  <O>11       0.1049
  29 H7       -1.3710    -6.2683    -1.6774  H       1  <O>11       0.0625
  30 H8       -1.0877    -3.9625    -0.9759  H       1  <O>11       0.0618
  31 H9       -2.8386    -2.3307    -1.4052  H       1  <O>11       0.0618
  32 H10      -4.8750    -3.0210    -2.5373  H       1  <O>11       0.0618
  33 H11      -5.1681    -5.3175    -3.2499  H       1  <O>11       0.0625
  34 H12       0.9217    -9.7986    -2.5928  H       1  <O>11       0.0662
@<TRIPOS>BOND
     1     1     2   am
     2     2     3    2
     3     2     4    1
     4     4     5   ar
     5     5     6   ar
     6     6     7   ar
     7     7     8   ar
     8     8     9    1
     9     9    10    1
    10    10    11   ar
    11    11    12   ar
    12    12    13   ar
    13    13    14   ar
    14    14    15    1
    15    15    16   ar
    16    16    17   ar
    17    17    18   ar
    18    18    19   ar
    19    19    20   ar
    20    15    20   ar
    21    14    21   ar
    22    10    21   ar
    23     8    22   ar
    24     4    22   ar
    25     1    23    1
    26     1    24    1
    27     5    25    1
    28     6    26    1
    29     7    27    1
    30    12    28    1
    31    16    29    1
    32    17    30    1
    33    18    31    1
    34    19    32    1
    35    20    33    1
    36    22    34    1
@<TRIPOS>MOLECULE
mol58_1_20
 34 36 0 0 0
SMALL
USER_CHARGES
****
VDW energy = -44.25
@<TRIPOS>ATOM
   1 N1        3.5126    -9.1101    -5.4025  N.am    1  <O>11      -0.3253
   2 C1        2.8552    -9.8129    -4.4288  C.2     1  <O>11       0.2416
   3 O1        3.4454   -10.1461    -3.4119  O.2     1  <O>11      -0.2704
   4 C2        1.4620   -10.1610    -4.6040  C.ar    1  <O>11       0.0400
   5 C3        1.0119   -10.5678    -5.8624  C.ar    1  <O>11      -0.0494
   6 C4       -0.3368   -10.8940    -6.0423  C.ar    1  <O>11      -0.0576
   7 C5       -1.2280   -10.8179    -4.9689  C.ar    1  <O>11      -0.0192
   8 C6       -0.7615   -10.4156    -3.7126  C.ar    1  <O>11       0.1326
   9 O2       -1.6356   -10.3445    -2.6662  O.3     1  <O>11      -0.4235
  10 C7       -0.9343   -10.2863    -1.4839  C.ar    1  <O>11       0.3267
  11 N2       -0.1081   -11.3022    -1.1656  N.ar    1  <O>11      -0.1831
  12 C8        0.5587   -11.1767    -0.0317  C.ar    1  <O>11       0.1237
  13 N3        0.4453   -10.1640     0.8102  N.ar    1  <O>11      -0.2157
  14 C9       -0.3769    -9.2016     0.4254  C.ar    1  <O>11       0.1666
  15 C10      -0.5265    -8.0426     1.2426  C.ar    1  <O>11       0.0193
  16 C11       0.3083    -6.9279     1.0523  C.ar    1  <O>11      -0.0510
  17 C12       0.1688    -5.7961     1.8624  C.ar    1  <O>11      -0.0611
  18 C13      -0.8049    -5.7630     2.8641  C.ar    1  <O>11      -0.0617
  19 C14      -1.6394    -6.8712     3.0494  C.ar    1  <O>11      -0.0611
  20 C15      -1.5099    -8.0040     2.2451  C.ar    1  <O>11      -0.0510
  21 N4       -1.0965    -9.2142    -0.6826  N.ar    1  <O>11      -0.1748
  22 C16       0.5822   -10.0896    -3.5229  C.ar    1  <O>11      -0.0071
  23 H1        3.0200    -8.8319    -6.2513  H       1  <O>11       0.1453
  24 H2        4.4949    -8.8646    -5.2793  H       1  <O>11       0.1453
  25 H3        1.6704   -10.6273    -6.6548  H       1  <O>11       0.0625
  26 H4       -0.6744   -11.1918    -6.9709  H       1  <O>11       0.0619
  27 H5       -2.2232   -11.0568    -5.1017  H       1  <O>11       0.0654
  28 H6        1.2204   -11.9289     0.2161  H       1  <O>11       0.1049
  29 H7        1.0270    -6.9445     0.3120  H       1  <O>11       0.0625
  30 H8        0.7873    -4.9824     1.7197  H       1  <O>11       0.0618
  31 H9       -0.9078    -4.9284     3.4622  H       1  <O>11       0.0618
  32 H10      -2.3586    -6.8502     3.7892  H       1  <O>11       0.0618
  33 H11      -2.1357    -8.8123     2.3864  H       1  <O>11       0.0625
  34 H12       0.9217    -9.7986    -2.5928  H       1  <O>11       0.0662
@<TRIPOS>BOND
     1     1     2   am
     2     2     3    2
     3     2     4    1
     4     4     5   ar
     5     5     6   ar
     6     6     7   ar
     7     7     8   ar
     8     8     9    1
     9     9    10    1
    10    10    11   ar
    11    11    12   ar
    12    12    13   ar
    13    13    14   ar
    14    14    15    1
    15    15    16   ar
    16    16    17   ar
    17    17    18   ar
    18    18    19   ar
    19    19    20   ar
    20    15    20   ar
    21    14    21   ar
    22    10    21   ar
    23     8    22   ar
    24     4    22   ar
    25     1    23    1
    26     1    24    1
    27     5    25    1
    28     6    26    1
    29     7    27    1
    30    12    28    1
    31    16    29    1
    32    17    30    1
    33    18    31    1
    34    19    32    1
    35    20    33    1
    36    22    34    1
@<TRIPOS>MOLECULE
mol58_1_21
 34 36 0 0 0
SMALL
USER_CHARGES
****
VDW energy = -43.43
@<TRIPOS>ATOM
   1 N1        3.5126    -9.1101    -5.4025  N.am    1  <O>11      -0.3253
   2 C1        2.8552    -9.8129    -4.4288  C.2     1  <O>11       0.2416
   3 O1        3.4454   -10.1461    -3.4119  O.2     1  <O>11      -0.2704
   4 C2        1.4620   -10.1610    -4.6040  C.ar    1  <O>11       0.0400
   5 C3        0.8676   -11.0673    -3.7225  C.ar    1  <O>11      -0.0494
   6 C4       -0.4761   -11.4183    -3.8934  C.ar    1  <O>11      -0.0576
   7 C5       -1.2209   -10.8624    -4.9366  C.ar    1  <O>11      -0.0192
   8 C6       -0.6142    -9.9507    -5.8075  C.ar    1  <O>11       0.1326
   9 O2       -1.3465    -9.4087    -6.8244  O.3     1  <O>11      -0.4235
  10 C7       -1.2390   -10.2029    -7.9429  C.ar    1  <O>11       0.3267
  11 N2       -2.0312    -9.9468    -9.0025  N.ar    1  <O>11      -0.1831
  12 C8       -1.8629   -10.7255   -10.0567  C.ar    1  <O>11       0.1237
  13 N3       -1.0166   -11.7384   -10.1277  N.ar    1  <O>11      -0.2157
  14 C9       -0.2672   -11.9221    -9.0531  C.ar    1  <O>11       0.1666
  15 C10       0.7126   -12.9582    -9.0535  C.ar    1  <O>11       0.0193
  16 C11       1.6178   -13.0790    -7.9851  C.ar    1  <O>11      -0.0510
  17 C12       2.5863   -14.0882    -7.9922  C.ar    1  <O>11      -0.0611
  18 C13       2.6584   -14.9872    -9.0595  C.ar    1  <O>11      -0.0617
  19 C14       1.7532   -14.8697   -10.1205  C.ar    1  <O>11      -0.0611
  20 C15       0.7819   -13.8680   -10.1217  C.ar    1  <O>11      -0.0510
  21 N4       -0.3441   -11.2113    -7.9419  N.ar    1  <O>11      -0.1748
  22 C16       0.7249    -9.5933    -5.6444  C.ar    1  <O>11      -0.0071
  23 H1        3.0200    -8.8319    -6.2513  H       1  <O>11       0.1453
  24 H2        4.4949    -8.8646    -5.2793  H       1  <O>11       0.1453
  25 H3        1.4164   -11.4757    -2.9498  H       1  <O>11       0.0625
  26 H4       -0.9184   -12.0899    -3.2467  H       1  <O>11       0.0619
  27 H5       -2.2115   -11.1224    -5.0639  H       1  <O>11       0.0654
  28 H6       -2.4376   -10.5271   -10.8905  H       1  <O>11       0.1049
  29 H7        1.5676   -12.4205    -7.1921  H       1  <O>11       0.0625
  30 H8        3.2502   -14.1691    -7.2062  H       1  <O>11       0.0618
  31 H9        3.3731   -15.7316    -9.0653  H       1  <O>11       0.0618
  32 H10       1.8048   -15.5314   -10.9107  H       1  <O>11       0.0618
  33 H11       0.1153   -13.7957   -10.9062  H       1  <O>11       0.0625
  34 H12       1.1657    -8.9163    -6.2866  H       1  <O>11       0.0662
@<TRIPOS>BOND
     1     1     2   am
     2     2     3    2
     3     2     4    1
     4     4     5   ar
     5     5     6   ar
     6     6     7   ar
     7     7     8   ar
     8     8     9    1
     9     9    10    1
    10    10    11   ar
    11    11    12   ar
    12    12    13   ar
    13    13    14   ar
    14    14    15    1
    15    15    16   ar
    16    16    17   ar
    17    17    18   ar
    18    18    19   ar
    19    19    20   ar
    20    15    20   ar
    21    14    21   ar
    22    10    21   ar
    23     8    22   ar
    24     4    22   ar
    25     1    23    1
    26     1    24    1
    27     5    25    1
    28     6    26    1
    29     7    27    1
    30    12    28    1
    31    16    29    1
    32    17    30    1
    33    18    31    1
    34    19    32    1
    35    20    33    1
    36    22    34    1
@<TRIPOS>MOLECULE
mol58_1_22
 34 36 0 0 0
SMALL
USER_CHARGES
****
VDW energy = -41.87
@<TRIPOS>ATOM
   1 N1        3.5126    -9.1101    -5.4025  N.am    1  <O>11      -0.3253
   2 C1        2.8552    -9.8129    -4.4288  C.2     1  <O>11       0.2416
   3 O1        3.4454   -10.1461    -3.4119  O.2     1  <O>11      -0.2704
   4 C2        1.4620   -10.1610    -4.6040  C.ar    1  <O>11       0.0400
   5 C3        0.8676   -11.0673    -3.7225  C.ar    1  <O>11      -0.0494
   6 C4       -0.4761   -11.4183    -3.8934  C.ar    1  <O>11      -0.0576
   7 C5       -1.2209   -10.8624    -4.9366  C.ar    1  <O>11      -0.0192
   8 C6       -0.6142    -9.9507    -5.8075  C.ar    1  <O>11       0.1326
   9 O2       -1.3465    -9.4087    -6.8244  O.3     1  <O>11      -0.4235
  10 C7       -0.6956    -8.3032    -7.3217  C.ar    1  <O>11       0.3267
  11 N2        0.1821    -8.4633    -8.3317  N.ar    1  <O>11      -0.1831
  12 C8        0.7548    -7.3622    -8.7851  C.ar    1  <O>11       0.1237
  13 N3        0.5583    -6.1475    -8.3022  N.ar    1  <O>11      -0.2157
  14 C9       -0.3231    -6.0685    -7.3188  C.ar    1  <O>11       0.1666
  15 C10      -0.6413    -4.7928    -6.7668  C.ar    1  <O>11       0.0193
  16 C11      -1.6930    -4.0300    -7.3032  C.ar    1  <O>11      -0.0510
  17 C12      -1.9965    -2.7735    -6.7688  C.ar    1  <O>11      -0.0611
  18 C13      -1.2595    -2.2687    -5.6943  C.ar    1  <O>11      -0.0617
  19 C14      -0.2160    -3.0311    -5.1571  C.ar    1  <O>11      -0.0611
  20 C15       0.0932    -4.2867    -5.6814  C.ar    1  <O>11      -0.0510
  21 N4       -0.9576    -7.0957    -6.7822  N.ar    1  <O>11      -0.1748
  22 C16       0.7249    -9.5933    -5.6444  C.ar    1  <O>11      -0.0071
  23 H1        3.0200    -8.8319    -6.2513  H       1  <O>11       0.1453
  24 H2        4.4949    -8.8646    -5.2793  H       1  <O>11       0.1453
  25 H3        1.4164   -11.4757    -2.9498  H       1  <O>11       0.0625
  26 H4       -0.9184   -12.0899    -3.2467  H       1  <O>11       0.0619
  27 H5       -2.2115   -11.1224    -5.0639  H       1  <O>11       0.0654
  28 H6        1.4070    -7.4581    -9.5791  H       1  <O>11       0.1049
  29 H7       -2.2434    -4.3986    -8.0944  H       1  <O>11       0.0625
  30 H8       -2.7677    -2.2171    -7.1697  H       1  <O>11       0.0618
  31 H9       -1.4829    -1.3415    -5.3001  H       1  <O>11       0.0618
  32 H10       0.3309    -2.6604    -4.3644  H       1  <O>11       0.0618
  33 H11       0.8603    -4.8428    -5.2724  H       1  <O>11       0.0625
  34 H12       1.1657    -8.9163    -6.2866  H       1  <O>11       0.0662
@<TRIPOS>BOND
     1     1     2   am
     2     2     3    2
     3     2     4    1
     4     4     5   ar
     5     5     6   ar
     6     6     7   ar
     7     7     8   ar
     8     8     9    1
     9     9    10    1
    10    10    11   ar
    11    11    12   ar
    12    12    13   ar
    13    13    14   ar
    14    14    15    1
    15    15    16   ar
    16    16    17   ar
    17    17    18   ar
    18    18    19   ar
    19    19    20   ar
    20    15    20   ar
    21    14    21   ar
    22    10    21   ar
    23     8    22   ar
    24     4    22   ar
    25     1    23    1
    26     1    24    1
    27     5    25    1
    28     6    26    1
    29     7    27    1
    30    12    28    1
    31    16    29    1
    32    17    30    1
    33    18    31    1
    34    19    32    1
    35    20    33    1
    36    22    34    1
@<TRIPOS>MOLECULE
mol58_1_23
 34 36 0 0 0
SMALL
USER_CHARGES
****
VDW energy = -41.83
@<TRIPOS>ATOM
   1 N1        3.5126    -9.1101    -5.4025  N.am    1  <O>11      -0.3253
   2 C1        2.8552    -9.8129    -4.4288  C.2     1  <O>11       0.2416
   3 O1        3.4454   -10.1461    -3.4119  O.2     1  <O>11      -0.2704
   4 C2        1.4620   -10.1610    -4.6040  C.ar    1  <O>11       0.0400
   5 C3        1.1317   -11.3708    -5.2197  C.ar    1  <O>11      -0.0494
   6 C4       -0.2136   -11.7084    -5.4038  C.ar    1  <O>11      -0.0576
   7 C5       -1.2215   -10.8431    -4.9705  C.ar    1  <O>11      -0.0192
   8 C6       -0.8757    -9.6381    -4.3492  C.ar    1  <O>11       0.1326
   9 O2       -1.8640    -8.7965    -3.9259  O.3     1  <O>11      -0.4235
  10 C7       -1.3398    -7.8762    -3.0475  C.ar    1  <O>11       0.3267
  11 N2       -0.8586    -6.7142    -3.5313  N.ar    1  <O>11      -0.1831
  12 C8       -0.3938    -5.8595    -2.6373  C.ar    1  <O>11       0.1237
  13 N3       -0.3356    -6.0767    -1.3347  N.ar    1  <O>11      -0.2157
  14 C9       -0.8346    -7.2346    -0.9343  C.ar    1  <O>11       0.1666
  15 C10      -0.8639    -7.5383     0.4586  C.ar    1  <O>11       0.0193
  16 C11      -1.5199    -8.6929     0.9193  C.ar    1  <O>11      -0.0510
  17 C12      -1.5585    -8.9836     2.2870  C.ar    1  <O>11      -0.0611
  18 C13      -0.9411    -8.1308     3.2057  C.ar    1  <O>11      -0.0617
  19 C14      -0.2834    -6.9842     2.7459  C.ar    1  <O>11      -0.0611
  20 C15      -0.2371    -6.6865     1.3834  C.ar    1  <O>11      -0.0510
  21 N4       -1.3250    -8.1674    -1.7312  N.ar    1  <O>11      -0.1748
  22 C16       0.4633    -9.2931    -4.1598  C.ar    1  <O>11      -0.0071
  23 H1        3.0200    -8.8319    -6.2513  H       1  <O>11       0.1453
  24 H2        4.4949    -8.8646    -5.2793  H       1  <O>11       0.1453
  25 H3        1.8757   -12.0117    -5.5369  H       1  <O>11       0.0625
  26 H4       -0.4623   -12.5995    -5.8611  H       1  <O>11       0.0619
  27 H5       -2.2138   -11.0910    -5.1078  H       1  <O>11       0.0654
  28 H6       -0.0490    -4.9504    -2.9833  H       1  <O>11       0.1049
  29 H7       -1.9748    -9.3287     0.2457  H       1  <O>11       0.0625
  30 H8       -2.0449    -9.8312     2.6188  H       1  <O>11       0.0618
  31 H9       -0.9698    -8.3447     4.2149  H       1  <O>11       0.0618
  32 H10       0.1725    -6.3518     3.4221  H       1  <O>11       0.0618
  33 H11       0.2570    -5.8419     1.0556  H       1  <O>11       0.0625
  34 H12       0.7123    -8.4055    -3.6961  H       1  <O>11       0.0662
@<TRIPOS>BOND
     1     1     2   am
     2     2     3    2
     3     2     4    1
     4     4     5   ar
     5     5     6   ar
     6     6     7   ar
     7     7     8   ar
     8     8     9    1
     9     9    10    1
    10    10    11   ar
    11    11    12   ar
    12    12    13   ar
    13    13    14   ar
    14    14    15    1
    15    15    16   ar
    16    16    17   ar
    17    17    18   ar
    18    18    19   ar
    19    19    20   ar
    20    15    20   ar
    21    14    21   ar
    22    10    21   ar
    23     8    22   ar
    24     4    22   ar
    25     1    23    1
    26     1    24    1
    27     5    25    1
    28     6    26    1
    29     7    27    1
    30    12    28    1
    31    16    29    1
    32    17    30    1
    33    18    31    1
    34    19    32    1
    35    20    33    1
    36    22    34    1
@<TRIPOS>MOLECULE
mol58_1_24
 34 36 0 0 0
SMALL
USER_CHARGES
****
VDW energy = -41.51
@<TRIPOS>ATOM
   1 N1        3.5126    -9.1101    -5.4025  N.am    1  <O>11      -0.3253
   2 C1        2.8552    -9.8129    -4.4288  C.2     1  <O>11       0.2416
   3 O1        3.4454   -10.1461    -3.4119  O.2     1  <O>11      -0.2704
   4 C2        1.4620   -10.1610    -4.6040  C.ar    1  <O>11       0.0400
   5 C3        0.4753    -9.2803    -4.1539  C.ar    1  <O>11      -0.0494
   6 C4       -0.8742    -9.6160    -4.3087  C.ar    1  <O>11      -0.0576
   7 C5       -1.2337   -10.8229    -4.9139  C.ar    1  <O>11      -0.0192
   8 C6       -0.2346   -11.6920    -5.3661  C.ar    1  <O>11       0.1326
   9 O2       -0.5907   -12.8694    -5.9585  O.3     1  <O>11      -0.4235
  10 C7        0.4888   -13.3890    -6.6352  C.ar    1  <O>11       0.3267
  11 N2        0.6743   -13.0485    -7.9258  N.ar    1  <O>11      -0.1831
  12 C8        1.7427   -13.5567    -8.5140  C.ar    1  <O>11       0.1237
  13 N3        2.6014   -14.3867    -7.9474  N.ar    1  <O>11      -0.2157
  14 C9        2.3588   -14.6672    -6.6776  C.ar    1  <O>11       0.1666
  15 C10       3.2588   -15.5130    -5.9648  C.ar    1  <O>11       0.0193
  16 C11       3.1048   -15.7069    -4.5812  C.ar    1  <O>11      -0.0510
  17 C12       3.9953   -16.5272    -3.8807  C.ar    1  <O>11      -0.0611
  18 C13       5.0423   -17.1641    -4.5520  C.ar    1  <O>11      -0.0617
  19 C14       5.1919   -16.9750    -5.9307  C.ar    1  <O>11      -0.0611
  20 C15       4.3074   -16.1607    -6.6389  C.ar    1  <O>11      -0.0510
  21 N4        1.3259   -14.2218    -5.9845  N.ar    1  <O>11      -0.1748
  22 C16       1.1140   -11.3653    -5.2175  C.ar    1  <O>11      -0.0071
  23 H1        3.0200    -8.8319    -6.2513  H       1  <O>11       0.1453
  24 H2        4.4949    -8.8646    -5.2793  H       1  <O>11       0.1453
  25 H3        0.7403    -8.3872    -3.7098  H       1  <O>11       0.0625
  26 H4       -1.6064    -8.9700    -3.9748  H       1  <O>11       0.0619
  27 H5       -2.2289   -11.0716    -5.0266  H       1  <O>11       0.0654
  28 H6        1.9209   -13.2841    -9.4933  H       1  <O>11       0.1049
  29 H7        2.3315   -15.2422    -4.0801  H       1  <O>11       0.0625
  30 H8        3.8786   -16.6624    -2.8643  H       1  <O>11       0.0618
  31 H9        5.6999   -17.7691    -4.0355  H       1  <O>11       0.0618
  32 H10       5.9649   -17.4431    -6.4289  H       1  <O>11       0.0618
  33 H11       4.4234   -16.0345    -7.6566  H       1  <O>11       0.0625
  34 H12       1.8465   -12.0078    -5.5578  H       1  <O>11       0.0662
@<TRIPOS>BOND
     1     1     2   am
     2     2     3    2
     3     2     4    1
     4     4     5   ar
     5     5     6   ar
     6     6     7   ar
     7     7     8   ar
     8     8     9    1
     9     9    10    1
    10    10    11   ar
    11    11    12   ar
    12    12    13   ar
    13    13    14   ar
    14    14    15    1
    15    15    16   ar
    16    16    17   ar
    17    17    18   ar
    18    18    19   ar
    19    19    20   ar
    20    15    20   ar
    21    14    21   ar
    22    10    21   ar
    23     8    22   ar
    24     4    22   ar
    25     1    23    1
    26     1    24    1
    27     5    25    1
    28     6    26    1
    29     7    27    1
    30    12    28    1
    31    16    29    1
    32    17    30    1
    33    18    31    1
    34    19    32    1
    35    20    33    1
    36    22    34    1
@<TRIPOS>MOLECULE
mol58_1_25
 34 36 0 0 0
SMALL
USER_CHARGES
****
VDW energy = -41.19
@<TRIPOS>ATOM
   1 N1        3.5126    -9.1101    -5.4025  N.am    1  <O>11      -0.3253
   2 C1        2.8552    -9.8129    -4.4288  C.2     1  <O>11       0.2416
   3 O1        3.4454   -10.1461    -3.4119  O.2     1  <O>11      -0.2704
   4 C2        1.4620   -10.1610    -4.6040  C.ar    1  <O>11       0.0400
   5 C3        0.4753    -9.2803    -4.1539  C.ar    1  <O>11      -0.0494
   6 C4       -0.8742    -9.6160    -4.3087  C.ar    1  <O>11      -0.0576
   7 C5       -1.2337   -10.8229    -4.9139  C.ar    1  <O>11      -0.0192
   8 C6       -0.2346   -11.6920    -5.3661  C.ar    1  <O>11       0.1326
   9 O2       -0.5907   -12.8694    -5.9585  O.3     1  <O>11      -0.4235
  10 C7        0.4888   -13.3890    -6.6352  C.ar    1  <O>11       0.3267
  11 N2        1.3258   -14.2216    -5.9856  N.ar    1  <O>11      -0.1831
  12 C8        2.3278   -14.7099    -6.6952  C.ar    1  <O>11       0.1237
  13 N3        2.5808   -14.4149    -7.9587  N.ar    1  <O>11      -0.2157
  14 C9        1.7110   -13.5990    -8.5312  C.ar    1  <O>11       0.1666
  15 C10       1.8700   -13.2629    -9.9078  C.ar    1  <O>11       0.0193
  16 C11       0.8816   -12.5192   -10.5753  C.ar    1  <O>11      -0.0510
  17 C12       1.0329   -12.2003   -11.9288  C.ar    1  <O>11      -0.0611
  18 C13       2.1702   -12.6147   -12.6268  C.ar    1  <O>11      -0.0617
  19 C14       3.1566   -13.3505   -11.9603  C.ar    1  <O>11      -0.0611
  20 C15       3.0163   -13.6716   -10.6096  C.ar    1  <O>11      -0.0510
  21 N4        0.6735   -13.0479    -7.9265  N.ar    1  <O>11      -0.1748
  22 C16       1.1140   -11.3653    -5.2175  C.ar    1  <O>11      -0.0071
  23 H1        3.0200    -8.8319    -6.2513  H       1  <O>11       0.1453
  24 H2        4.4949    -8.8646    -5.2793  H       1  <O>11       0.1453
  25 H3        0.7403    -8.3872    -3.7098  H       1  <O>11       0.0625
  26 H4       -1.6064    -8.9700    -3.9748  H       1  <O>11       0.0619
  27 H5       -2.2289   -11.0716    -5.0266  H       1  <O>11       0.0654
  28 H6        2.9632   -15.3740    -6.2259  H       1  <O>11       0.1049
  29 H7        0.0409   -12.2071   -10.0646  H       1  <O>11       0.0625
  30 H8        0.3016   -11.6570   -12.4137  H       1  <O>11       0.0618
  31 H9        2.2820   -12.3800   -13.6256  H       1  <O>11       0.0618
  32 H10       3.9971   -13.6590   -12.4734  H       1  <O>11       0.0618
  33 H11       3.7537   -14.2086   -10.1269  H       1  <O>11       0.0625
  34 H12       1.8465   -12.0078    -5.5578  H       1  <O>11       0.0662
@<TRIPOS>BOND
     1     1     2   am
     2     2     3    2
     3     2     4    1
     4     4     5   ar
     5     5     6   ar
     6     6     7   ar
     7     7     8   ar
     8     8     9    1
     9     9    10    1
    10    10    11   ar
    11    11    12   ar
    12    12    13   ar
    13    13    14   ar
    14    14    15    1
    15    15    16   ar
    16    16    17   ar
    17    17    18   ar
    18    18    19   ar
    19    19    20   ar
    20    15    20   ar
    21    14    21   ar
    22    10    21   ar
    23     8    22   ar
    24     4    22   ar
    25     1    23    1
    26     1    24    1
    27     5    25    1
    28     6    26    1
    29     7    27    1
    30    12    28    1
    31    16    29    1
    32    17    30    1
    33    18    31    1
    34    19    32    1
    35    20    33    1
    36    22    34    1
@<TRIPOS>MOLECULE
mol58_1_26
 34 36 0 0 0
SMALL
USER_CHARGES
****
VDW energy = -39.66
@<TRIPOS>ATOM
   1 N1        3.5126    -9.1101    -5.4025  N.am    1  <O>11      -0.3253
   2 C1        2.8552    -9.8129    -4.4288  C.2     1  <O>11       0.2416
   3 O1        3.4454   -10.1461    -3.4119  O.2     1  <O>11      -0.2704
   4 C2        1.4620   -10.1610    -4.6040  C.ar    1  <O>11       0.0400
   5 C3        0.4753    -9.2803    -4.1539  C.ar    1  <O>11      -0.0494
   6 C4       -0.8742    -9.6160    -4.3087  C.ar    1  <O>11      -0.0576
   7 C5       -1.2337   -10.8229    -4.9139  C.ar    1  <O>11      -0.0192
   8 C6       -0.2346   -11.6920    -5.3661  C.ar    1  <O>11       0.1326
   9 O2       -0.5907   -12.8694    -5.9585  O.3     1  <O>11      -0.4235
  10 C7        0.4888   -13.3890    -6.6352  C.ar    1  <O>11       0.3267
  11 N2        1.0453   -12.6664    -7.6272  N.ar    1  <O>11      -0.1831
  12 C8        2.0954   -13.2053    -8.2212  C.ar    1  <O>11       0.1237
  13 N3        2.6025   -14.3933    -7.9407  N.ar    1  <O>11      -0.2157
  14 C9        2.0091   -15.0389    -6.9501  C.ar    1  <O>11       0.1666
  15 C10       2.5169   -16.3064    -6.5392  C.ar    1  <O>11       0.0193
  16 C11       1.9981   -16.9424    -5.3981  C.ar    1  <O>11      -0.0510
  17 C12       2.5051   -18.1801    -4.9889  C.ar    1  <O>11      -0.0611
  18 C13       3.5283   -18.7963    -5.7141  C.ar    1  <O>11      -0.0617
  19 C14       4.0407   -18.1651    -6.8534  C.ar    1  <O>11      -0.0611
  20 C15       3.5401   -16.9315    -7.2712  C.ar    1  <O>11      -0.0510
  21 N4        0.9545   -14.6043    -6.2832  N.ar    1  <O>11      -0.1748
  22 C16       1.1140   -11.3653    -5.2175  C.ar    1  <O>11      -0.0071
  23 H1        3.0200    -8.8319    -6.2513  H       1  <O>11       0.1453
  24 H2        4.4949    -8.8646    -5.2793  H       1  <O>11       0.1453
  25 H3        0.7403    -8.3872    -3.7098  H       1  <O>11       0.0625
  26 H4       -1.6064    -8.9700    -3.9748  H       1  <O>11       0.0619
  27 H5       -2.2289   -11.0716    -5.0266  H       1  <O>11       0.0654
  28 H6        2.5561   -12.6551    -8.9629  H       1  <O>11       0.1049
  29 H7        1.2399   -16.4943    -4.8601  H       1  <O>11       0.0625
  30 H8        2.1221   -18.6399    -4.1481  H       1  <O>11       0.0618
  31 H9        3.9030   -19.7093    -5.4123  H       1  <O>11       0.0618
  32 H10       4.7972   -18.6171    -7.3903  H       1  <O>11       0.0618
  33 H11       3.9209   -16.4790    -8.1169  H       1  <O>11       0.0625
  34 H12       1.8465   -12.0078    -5.5578  H       1  <O>11       0.0662
@<TRIPOS>BOND
     1     1     2   am
     2     2     3    2
     3     2     4    1
     4     4     5   ar
     5     5     6   ar
     6     6     7   ar
     7     7     8   ar
     8     8     9    1
     9     9    10    1
    10    10    11   ar
    11    11    12   ar
    12    12    13   ar
    13    13    14   ar
    14    14    15    1
    15    15    16   ar
    16    16    17   ar
    17    17    18   ar
    18    18    19   ar
    19    19    20   ar
    20    15    20   ar
    21    14    21   ar
    22    10    21   ar
    23     8    22   ar
    24     4    22   ar
    25     1    23    1
    26     1    24    1
    27     5    25    1
    28     6    26    1
    29     7    27    1
    30    12    28    1
    31    16    29    1
    32    17    30    1
    33    18    31    1
    34    19    32    1
    35    20    33    1
    36    22    34    1
@<TRIPOS>MOLECULE
mol58_1_27
 34 36 0 0 0
SMALL
USER_CHARGES
****
VDW energy = -39.29
@<TRIPOS>ATOM
   1 N1        3.5126    -9.1101    -5.4025  N.am    1  <O>11      -0.3253
   2 C1        2.8552    -9.8129    -4.4288  C.2     1  <O>11       0.2416
   3 O1        3.4454   -10.1461    -3.4119  O.2     1  <O>11      -0.2704
   4 C2        1.4620   -10.1610    -4.6040  C.ar    1  <O>11       0.0400
   5 C3        1.1317   -11.3708    -5.2197  C.ar    1  <O>11      -0.0494
   6 C4       -0.2136   -11.7084    -5.4038  C.ar    1  <O>11      -0.0576
   7 C5       -1.2215   -10.8431    -4.9705  C.ar    1  <O>11      -0.0192
   8 C6       -0.8757    -9.6381    -4.3492  C.ar    1  <O>11       0.1326
   9 O2       -1.8640    -8.7965    -3.9259  O.3     1  <O>11      -0.4235
  10 C7       -1.3398    -7.8762    -3.0475  C.ar    1  <O>11       0.3267
  11 N2       -0.7605    -8.3150    -1.9127  N.ar    1  <O>11      -0.1831
  12 C8       -0.2511    -7.3865    -1.1225  C.ar    1  <O>11       0.1237
  13 N3       -0.3028    -6.0847    -1.3458  N.ar    1  <O>11      -0.2157
  14 C9       -0.8782    -5.7311    -2.4834  C.ar    1  <O>11       0.1666
  15 C10      -0.9357    -4.3511    -2.8377  C.ar    1  <O>11       0.0193
  16 C11      -1.4078    -3.9627    -4.1033  C.ar    1  <O>11      -0.0510
  17 C12      -1.4525    -2.6094    -4.4545  C.ar    1  <O>11      -0.0611
  18 C13      -1.0326    -1.6327    -3.5477  C.ar    1  <O>11      -0.0617
  19 C14      -0.5678    -2.0197    -2.2856  C.ar    1  <O>11      -0.0611
  20 C15      -0.5215    -3.3668    -1.9249  C.ar    1  <O>11      -0.0510
  21 N4       -1.4228    -6.5653    -3.3514  N.ar    1  <O>11      -0.1748
  22 C16       0.4633    -9.2931    -4.1598  C.ar    1  <O>11      -0.0071
  23 H1        3.0200    -8.8319    -6.2513  H       1  <O>11       0.1453
  24 H2        4.4949    -8.8646    -5.2793  H       1  <O>11       0.1453
  25 H3        1.8757   -12.0117    -5.5369  H       1  <O>11       0.0625
  26 H4       -0.4623   -12.5995    -5.8611  H       1  <O>11       0.0619
  27 H5       -2.2138   -11.0910    -5.1078  H       1  <O>11       0.0654
  28 H6        0.2247    -7.7027    -0.2631  H       1  <O>11       0.1049
  29 H7       -1.7228    -4.6789    -4.7763  H       1  <O>11       0.0625
  30 H8       -1.7969    -2.3314    -5.3867  H       1  <O>11       0.0618
  31 H9       -1.0650    -0.6342    -3.8065  H       1  <O>11       0.0618
  32 H10      -0.2558    -1.3007    -1.6143  H       1  <O>11       0.0618
  33 H11      -0.1835    -3.6397    -0.9888  H       1  <O>11       0.0625
  34 H12       0.7123    -8.4055    -3.6961  H       1  <O>11       0.0662
@<TRIPOS>BOND
     1     1     2   am
     2     2     3    2
     3     2     4    1
     4     4     5   ar
     5     5     6   ar
     6     6     7   ar
     7     7     8   ar
     8     8     9    1
     9     9    10    1
    10    10    11   ar
    11    11    12   ar
    12    12    13   ar
    13    13    14   ar
    14    14    15    1
    15    15    16   ar
    16    16    17   ar
    17    17    18   ar
    18    18    19   ar
    19    19    20   ar
    20    15    20   ar
    21    14    21   ar
    22    10    21   ar
    23     8    22   ar
    24     4    22   ar
    25     1    23    1
    26     1    24    1
    27     5    25    1
    28     6    26    1
    29     7    27    1
    30    12    28    1
    31    16    29    1
    32    17    30    1
    33    18    31    1
    34    19    32    1
    35    20    33    1
    36    22    34    1
@<TRIPOS>MOLECULE
mol58_1_28
 34 36 0 0 0
SMALL
USER_CHARGES
****
VDW energy = -38.99
@<TRIPOS>ATOM
   1 N1        3.5126    -9.1101    -5.4025  N.am    1  <O>11      -0.3253
   2 C1        2.8552    -9.8129    -4.4288  C.2     1  <O>11       0.2416
   3 O1        3.4454   -10.1461    -3.4119  O.2     1  <O>11      -0.2704
   4 C2        1.4620   -10.1610    -4.6040  C.ar    1  <O>11       0.0400
   5 C3        1.0119   -10.5678    -5.8624  C.ar    1  <O>11      -0.0494
   6 C4       -0.3368   -10.8940    -6.0423  C.ar    1  <O>11      -0.0576
   7 C5       -1.2280   -10.8179    -4.9689  C.ar    1  <O>11      -0.0192
   8 C6       -0.7615   -10.4156    -3.7126  C.ar    1  <O>11       0.1326
   9 O2       -1.6356   -10.3445    -2.6662  O.3     1  <O>11      -0.4235
  10 C7       -0.9343   -10.2863    -1.4839  C.ar    1  <O>11       0.3267
  11 N2       -0.5866    -9.0812    -0.9911  N.ar    1  <O>11      -0.1831
  12 C8        0.0611    -9.0882     0.1606  C.ar    1  <O>11       0.1237
  13 N3        0.4159   -10.1726     0.8280  N.ar    1  <O>11      -0.2157
  14 C9        0.0319   -11.3172     0.2871  C.ar    1  <O>11       0.1666
  15 C10       0.3228   -12.5402     0.9602  C.ar    1  <O>11       0.0193
  16 C11      -0.2004   -13.7544     0.4831  C.ar    1  <O>11      -0.0510
  17 C12       0.0756   -14.9520     1.1510  C.ar    1  <O>11      -0.0611
  18 C13       0.8775   -14.9512     2.2953  C.ar    1  <O>11      -0.0617
  19 C14       1.4026   -13.7426     2.7667  C.ar    1  <O>11      -0.0611
  20 C15       1.1353   -12.5429     2.1063  C.ar    1  <O>11      -0.0510
  21 N4       -0.6179   -11.4373    -0.8570  N.ar    1  <O>11      -0.1748
  22 C16       0.5822   -10.0896    -3.5229  C.ar    1  <O>11      -0.0071
  23 H1        3.0200    -8.8319    -6.2513  H       1  <O>11       0.1453
  24 H2        4.4949    -8.8646    -5.2793  H       1  <O>11       0.1453
  25 H3        1.6704   -10.6273    -6.6548  H       1  <O>11       0.0625
  26 H4       -0.6744   -11.1918    -6.9709  H       1  <O>11       0.0619
  27 H5       -2.2232   -11.0568    -5.1017  H       1  <O>11       0.0654
  28 H6        0.3096    -8.1748     0.5716  H       1  <O>11       0.1049
  29 H7       -0.7905   -13.7623    -0.3635  H       1  <O>11       0.0625
  30 H8       -0.3147   -15.8395     0.7973  H       1  <O>11       0.0618
  31 H9        1.0810   -15.8345     2.7886  H       1  <O>11       0.0618
  32 H10       1.9942   -13.7387     3.6123  H       1  <O>11       0.0618
  33 H11       1.5339   -11.6588     2.4592  H       1  <O>11       0.0625
  34 H12       0.9217    -9.7986    -2.5928  H       1  <O>11       0.0662
@<TRIPOS>BOND
     1     1     2   am
     2     2     3    2
     3     2     4    1
     4     4     5   ar
     5     5     6   ar
     6     6     7   ar
     7     7     8   ar
     8     8     9    1
     9     9    10    1
    10    10    11   ar
    11    11    12   ar
    12    12    13   ar
    13    13    14   ar
    14    14    15    1
    15    15    16   ar
    16    16    17   ar
    17    17    18   ar
    18    18    19   ar
    19    19    20   ar
    20    15    20   ar
    21    14    21   ar
    22    10    21   ar
    23     8    22   ar
    24     4    22   ar
    25     1    23    1
    26     1    24    1
    27     5    25    1
    28     6    26    1
    29     7    27    1
    30    12    28    1
    31    16    29    1
    32    17    30    1
    33    18    31    1
    34    19    32    1
    35    20    33    1
    36    22    34    1
@<TRIPOS>MOLECULE
mol58_1_29
 34 36 0 0 0
SMALL
USER_CHARGES
****
VDW energy = -36.66
@<TRIPOS>ATOM
   1 N1        3.5126    -9.1101    -5.4025  N.am    1  <O>11      -0.3253
   2 C1        2.8552    -9.8129    -4.4288  C.2     1  <O>11       0.2416
   3 O1        3.4454   -10.1461    -3.4119  O.2     1  <O>11      -0.2704
   4 C2        1.4620   -10.1610    -4.6040  C.ar    1  <O>11       0.0400
   5 C3        1.0119   -10.5678    -5.8624  C.ar    1  <O>11      -0.0494
   6 C4       -0.3368   -10.8940    -6.0423  C.ar    1  <O>11      -0.0576
   7 C5       -1.2280   -10.8179    -4.9689  C.ar    1  <O>11      -0.0192
   8 C6       -0.7615   -10.4156    -3.7126  C.ar    1  <O>11       0.1326
   9 O2       -1.6356   -10.3445    -2.6662  O.3     1  <O>11      -0.4235
  10 C7       -0.9343   -10.2863    -1.4839  C.ar    1  <O>11       0.3267
  11 N2       -0.1081   -11.3022    -1.1656  N.ar    1  <O>11      -0.1831
  12 C8        0.5587   -11.1767    -0.0317  C.ar    1  <O>11       0.1237
  13 N3        0.4453   -10.1640     0.8102  N.ar    1  <O>11      -0.2157
  14 C9       -0.3769    -9.2016     0.4254  C.ar    1  <O>11       0.1666
  15 C10      -0.5265    -8.0426     1.2426  C.ar    1  <O>11       0.0193
  16 C11      -1.2775    -6.9454     0.7868  C.ar    1  <O>11      -0.0510
  17 C12      -1.4137    -5.8041     1.5840  C.ar    1  <O>11      -0.0611
  18 C13      -0.8079    -5.7478     2.8419  C.ar    1  <O>11      -0.0617
  19 C14      -0.0648    -6.8428     3.2975  C.ar    1  <O>11      -0.0611
  20 C15       0.0750    -7.9868     2.5109  C.ar    1  <O>11      -0.0510
  21 N4       -1.0965    -9.2142    -0.6826  N.ar    1  <O>11      -0.1748
  22 C16       0.5822   -10.0896    -3.5229  C.ar    1  <O>11      -0.0071
  23 H1        3.0200    -8.8319    -6.2513  H       1  <O>11       0.1453
  24 H2        4.4949    -8.8646    -5.2793  H       1  <O>11       0.1453
  25 H3        1.6704   -10.6273    -6.6548  H       1  <O>11       0.0625
  26 H4       -0.6744   -11.1918    -6.9709  H       1  <O>11       0.0619
  27 H5       -2.2232   -11.0568    -5.1017  H       1  <O>11       0.0654
  28 H6        1.2204   -11.9289     0.2161  H       1  <O>11       0.1049
  29 H7       -1.7304    -6.9820    -0.1398  H       1  <O>11       0.0625
  30 H8       -1.9635    -5.0007     1.2418  H       1  <O>11       0.0618
  31 H9       -0.9077    -4.9058     3.4302  H       1  <O>11       0.0618
  32 H10       0.3848    -6.8037     4.2256  H       1  <O>11       0.0618
  33 H11       0.6195    -8.7908     2.8604  H       1  <O>11       0.0625
  34 H12       0.9217    -9.7986    -2.5928  H       1  <O>11       0.0662
@<TRIPOS>BOND
     1     1     2   am
     2     2     3    2
     3     2     4    1
     4     4     5   ar
     5     5     6   ar
     6     6     7   ar
     7     7     8   ar
     8     8     9    1
     9     9    10    1
    10    10    11   ar
    11    11    12   ar
    12    12    13   ar
    13    13    14   ar
    14    14    15    1
    15    15    16   ar
    16    16    17   ar
    17    17    18   ar
    18    18    19   ar
    19    19    20   ar
    20    15    20   ar
    21    14    21   ar
    22    10    21   ar
    23     8    22   ar
    24     4    22   ar
    25     1    23    1
    26     1    24    1
    27     5    25    1
    28     6    26    1
    29     7    27    1
    30    12    28    1
    31    16    29    1
    32    17    30    1
    33    18    31    1
    34    19    32    1
    35    20    33    1
    36    22    34    1
@<TRIPOS>MOLECULE
mol58_1_30
 34 36 0 0 0
SMALL
USER_CHARGES
****
VDW energy = -34.23
@<TRIPOS>ATOM
   1 N1        3.5126    -9.1101    -5.4025  N.am    1  <O>11      -0.3253
   2 C1        2.8552    -9.8129    -4.4288  C.2     1  <O>11       0.2416
   3 O1        3.4454   -10.1461    -3.4119  O.2     1  <O>11      -0.2704
   4 C2        1.4620   -10.1610    -4.6040  C.ar    1  <O>11       0.0400
   5 C3        0.8676   -11.0673    -3.7225  C.ar    1  <O>11      -0.0494
   6 C4       -0.4761   -11.4183    -3.8934  C.ar    1  <O>11      -0.0576
   7 C5       -1.2209   -10.8624    -4.9366  C.ar    1  <O>11      -0.0192
   8 C6       -0.6142    -9.9507    -5.8075  C.ar    1  <O>11       0.1326
   9 O2       -1.3465    -9.4087    -6.8244  O.3     1  <O>11      -0.4235
  10 C7       -0.6956    -8.3032    -7.3217  C.ar    1  <O>11       0.3267
  11 N2        0.1821    -8.4633    -8.3317  N.ar    1  <O>11      -0.1831
  12 C8        0.7548    -7.3622    -8.7851  C.ar    1  <O>11       0.1237
  13 N3        0.5583    -6.1475    -8.3022  N.ar    1  <O>11      -0.2157
  14 C9       -0.3231    -6.0685    -7.3188  C.ar    1  <O>11       0.1666
  15 C10      -0.6413    -4.7928    -6.7668  C.ar    1  <O>11       0.0193
  16 C11      -1.6779    -4.6654    -5.8261  C.ar    1  <O>11      -0.0510
  17 C12      -1.9973    -3.4118    -5.2943  C.ar    1  <O>11      -0.0611
  18 C13      -1.2850    -2.2768    -5.6905  C.ar    1  <O>11      -0.0617
  19 C14      -0.2493    -2.4051    -6.6230  C.ar    1  <O>11      -0.0611
  20 C15       0.0787    -3.6515    -7.1576  C.ar    1  <O>11      -0.0510
  21 N4       -0.9576    -7.0957    -6.7822  N.ar    1  <O>11      -0.1748
  22 C16       0.7249    -9.5933    -5.6444  C.ar    1  <O>11      -0.0071
  23 H1        3.0200    -8.8319    -6.2513  H       1  <O>11       0.1453
  24 H2        4.4949    -8.8646    -5.2793  H       1  <O>11       0.1453
  25 H3        1.4164   -11.4757    -2.9498  H       1  <O>11       0.0625
  26 H4       -0.9184   -12.0899    -3.2467  H       1  <O>11       0.0619
  27 H5       -2.2115   -11.1224    -5.0639  H       1  <O>11       0.0654
  28 H6        1.4070    -7.4581    -9.5791  H       1  <O>11       0.1049
  29 H7       -2.2055    -5.5003    -5.5267  H       1  <O>11       0.0625
  30 H8       -2.7620    -3.3248    -4.6067  H       1  <O>11       0.0618
  31 H9       -1.5207    -1.3516    -5.2987  H       1  <O>11       0.0618
  32 H10       0.2777    -1.5685    -6.9185  H       1  <O>11       0.0618
  33 H11       0.8491    -3.7349    -7.8392  H       1  <O>11       0.0625
  34 H12       1.1657    -8.9163    -6.2866  H       1  <O>11       0.0662
@<TRIPOS>BOND
     1     1     2   am
     2     2     3    2
     3     2     4    1
     4     4     5   ar
     5     5     6   ar
     6     6     7   ar
     7     7     8   ar
     8     8     9    1
     9     9    10    1
    10    10    11   ar
    11    11    12   ar
    12    12    13   ar
    13    13    14   ar
    14    14    15    1
    15    15    16   ar
    16    16    17   ar
    17    17    18   ar
    18    18    19   ar
    19    19    20   ar
    20    15    20   ar
    21    14    21   ar
    22    10    21   ar
    23     8    22   ar
    24     4    22   ar
    25     1    23    1
    26     1    24    1
    27     5    25    1
    28     6    26    1
    29     7    27    1
    30    12    28    1
    31    16    29    1
    32    17    30    1
    33    18    31    1
    34    19    32    1
    35    20    33    1
    36    22    34    1
