@<TRIPOS>MOLECULE
mol56_1_1
 34 36 0 0 0
SMALL
USER_CHARGES
****
VDW energy = 49.15
@<TRIPOS>ATOM
   1 C1        2.9594     4.6406     8.4458  C.2     1  <O>11      -0.0951
   2 C2        1.7743     5.3830     8.1471  C.2     1  <O>11      -0.0214
   3 C3        1.3780     5.6020     6.7510  C.2     1  <O>11       0.1870
   4 O1        2.1267     6.1962     5.9885  O.2     1  <O>11      -0.2872
   5 C4        0.1015     5.1146     6.2762  C.ar    1  <O>11       0.0407
   6 C5       -1.0507     5.8936     6.3398  C.ar    1  <O>11      -0.0088
   7 C6       -2.2538     5.3422     5.8831  C.ar    1  <O>11       0.1882
   8 F1       -3.4167     6.0655     5.9496  F       1  <O>11      -0.1998
   9 C7       -2.2645     4.0511     5.3581  C.ar    1  <O>11       0.2870
  10 O2       -3.4889     3.5289     4.8986  O.2     1  <O>11      -0.2645
  11 N1       -1.1485     3.3081     5.2833  N.ar    1  <O>11      -0.3078
  12 C8       -1.1230     1.9734     4.7407  C.3     1  <O>11       0.0519
  13 C9       -1.9184     1.0694     5.6129  C.ar    1  <O>11      -0.0170
  14 C10      -1.9164     1.2492     7.0183  C.ar    1  <O>11      -0.0561
  15 C11      -2.6700     0.4150     7.8590  C.ar    1  <O>11      -0.0594
  16 C12      -3.4296    -0.6236     7.2742  C.ar    1  <O>11      -0.0363
  17 C13      -3.3831    -0.8243     5.8778  C.ar    1  <O>11       0.0660
  18 N2       -3.9705    -1.7551     5.0139  N.ar    1  <O>11      -0.2770
  19 N3       -3.7848    -1.4056     3.7087  N.ar    1  <O>11      -0.1812
  20 C14      -2.9512    -0.3709     3.7491  C.ar    1  <O>11       0.0572
  21 C15      -2.6652     0.0469     5.0593  C.ar    1  <O>11       0.0243
  22 C16       0.0018     3.8431     5.7400  C.ar    1  <O>11       0.0193
  23 H1        3.5685     4.2375     7.6367  H       1  <O>11       0.0536
  24 H2        3.2538     4.4779     9.4826  H       1  <O>11       0.0536
  25 H3        1.1653     5.7861     8.9562  H       1  <O>11       0.0650
  26 H4       -0.0933     1.6197     4.6933  H       1  <O>11       0.0542
  27 H5       -1.5517     1.9794     3.7386  H       1  <O>11       0.0542
  28 H6       -4.4675    -2.5771     5.3259  H       1  <O>11       0.1889
  29 H7       -1.0186     6.8546     6.7146  H       1  <O>11       0.0655
  30 H8       -1.3507     2.0070     7.4314  H       1  <O>11       0.0621
  31 H9       -2.6694     0.5569     8.8811  H       1  <O>11       0.0618
  32 H10      -4.0160    -1.2328     7.8658  H       1  <O>11       0.0639
  33 H11      -2.5564     0.0776     2.9077  H       1  <O>11       0.0854
  34 H12       0.8585     3.2703     5.6864  H       1  <O>11       0.0817
@<TRIPOS>BOND
     1     1     2    2
     2     2     3    1
     3     3     4    2
     4     3     5    1
     5     5     6   ar
     6     6     7   ar
     7     7     8    1
     8     7     9   ar
     9     9    10    2
    10     9    11   ar
    11    11    12    1
    12    12    13    1
    13    13    14   ar
    14    14    15   ar
    15    15    16   ar
    16    16    17   ar
    17    17    18   ar
    18    18    19   ar
    19    19    20   ar
    20    20    21   ar
    21    13    21   ar
    22    17    21   ar
    23    11    22   ar
    24     5    22   ar
    25     1    23    1
    26     1    24    1
    27     2    25    1
    28    12    26    1
    29    12    27    1
    30    18    28    1
    31     6    29    1
    32    14    30    1
    33    15    31    1
    34    16    32    1
    35    20    33    1
    36    22    34    1
@<TRIPOS>MOLECULE
mol56_1_2
 34 36 0 0 0
SMALL
USER_CHARGES
****
VDW energy = 49.57
@<TRIPOS>ATOM
   1 C1        2.9594     4.6406     8.4458  C.2     1  <O>11      -0.0951
   2 C2        1.7743     5.3830     8.1471  C.2     1  <O>11      -0.0214
   3 C3        1.3780     5.6020     6.7510  C.2     1  <O>11       0.1870
   4 O1        2.1267     6.1962     5.9885  O.2     1  <O>11      -0.2872
   5 C4        0.1015     5.1146     6.2762  C.ar    1  <O>11       0.0407
   6 C5       -1.1002     5.5390     6.8368  C.ar    1  <O>11      -0.0088
   7 C6       -2.2938     5.0024     6.3393  C.ar    1  <O>11       0.1882
   8 F1       -3.4983     5.3743     6.8785  F       1  <O>11      -0.1998
   9 C7       -2.2525     4.0863     5.2897  C.ar    1  <O>11       0.2870
  10 O2       -3.4709     3.5723     4.8057  O.2     1  <O>11      -0.2645
  11 N1       -1.0927     3.6911     4.7402  N.ar    1  <O>11      -0.3078
  12 C8       -1.0146     2.7515     3.6506  C.3     1  <O>11       0.0519
  13 C9       -1.4933     1.4207     4.1094  C.ar    1  <O>11      -0.0170
  14 C10      -1.2224     0.9802     5.4285  C.ar    1  <O>11      -0.0561
  15 C11      -1.6757    -0.2670     5.8859  C.ar    1  <O>11      -0.0594
  16 C12      -2.4049    -1.0879     4.9959  C.ar    1  <O>11      -0.0363
  17 C13      -2.6243    -0.6598     3.6689  C.ar    1  <O>11       0.0660
  18 N2       -3.2577    -1.2315     2.5600  N.ar    1  <O>11      -0.2770
  19 N3       -3.3915    -0.3291     1.5460  N.ar    1  <O>11      -0.1812
  20 C14      -2.7028     0.7356     1.9454  C.ar    1  <O>11       0.0572
  21 C15      -2.2056     0.6034     3.2525  C.ar    1  <O>11       0.0243
  22 C16       0.0516     4.2024     5.2372  C.ar    1  <O>11       0.0193
  23 H1        3.5685     4.2375     7.6367  H       1  <O>11       0.0536
  24 H2        3.2538     4.4779     9.4826  H       1  <O>11       0.0536
  25 H3        1.1653     5.7861     8.9562  H       1  <O>11       0.0650
  26 H4        0.0187     2.6700     3.3140  H       1  <O>11       0.0542
  27 H5       -1.6391     3.0966     2.8265  H       1  <O>11       0.0542
  28 H6       -3.5731    -2.1903     2.5242  H       1  <O>11       0.1889
  29 H7       -1.1108     6.2325     7.6010  H       1  <O>11       0.0655
  30 H8       -0.6820     1.5873     6.0645  H       1  <O>11       0.0621
  31 H9       -1.4808    -0.5778     6.8505  H       1  <O>11       0.0618
  32 H10      -2.7756    -1.9966     5.3150  H       1  <O>11       0.0639
  33 H11      -2.5498     1.5701     1.3579  H       1  <O>11       0.0854
  34 H12       0.9430     3.8952     4.8177  H       1  <O>11       0.0817
@<TRIPOS>BOND
     1     1     2    2
     2     2     3    1
     3     3     4    2
     4     3     5    1
     5     5     6   ar
     6     6     7   ar
     7     7     8    1
     8     7     9   ar
     9     9    10    2
    10     9    11   ar
    11    11    12    1
    12    12    13    1
    13    13    14   ar
    14    14    15   ar
    15    15    16   ar
    16    16    17   ar
    17    17    18   ar
    18    18    19   ar
    19    19    20   ar
    20    20    21   ar
    21    13    21   ar
    22    17    21   ar
    23    11    22   ar
    24     5    22   ar
    25     1    23    1
    26     1    24    1
    27     2    25    1
    28    12    26    1
    29    12    27    1
    30    18    28    1
    31     6    29    1
    32    14    30    1
    33    15    31    1
    34    16    32    1
    35    20    33    1
    36    22    34    1
@<TRIPOS>MOLECULE
mol56_1_3
 34 36 0 0 0
SMALL
USER_CHARGES
****
VDW energy = 49.59
@<TRIPOS>ATOM
   1 C1        2.9594     4.6406     8.4458  C.2     1  <O>11      -0.0951
   2 C2        1.7743     5.3830     8.1471  C.2     1  <O>11      -0.0214
   3 C3        1.3780     5.6020     6.7510  C.2     1  <O>11       0.1870
   4 O1        1.1468     4.6468     6.0236  O.2     1  <O>11      -0.2872
   5 C4        1.2603     6.9482     6.2349  C.ar    1  <O>11       0.0407
   6 C5        2.3421     7.8245     6.2182  C.ar    1  <O>11      -0.0088
   7 C6        2.1428     9.1198     5.7258  C.ar    1  <O>11       0.1882
   8 F1        3.1747    10.0226     5.7135  F       1  <O>11      -0.1998
   9 C7        0.8874     9.4888     5.2458  C.ar    1  <O>11       0.2870
  10 O2        0.7220    10.7958     4.7486  O.2     1  <O>11      -0.2645
  11 N1       -0.1501     8.6362     5.2484  N.ar    1  <O>11      -0.3078
  12 C8       -1.4584     8.9828     4.7540  C.3     1  <O>11       0.0519
  13 C9       -2.0513    10.0365     5.6193  C.ar    1  <O>11      -0.0170
  14 C10      -1.8147    10.0302     7.0162  C.ar    1  <O>11      -0.0561
  15 C11      -2.3543    11.0225     7.8495  C.ar    1  <O>11      -0.0594
  16 C12      -3.1539    12.0317     7.2665  C.ar    1  <O>11      -0.0363
  17 C13      -3.4242    11.9981     5.8815  C.ar    1  <O>11       0.0660
  18 N2       -4.1837    12.8017     5.0242  N.ar    1  <O>11      -0.2770
  19 N3       -3.9643    12.4777     3.7176  N.ar    1  <O>11      -0.1812
  20 C14      -3.2151    11.3804     3.7606  C.ar    1  <O>11       0.0572
  21 C15      -2.8378    11.0298     5.0675  C.ar    1  <O>11       0.0243
  22 C16       0.0489     7.3962     5.7389  C.ar    1  <O>11       0.0193
  23 H1        3.5685     4.2375     7.6367  H       1  <O>11       0.0536
  24 H2        3.2538     4.4779     9.4826  H       1  <O>11       0.0536
  25 H3        1.1653     5.7861     8.9562  H       1  <O>11       0.0650
  26 H4       -2.0975     8.1000     4.7665  H       1  <O>11       0.0542
  27 H5       -1.3750     9.3566     3.7335  H       1  <O>11       0.0542
  28 H6       -4.8108    13.5273     5.3411  H       1  <O>11       0.1889
  29 H7        3.2688     7.5262     6.5607  H       1  <O>11       0.0655
  30 H8       -1.2351     9.2824     7.4285  H       1  <O>11       0.0621
  31 H9       -2.1713    11.0154     8.8651  H       1  <O>11       0.0618
  32 H10      -3.5387    12.7901     7.8511  H       1  <O>11       0.0639
  33 H11      -2.9401    10.8434     2.9234  H       1  <O>11       0.0854
  34 H12      -0.7496     6.7425     5.7448  H       1  <O>11       0.0817
@<TRIPOS>BOND
     1     1     2    2
     2     2     3    1
     3     3     4    2
     4     3     5    1
     5     5     6   ar
     6     6     7   ar
     7     7     8    1
     8     7     9   ar
     9     9    10    2
    10     9    11   ar
    11    11    12    1
    12    12    13    1
    13    13    14   ar
    14    14    15   ar
    15    15    16   ar
    16    16    17   ar
    17    17    18   ar
    18    18    19   ar
    19    19    20   ar
    20    20    21   ar
    21    13    21   ar
    22    17    21   ar
    23    11    22   ar
    24     5    22   ar
    25     1    23    1
    26     1    24    1
    27     2    25    1
    28    12    26    1
    29    12    27    1
    30    18    28    1
    31     6    29    1
    32    14    30    1
    33    15    31    1
    34    16    32    1
    35    20    33    1
    36    22    34    1
@<TRIPOS>MOLECULE
mol56_1_4
 34 36 0 0 0
SMALL
USER_CHARGES
****
VDW energy = 49.77
@<TRIPOS>ATOM
   1 C1        2.9594     4.6406     8.4458  C.2     1  <O>11      -0.0951
   2 C2        1.7743     5.3830     8.1471  C.2     1  <O>11      -0.0214
   3 C3        1.3780     5.6020     6.7510  C.2     1  <O>11       0.1870
   4 O1        0.2005     5.7717     6.4687  O.2     1  <O>11      -0.2872
   5 C4        2.3804     5.6177     5.7082  C.ar    1  <O>11       0.0407
   6 C5        2.7557     4.4587     5.0342  C.ar    1  <O>11      -0.0088
   7 C6        3.7514     4.5505     4.0543  C.ar    1  <O>11       0.1882
   8 F1        4.1683     3.4300     3.3831  F       1  <O>11      -0.1998
   9 C7        4.3183     5.7899     3.7622  C.ar    1  <O>11       0.2870
  10 O2        5.3106     5.8502     2.7649  O.2     1  <O>11      -0.2645
  11 N1        3.9428     6.9087     4.4029  N.ar    1  <O>11      -0.3078
  12 C8        4.5032     8.2060     4.1213  C.3     1  <O>11       0.0519
  13 C9        5.9400     8.2180     4.5036  C.ar    1  <O>11      -0.0170
  14 C10       6.3816     7.5020     5.6437  C.ar    1  <O>11      -0.0561
  15 C11       7.7352     7.4898     6.0151  C.ar    1  <O>11      -0.0594
  16 C12       8.6569     8.2195     5.2305  C.ar    1  <O>11      -0.0363
  17 C13       8.1970     8.9701     4.1270  C.ar    1  <O>11       0.0660
  18 N2        8.8244     9.8041     3.1952  N.ar    1  <O>11      -0.2770
  19 N3        7.9763    10.1405     2.1813  N.ar    1  <O>11      -0.1812
  20 C14       6.7919     9.6688     2.5582  C.ar    1  <O>11       0.0572
  21 C15       6.8553     8.9279     3.7499  C.ar    1  <O>11       0.0243
  22 C16       2.9941     6.8064     5.3555  C.ar    1  <O>11       0.0193
  23 H1        3.5685     4.2375     7.6367  H       1  <O>11       0.0536
  24 H2        3.2538     4.4779     9.4826  H       1  <O>11       0.0536
  25 H3        1.1653     5.7861     8.9562  H       1  <O>11       0.0650
  26 H4        3.9687     8.9648     4.6925  H       1  <O>11       0.0542
  27 H5        4.4099     8.4198     3.0566  H       1  <O>11       0.0542
  28 H6        9.7834    10.1119     3.2711  H       1  <O>11       0.1889
  29 H7        2.3105     3.5534     5.2518  H       1  <O>11       0.0655
  30 H8        5.6957     6.9802     6.2113  H       1  <O>11       0.0621
  31 H9        8.0504     6.9598     6.8426  H       1  <O>11       0.0618
  32 H10       9.6621     8.2037     5.4634  H       1  <O>11       0.0639
  33 H11       5.9192     9.8297     2.0315  H       1  <O>11       0.0854
  34 H12       2.7088     7.6656     5.8507  H       1  <O>11       0.0817
@<TRIPOS>BOND
     1     1     2    2
     2     2     3    1
     3     3     4    2
     4     3     5    1
     5     5     6   ar
     6     6     7   ar
     7     7     8    1
     8     7     9   ar
     9     9    10    2
    10     9    11   ar
    11    11    12    1
    12    12    13    1
    13    13    14   ar
    14    14    15   ar
    15    15    16   ar
    16    16    17   ar
    17    17    18   ar
    18    18    19   ar
    19    19    20   ar
    20    20    21   ar
    21    13    21   ar
    22    17    21   ar
    23    11    22   ar
    24     5    22   ar
    25     1    23    1
    26     1    24    1
    27     2    25    1
    28    12    26    1
    29    12    27    1
    30    18    28    1
    31     6    29    1
    32    14    30    1
    33    15    31    1
    34    16    32    1
    35    20    33    1
    36    22    34    1
@<TRIPOS>MOLECULE
mol56_1_5
 34 36 0 0 0
SMALL
USER_CHARGES
****
VDW energy = 49.97
@<TRIPOS>ATOM
   1 C1        2.9594     4.6406     8.4458  C.2     1  <O>11      -0.0951
   2 C2        1.7743     5.3830     8.1471  C.2     1  <O>11      -0.0214
   3 C3        1.3780     5.6020     6.7510  C.2     1  <O>11       0.1870
   4 O1        2.1267     6.1962     5.9885  O.2     1  <O>11      -0.2872
   5 C4        0.1015     5.1146     6.2762  C.ar    1  <O>11       0.0407
   6 C5       -1.1002     5.5390     6.8368  C.ar    1  <O>11      -0.0088
   7 C6       -2.2938     5.0024     6.3393  C.ar    1  <O>11       0.1882
   8 F1       -3.4983     5.3743     6.8785  F       1  <O>11      -0.1998
   9 C7       -2.2525     4.0863     5.2897  C.ar    1  <O>11       0.2870
  10 O2       -3.4709     3.5723     4.8057  O.2     1  <O>11      -0.2645
  11 N1       -1.0927     3.6911     4.7402  N.ar    1  <O>11      -0.3078
  12 C8       -1.0146     2.7515     3.6506  C.3     1  <O>11       0.0519
  13 C9       -1.4933     1.4207     4.1094  C.ar    1  <O>11      -0.0170
  14 C10      -2.6055     0.8067     3.4822  C.ar    1  <O>11      -0.0561
  15 C11      -3.0659    -0.4547     3.8914  C.ar    1  <O>11      -0.0594
  16 C12      -2.4008    -1.1029     4.9568  C.ar    1  <O>11      -0.0363
  17 C13      -1.3262    -0.4585     5.6068  C.ar    1  <O>11       0.0660
  18 N2       -0.5022    -0.8005     6.6847  N.ar    1  <O>11      -0.2770
  19 N3        0.5396     0.0711     6.8079  N.ar    1  <O>11      -0.1812
  20 C14       0.2792     1.0380     5.9334  C.ar    1  <O>11       0.0572
  21 C15      -0.8570     0.7729     5.1512  C.ar    1  <O>11       0.0243
  22 C16       0.0516     4.2024     5.2372  C.ar    1  <O>11       0.0193
  23 H1        3.5685     4.2375     7.6367  H       1  <O>11       0.0536
  24 H2        3.2538     4.4779     9.4826  H       1  <O>11       0.0536
  25 H3        1.1653     5.7861     8.9562  H       1  <O>11       0.0650
  26 H4        0.0187     2.6700     3.3140  H       1  <O>11       0.0542
  27 H5       -1.6391     3.0966     2.8265  H       1  <O>11       0.0542
  28 H6       -0.6651    -1.5937     7.2883  H       1  <O>11       0.1889
  29 H7       -1.1108     6.2325     7.6010  H       1  <O>11       0.0655
  30 H8       -3.0859     1.2956     2.7107  H       1  <O>11       0.0621
  31 H9       -3.8721    -0.8988     3.4247  H       1  <O>11       0.0618
  32 H10      -2.6995    -2.0436     5.2582  H       1  <O>11       0.0639
  33 H11       0.8507     1.8921     5.8394  H       1  <O>11       0.0854
  34 H12       0.9430     3.8952     4.8177  H       1  <O>11       0.0817
@<TRIPOS>BOND
     1     1     2    2
     2     2     3    1
     3     3     4    2
     4     3     5    1
     5     5     6   ar
     6     6     7   ar
     7     7     8    1
     8     7     9   ar
     9     9    10    2
    10     9    11   ar
    11    11    12    1
    12    12    13    1
    13    13    14   ar
    14    14    15   ar
    15    15    16   ar
    16    16    17   ar
    17    17    18   ar
    18    18    19   ar
    19    19    20   ar
    20    20    21   ar
    21    13    21   ar
    22    17    21   ar
    23    11    22   ar
    24     5    22   ar
    25     1    23    1
    26     1    24    1
    27     2    25    1
    28    12    26    1
    29    12    27    1
    30    18    28    1
    31     6    29    1
    32    14    30    1
    33    15    31    1
    34    16    32    1
    35    20    33    1
    36    22    34    1
@<TRIPOS>MOLECULE
mol56_1_6
 34 36 0 0 0
SMALL
USER_CHARGES
****
VDW energy = 51.79
@<TRIPOS>ATOM
   1 C1        2.9594     4.6406     8.4458  C.2     1  <O>11      -0.0951
   2 C2        1.7743     5.3830     8.1471  C.2     1  <O>11      -0.0214
   3 C3        1.3780     5.6020     6.7510  C.2     1  <O>11       0.1870
   4 O1        1.1468     4.6468     6.0236  O.2     1  <O>11      -0.2872
   5 C4        1.2603     6.9482     6.2349  C.ar    1  <O>11       0.0407
   6 C5        0.0635     7.6566     6.3001  C.ar    1  <O>11      -0.0088
   7 C6        0.0219     8.9460     5.7561  C.ar    1  <O>11       0.1882
   8 F1       -1.1425     9.6696     5.7772  F       1  <O>11      -0.1998
   9 C7        1.1731     9.4931     5.1919  C.ar    1  <O>11       0.2870
  10 O2        1.1008    10.7957     4.6619  O.2     1  <O>11      -0.2645
  11 N1        2.3302     8.8134     5.1450  N.ar    1  <O>11      -0.3078
  12 C8        3.5396     9.3513     4.5754  C.3     1  <O>11       0.0519
  13 C9        4.7130     8.8395     5.3315  C.ar    1  <O>11      -0.0170
  14 C10       5.7109     8.0795     4.6726  C.ar    1  <O>11      -0.0561
  15 C11       6.8330     7.5975     5.3648  C.ar    1  <O>11      -0.0594
  16 C12       6.9456     7.8773     6.7456  C.ar    1  <O>11      -0.0363
  17 C13       5.9198     8.5916     7.4013  C.ar    1  <O>11       0.0660
  18 N2        5.7136     8.9915     8.7261  N.ar    1  <O>11      -0.2770
  19 N3        4.6582     9.8496     8.8261  N.ar    1  <O>11      -0.1812
  20 C14       4.1068     9.8528     7.6164  C.ar    1  <O>11       0.0572
  21 C15       4.8388     9.1009     6.6826  C.ar    1  <O>11       0.0243
  22 C16       2.3551     7.5668     5.6579  C.ar    1  <O>11       0.0193
  23 H1        3.5685     4.2375     7.6367  H       1  <O>11       0.0536
  24 H2        3.2538     4.4779     9.4826  H       1  <O>11       0.0536
  25 H3        1.1653     5.7861     8.9562  H       1  <O>11       0.0650
  26 H4        3.5162    10.4393     4.6332  H       1  <O>11       0.0542
  27 H5        3.6188     9.0444     3.5324  H       1  <O>11       0.0542
  28 H6        6.2797     8.6804     9.5026  H       1  <O>11       0.1889
  29 H7       -0.7731     7.2411     6.7389  H       1  <O>11       0.0655
  30 H8        5.6111     7.8768     3.6657  H       1  <O>11       0.0621
  31 H9        7.5594     7.0511     4.8763  H       1  <O>11       0.0618
  32 H10       7.7745     7.5606     7.2724  H       1  <O>11       0.0639
  33 H11       3.2342    10.3540     7.3879  H       1  <O>11       0.0854
  34 H12       3.2433     7.0430     5.6178  H       1  <O>11       0.0817
@<TRIPOS>BOND
     1     1     2    2
     2     2     3    1
     3     3     4    2
     4     3     5    1
     5     5     6   ar
     6     6     7   ar
     7     7     8    1
     8     7     9   ar
     9     9    10    2
    10     9    11   ar
    11    11    12    1
    12    12    13    1
    13    13    14   ar
    14    14    15   ar
    15    15    16   ar
    16    16    17   ar
    17    17    18   ar
    18    18    19   ar
    19    19    20   ar
    20    20    21   ar
    21    13    21   ar
    22    17    21   ar
    23    11    22   ar
    24     5    22   ar
    25     1    23    1
    26     1    24    1
    27     2    25    1
    28    12    26    1
    29    12    27    1
    30    18    28    1
    31     6    29    1
    32    14    30    1
    33    15    31    1
    34    16    32    1
    35    20    33    1
    36    22    34    1
@<TRIPOS>MOLECULE
mol56_1_7
 34 36 0 0 0
SMALL
USER_CHARGES
****
VDW energy = 51.89
@<TRIPOS>ATOM
   1 C1        2.9594     4.6406     8.4458  C.2     1  <O>11      -0.0951
   2 C2        1.7743     5.3830     8.1471  C.2     1  <O>11      -0.0214
   3 C3        1.3780     5.6020     6.7510  C.2     1  <O>11       0.1870
   4 O1        2.1267     6.1962     5.9885  O.2     1  <O>11      -0.2872
   5 C4        0.1015     5.1146     6.2762  C.ar    1  <O>11       0.0407
   6 C5       -0.0407     3.8413     5.7311  C.ar    1  <O>11      -0.0088
   7 C6       -1.3038     3.4510     5.2705  C.ar    1  <O>11       0.1882
   8 F1       -1.4834     2.2151     4.7046  F       1  <O>11      -0.1998
   9 C7       -2.3818     4.3264     5.3905  C.ar    1  <O>11       0.2870
  10 O2       -3.6410     3.9003     4.9262  O.2     1  <O>11      -0.2645
  11 N1       -2.2448     5.5479     5.9314  N.ar    1  <O>11      -0.3078
  12 C8       -3.3386     6.4746     6.0766  C.3     1  <O>11       0.0519
  13 C9       -3.1509     7.2713     7.3178  C.ar    1  <O>11      -0.0170
  14 C10      -3.0375     8.6820     7.2505  C.ar    1  <O>11      -0.0561
  15 C11      -2.8723     9.4542     8.4110  C.ar    1  <O>11      -0.0594
  16 C12      -2.8101     8.7928     9.6585  C.ar    1  <O>11      -0.0363
  17 C13      -2.8731     7.3835     9.7077  C.ar    1  <O>11       0.0660
  18 N2       -2.8070     6.4477    10.7457  N.ar    1  <O>11      -0.2770
  19 N3       -3.1278     5.1970    10.3064  N.ar    1  <O>11      -0.1812
  20 C14      -3.2250     5.3150     8.9859  C.ar    1  <O>11       0.0572
  21 C15      -3.0852     6.6418     8.5462  C.ar    1  <O>11       0.0243
  22 C16      -1.0208     5.9194     6.3578  C.ar    1  <O>11       0.0193
  23 H1        3.5685     4.2375     7.6367  H       1  <O>11       0.0536
  24 H2        3.2538     4.4779     9.4826  H       1  <O>11       0.0536
  25 H3        1.1653     5.7861     8.9562  H       1  <O>11       0.0650
  26 H4       -4.2768     5.9232     6.1369  H       1  <O>11       0.0542
  27 H5       -3.3653     7.1442     5.2169  H       1  <O>11       0.0542
  28 H6       -2.5542     6.6781    11.6961  H       1  <O>11       0.1889
  29 H7        0.7659     3.2005     5.6682  H       1  <O>11       0.0655
  30 H8       -3.0770     9.1502     6.3317  H       1  <O>11       0.0621
  31 H9       -2.7980    10.4820     8.3546  H       1  <O>11       0.0618
  32 H10      -2.7190     9.3380    10.5300  H       1  <O>11       0.0639
  33 H11      -3.3859     4.5171     8.3515  H       1  <O>11       0.0854
  34 H12      -0.9150     6.8598     6.7694  H       1  <O>11       0.0817
@<TRIPOS>BOND
     1     1     2    2
     2     2     3    1
     3     3     4    2
     4     3     5    1
     5     5     6   ar
     6     6     7   ar
     7     7     8    1
     8     7     9   ar
     9     9    10    2
    10     9    11   ar
    11    11    12    1
    12    12    13    1
    13    13    14   ar
    14    14    15   ar
    15    15    16   ar
    16    16    17   ar
    17    17    18   ar
    18    18    19   ar
    19    19    20   ar
    20    20    21   ar
    21    13    21   ar
    22    17    21   ar
    23    11    22   ar
    24     5    22   ar
    25     1    23    1
    26     1    24    1
    27     2    25    1
    28    12    26    1
    29    12    27    1
    30    18    28    1
    31     6    29    1
    32    14    30    1
    33    15    31    1
    34    16    32    1
    35    20    33    1
    36    22    34    1
@<TRIPOS>MOLECULE
mol56_1_8
 34 36 0 0 0
SMALL
USER_CHARGES
****
VDW energy = 52.43
@<TRIPOS>ATOM
   1 C1        2.9594     4.6406     8.4458  C.2     1  <O>11      -0.0951
   2 C2        1.7743     5.3830     8.1471  C.2     1  <O>11      -0.0214
   3 C3        1.3780     5.6020     6.7510  C.2     1  <O>11       0.1870
   4 O1        1.1468     4.6468     6.0236  O.2     1  <O>11      -0.2872
   5 C4        1.2603     6.9482     6.2349  C.ar    1  <O>11       0.0407
   6 C5        0.3725     7.8693     6.7843  C.ar    1  <O>11      -0.0088
   7 C6        0.2982     9.1454     6.2134  C.ar    1  <O>11       0.1882
   8 F1       -0.5796    10.0755     6.7076  F       1  <O>11      -0.1998
   9 C7        1.1235     9.4679     5.1374  C.ar    1  <O>11       0.2870
  10 O2        1.0313    10.7627     4.5917  O.2     1  <O>11      -0.2645
  11 N1        1.9903     8.5824     4.6199  N.ar    1  <O>11      -0.3078
  12 C8        2.8619     8.8847     3.5130  C.3     1  <O>11       0.0519
  13 C9        4.1478     8.1580     3.6829  C.ar    1  <O>11      -0.0170
  14 C10       4.5759     7.2260     2.7053  C.ar    1  <O>11      -0.0561
  15 C11       5.7923     6.5385     2.8398  C.ar    1  <O>11      -0.0594
  16 C12       6.5849     6.7867     3.9834  C.ar    1  <O>11      -0.0363
  17 C13       6.1234     7.6791     4.9749  C.ar    1  <O>11       0.0660
  18 N2        6.6336     8.1057     6.2059  N.ar    1  <O>11      -0.2770
  19 N3        5.9100     9.1470     6.7081  N.ar    1  <O>11      -0.1812
  20 C14       4.8649     9.2587     5.8941  C.ar    1  <O>11       0.0572
  21 C15       4.9348     8.3858     4.7957  C.ar    1  <O>11       0.0243
  22 C16       2.0428     7.3514     5.1675  C.ar    1  <O>11       0.0193
  23 H1        3.5685     4.2375     7.6367  H       1  <O>11       0.0536
  24 H2        3.2538     4.4779     9.4826  H       1  <O>11       0.0536
  25 H3        1.1653     5.7861     8.9562  H       1  <O>11       0.0650
  26 H4        3.0519     9.9574     3.4822  H       1  <O>11       0.0542
  27 H5        2.3896     8.5724     2.5816  H       1  <O>11       0.0542
  28 H6        7.4364     7.6905     6.6569  H       1  <O>11       0.1889
  29 H7       -0.2167     7.6173     7.5933  H       1  <O>11       0.0655
  30 H8        3.9828     7.0496     1.8794  H       1  <O>11       0.0621
  31 H9        6.1010     5.8667     2.1198  H       1  <O>11       0.0618
  32 H10       7.4974     6.3174     4.0931  H       1  <O>11       0.0639
  33 H11       4.0856     9.9164     6.0521  H       1  <O>11       0.0854
  34 H12       2.7058     6.6697     4.7668  H       1  <O>11       0.0817
@<TRIPOS>BOND
     1     1     2    2
     2     2     3    1
     3     3     4    2
     4     3     5    1
     5     5     6   ar
     6     6     7   ar
     7     7     8    1
     8     7     9   ar
     9     9    10    2
    10     9    11   ar
    11    11    12    1
    12    12    13    1
    13    13    14   ar
    14    14    15   ar
    15    15    16   ar
    16    16    17   ar
    17    17    18   ar
    18    18    19   ar
    19    19    20   ar
    20    20    21   ar
    21    13    21   ar
    22    17    21   ar
    23    11    22   ar
    24     5    22   ar
    25     1    23    1
    26     1    24    1
    27     2    25    1
    28    12    26    1
    29    12    27    1
    30    18    28    1
    31     6    29    1
    32    14    30    1
    33    15    31    1
    34    16    32    1
    35    20    33    1
    36    22    34    1
@<TRIPOS>MOLECULE
mol56_1_9
 34 36 0 0 0
SMALL
USER_CHARGES
****
VDW energy = 52.71
@<TRIPOS>ATOM
   1 C1        2.9594     4.6406     8.4458  C.2     1  <O>11      -0.0951
   2 C2        1.7743     5.3830     8.1471  C.2     1  <O>11      -0.0214
   3 C3        1.3780     5.6020     6.7510  C.2     1  <O>11       0.1870
   4 O1        1.1468     4.6468     6.0236  O.2     1  <O>11      -0.2872
   5 C4        1.2603     6.9482     6.2349  C.ar    1  <O>11       0.0407
   6 C5        2.3378     7.6049     5.6464  C.ar    1  <O>11      -0.0088
   7 C6        2.1519     8.9164     5.1931  C.ar    1  <O>11       0.1882
   8 F1        3.1925     9.6085     4.6293  F       1  <O>11      -0.1998
   9 C7        0.9004     9.5173     5.3172  C.ar    1  <O>11       0.2870
  10 O2        0.7436    10.8339     4.8431  O.2     1  <O>11      -0.2645
  11 N1       -0.1412     8.8756     5.8707  N.ar    1  <O>11      -0.3078
  12 C8       -1.4491     9.4645     6.0084  C.3     1  <O>11       0.0519
  13 C9       -2.4856     8.4099     5.8528  C.ar    1  <O>11      -0.0170
  14 C10      -3.3935     8.1399     6.9065  C.ar    1  <O>11      -0.0561
  15 C11      -4.3875     7.1575     6.7758  C.ar    1  <O>11      -0.0594
  16 C12      -4.4608     6.4282     5.5673  C.ar    1  <O>11      -0.0363
  17 C13      -3.5186     6.6711     4.5447  C.ar    1  <O>11       0.0660
  18 N2       -3.2989     6.1154     3.2796  N.ar    1  <O>11      -0.2770
  19 N3       -2.3816     6.8370     2.5739  N.ar    1  <O>11      -0.1812
  20 C14      -1.9082     7.7262     3.4415  C.ar    1  <O>11       0.0572
  21 C15      -2.5709     7.6850     4.6794  C.ar    1  <O>11       0.0243
  22 C16       0.0528     7.6184     6.3177  C.ar    1  <O>11       0.0193
  23 H1        3.5685     4.2375     7.6367  H       1  <O>11       0.0536
  24 H2        3.2538     4.4779     9.4826  H       1  <O>11       0.0536
  25 H3        1.1653     5.7861     8.9562  H       1  <O>11       0.0650
  26 H4       -1.5875    10.2262     5.2414  H       1  <O>11       0.0542
  27 H5       -1.5414     9.9204     6.9941  H       1  <O>11       0.0542
  28 H6       -3.7653     5.2862     2.9403  H       1  <O>11       0.1889
  29 H7        3.2517     7.1359     5.5466  H       1  <O>11       0.0655
  30 H8       -3.3227     8.6753     7.7859  H       1  <O>11       0.0621
  31 H9       -5.0499     6.9717     7.5450  H       1  <O>11       0.0618
  32 H10      -5.2002     5.7209     5.4331  H       1  <O>11       0.0639
  33 H11      -1.1364     8.3772     3.2283  H       1  <O>11       0.0854
  34 H12      -0.7467     7.1270     6.7471  H       1  <O>11       0.0817
@<TRIPOS>BOND
     1     1     2    2
     2     2     3    1
     3     3     4    2
     4     3     5    1
     5     5     6   ar
     6     6     7   ar
     7     7     8    1
     8     7     9   ar
     9     9    10    2
    10     9    11   ar
    11    11    12    1
    12    12    13    1
    13    13    14   ar
    14    14    15   ar
    15    15    16   ar
    16    16    17   ar
    17    17    18   ar
    18    18    19   ar
    19    19    20   ar
    20    20    21   ar
    21    13    21   ar
    22    17    21   ar
    23    11    22   ar
    24     5    22   ar
    25     1    23    1
    26     1    24    1
    27     2    25    1
    28    12    26    1
    29    12    27    1
    30    18    28    1
    31     6    29    1
    32    14    30    1
    33    15    31    1
    34    16    32    1
    35    20    33    1
    36    22    34    1
@<TRIPOS>MOLECULE
mol56_1_10
 34 36 0 0 0
SMALL
USER_CHARGES
****
VDW energy = 53.17
@<TRIPOS>ATOM
   1 C1        2.9594     4.6406     8.4458  C.2     1  <O>11      -0.0951
   2 C2        1.7743     5.3830     8.1471  C.2     1  <O>11      -0.0214
   3 C3        1.3780     5.6020     6.7510  C.2     1  <O>11       0.1870
   4 O1        2.1267     6.1962     5.9885  O.2     1  <O>11      -0.2872
   5 C4        0.1015     5.1146     6.2762  C.ar    1  <O>11       0.0407
   6 C5       -1.1002     5.5390     6.8368  C.ar    1  <O>11      -0.0088
   7 C6       -2.2938     5.0024     6.3393  C.ar    1  <O>11       0.1882
   8 F1       -3.4983     5.3743     6.8785  F       1  <O>11      -0.1998
   9 C7       -2.2525     4.0863     5.2897  C.ar    1  <O>11       0.2870
  10 O2       -3.4709     3.5723     4.8057  O.2     1  <O>11      -0.2645
  11 N1       -1.0927     3.6911     4.7402  N.ar    1  <O>11      -0.3078
  12 C8       -1.0146     2.7515     3.6506  C.3     1  <O>11       0.0519
  13 C9        0.1302     3.1074     2.7712  C.ar    1  <O>11      -0.0170
  14 C10       1.1860     2.1854     2.5651  C.ar    1  <O>11      -0.0561
  15 C11       2.2699     2.4963     1.7291  C.ar    1  <O>11      -0.0594
  16 C12       2.2949     3.7612     1.0990  C.ar    1  <O>11      -0.0363
  17 C13       1.2631     4.6904     1.3525  C.ar    1  <O>11       0.0660
  18 N2        1.0152     6.0006     0.9289  N.ar    1  <O>11      -0.2770
  19 N3       -0.2358     6.4089     1.2873  N.ar    1  <O>11      -0.1812
  20 C14      -0.6993     5.4385     2.0688  C.ar    1  <O>11       0.0572
  21 C15       0.1731     4.3405     2.1487  C.ar    1  <O>11       0.0243
  22 C16       0.0516     4.2024     5.2372  C.ar    1  <O>11       0.0193
  23 H1        3.5685     4.2375     7.6367  H       1  <O>11       0.0536
  24 H2        3.2538     4.4779     9.4826  H       1  <O>11       0.0536
  25 H3        1.1653     5.7861     8.9562  H       1  <O>11       0.0650
  26 H4       -1.9394     2.7847     3.0748  H       1  <O>11       0.0542
  27 H5       -0.8687     1.7463     4.0461  H       1  <O>11       0.0542
  28 H6        1.6828     6.5641     0.4220  H       1  <O>11       0.1889
  29 H7       -1.1108     6.2325     7.6010  H       1  <O>11       0.0655
  30 H8        1.1576     1.2686     3.0381  H       1  <O>11       0.0621
  31 H9        3.0315     1.8165     1.5779  H       1  <O>11       0.0618
  32 H10       3.0646     4.0045     0.4560  H       1  <O>11       0.0639
  33 H11      -1.6034     5.4867     2.5640  H       1  <O>11       0.0854
  34 H12       0.9430     3.8952     4.8177  H       1  <O>11       0.0817
@<TRIPOS>BOND
     1     1     2    2
     2     2     3    1
     3     3     4    2
     4     3     5    1
     5     5     6   ar
     6     6     7   ar
     7     7     8    1
     8     7     9   ar
     9     9    10    2
    10     9    11   ar
    11    11    12    1
    12    12    13    1
    13    13    14   ar
    14    14    15   ar
    15    15    16   ar
    16    16    17   ar
    17    17    18   ar
    18    18    19   ar
    19    19    20   ar
    20    20    21   ar
    21    13    21   ar
    22    17    21   ar
    23    11    22   ar
    24     5    22   ar
    25     1    23    1
    26     1    24    1
    27     2    25    1
    28    12    26    1
    29    12    27    1
    30    18    28    1
    31     6    29    1
    32    14    30    1
    33    15    31    1
    34    16    32    1
    35    20    33    1
    36    22    34    1
@<TRIPOS>MOLECULE
mol56_1_11
 34 36 0 0 0
SMALL
USER_CHARGES
****
VDW energy = 54.91
@<TRIPOS>ATOM
   1 C1        2.9594     4.6406     8.4458  C.2     1  <O>11      -0.0951
   2 C2        1.7743     5.3830     8.1471  C.2     1  <O>11      -0.0214
   3 C3        1.3780     5.6020     6.7510  C.2     1  <O>11       0.1870
   4 O1        1.1468     4.6468     6.0236  O.2     1  <O>11      -0.2872
   5 C4        1.2603     6.9482     6.2349  C.ar    1  <O>11       0.0407
   6 C5        2.3378     7.6049     5.6464  C.ar    1  <O>11      -0.0088
   7 C6        2.1519     8.9164     5.1931  C.ar    1  <O>11       0.1882
   8 F1        3.1925     9.6085     4.6293  F       1  <O>11      -0.1998
   9 C7        0.9004     9.5173     5.3172  C.ar    1  <O>11       0.2870
  10 O2        0.7436    10.8339     4.8431  O.2     1  <O>11      -0.2645
  11 N1       -0.1412     8.8756     5.8707  N.ar    1  <O>11      -0.3078
  12 C8       -1.4491     9.4645     6.0084  C.3     1  <O>11       0.0519
  13 C9       -2.4856     8.4099     5.8528  C.ar    1  <O>11      -0.0170
  14 C10      -2.9507     7.6935     6.9832  C.ar    1  <O>11      -0.0561
  15 C11      -3.9375     6.7028     6.8604  C.ar    1  <O>11      -0.0594
  16 C12      -4.4563     6.4226     5.5759  C.ar    1  <O>11      -0.0363
  17 C13      -3.9484     7.1073     4.4509  C.ar    1  <O>11       0.0660
  18 N2       -4.2125     7.0430     3.0785  N.ar    1  <O>11      -0.2770
  19 N3       -3.6055     8.0644     2.4087  N.ar    1  <O>11      -0.1812
  20 C14      -2.8362     8.6567     3.3168  C.ar    1  <O>11       0.0572
  21 C15      -3.0027     8.1205     4.6044  C.ar    1  <O>11       0.0243
  22 C16       0.0528     7.6184     6.3177  C.ar    1  <O>11       0.0193
  23 H1        3.5685     4.2375     7.6367  H       1  <O>11       0.0536
  24 H2        3.2538     4.4779     9.4826  H       1  <O>11       0.0536
  25 H3        1.1653     5.7861     8.9562  H       1  <O>11       0.0650
  26 H4       -1.5875    10.2262     5.2414  H       1  <O>11       0.0542
  27 H5       -1.5414     9.9204     6.9941  H       1  <O>11       0.0542
  28 H6       -4.7820     6.3286     2.6477  H       1  <O>11       0.1889
  29 H7        3.2517     7.1359     5.5466  H       1  <O>11       0.0655
  30 H8       -2.5569     7.9038     7.9136  H       1  <O>11       0.0621
  31 H9       -4.2766     6.1904     7.6895  H       1  <O>11       0.0618
  32 H10      -5.2036     5.7202     5.4609  H       1  <O>11       0.0639
  33 H11      -2.1862     9.4280     3.0990  H       1  <O>11       0.0854
  34 H12      -0.7467     7.1270     6.7471  H       1  <O>11       0.0817
@<TRIPOS>BOND
     1     1     2    2
     2     2     3    1
     3     3     4    2
     4     3     5    1
     5     5     6   ar
     6     6     7   ar
     7     7     8    1
     8     7     9   ar
     9     9    10    2
    10     9    11   ar
    11    11    12    1
    12    12    13    1
    13    13    14   ar
    14    14    15   ar
    15    15    16   ar
    16    16    17   ar
    17    17    18   ar
    18    18    19   ar
    19    19    20   ar
    20    20    21   ar
    21    13    21   ar
    22    17    21   ar
    23    11    22   ar
    24     5    22   ar
    25     1    23    1
    26     1    24    1
    27     2    25    1
    28    12    26    1
    29    12    27    1
    30    18    28    1
    31     6    29    1
    32    14    30    1
    33    15    31    1
    34    16    32    1
    35    20    33    1
    36    22    34    1
@<TRIPOS>MOLECULE
mol56_1_12
 34 36 0 0 0
SMALL
USER_CHARGES
****
VDW energy = 55.82
@<TRIPOS>ATOM
   1 C1        2.9594     4.6406     8.4458  C.2     1  <O>11      -0.0951
   2 C2        1.7743     5.3830     8.1471  C.2     1  <O>11      -0.0214
   3 C3        1.3780     5.6020     6.7510  C.2     1  <O>11       0.1870
   4 O1        0.3649     6.2369     6.4950  O.2     1  <O>11      -0.2872
   5 C4        2.1861     5.0671     5.6770  C.ar    1  <O>11       0.0407
   6 C5        1.9636     3.7957     5.1550  C.ar    1  <O>11      -0.0088
   7 C6        2.8042     3.3386     4.1330  C.ar    1  <O>11       0.1882
   8 F1        2.6359     2.0837     3.6069  F       1  <O>11      -0.1998
   9 C7        3.8156     4.1674     3.6504  C.ar    1  <O>11       0.2870
  10 O2        4.6380     3.6817     2.6157  O.2     1  <O>11      -0.2645
  11 N1        4.0174     5.3994     4.1450  N.ar    1  <O>11      -0.3078
  12 C8        5.0487     6.2840     3.6650  C.3     1  <O>11       0.0519
  13 C9        4.5685     7.6893     3.7373  C.ar    1  <O>11      -0.0170
  14 C10       4.7849     8.4585     4.9073  C.ar    1  <O>11      -0.0561
  15 C11       4.3510     9.7908     4.9920  C.ar    1  <O>11      -0.0594
  16 C12       3.6789    10.3533     3.8832  C.ar    1  <O>11      -0.0363
  17 C13       3.4244     9.5611     2.7430  C.ar    1  <O>11       0.0660
  18 N2        2.7723     9.7960     1.5276  N.ar    1  <O>11      -0.2770
  19 N3        2.9703     8.7686     0.6525  N.ar    1  <O>11      -0.1812
  20 C14       3.5891     7.8311     1.3634  C.ar    1  <O>11       0.0572
  21 C15       3.9073     8.2554     2.6641  C.ar    1  <O>11       0.0243
  22 C16       3.2120     5.8238     5.1395  C.ar    1  <O>11       0.0193
  23 H1        3.5685     4.2375     7.6367  H       1  <O>11       0.0536
  24 H2        3.2538     4.4779     9.4826  H       1  <O>11       0.0536
  25 H3        1.1653     5.7861     8.9562  H       1  <O>11       0.0650
  26 H4        5.2896     6.0349     2.6317  H       1  <O>11       0.0542
  27 H5        5.9400     6.1735     4.2827  H       1  <O>11       0.0542
  28 H6        2.2278    10.6238     1.3316  H       1  <O>11       0.1889
  29 H7        1.1973     3.2043     5.5130  H       1  <O>11       0.0655
  30 H8        5.2703     8.0316     5.7118  H       1  <O>11       0.0621
  31 H9        4.5189    10.3470     5.8448  H       1  <O>11       0.0618
  32 H10       3.3755    11.3394     3.9070  H       1  <O>11       0.0639
  33 H11       3.8120     6.8918     0.9985  H       1  <O>11       0.0854
  34 H12       3.3701     6.7690     5.5223  H       1  <O>11       0.0817
@<TRIPOS>BOND
     1     1     2    2
     2     2     3    1
     3     3     4    2
     4     3     5    1
     5     5     6   ar
     6     6     7   ar
     7     7     8    1
     8     7     9   ar
     9     9    10    2
    10     9    11   ar
    11    11    12    1
    12    12    13    1
    13    13    14   ar
    14    14    15   ar
    15    15    16   ar
    16    16    17   ar
    17    17    18   ar
    18    18    19   ar
    19    19    20   ar
    20    20    21   ar
    21    13    21   ar
    22    17    21   ar
    23    11    22   ar
    24     5    22   ar
    25     1    23    1
    26     1    24    1
    27     2    25    1
    28    12    26    1
    29    12    27    1
    30    18    28    1
    31     6    29    1
    32    14    30    1
    33    15    31    1
    34    16    32    1
    35    20    33    1
    36    22    34    1
@<TRIPOS>MOLECULE
mol56_1_13
 34 36 0 0 0
SMALL
USER_CHARGES
****
VDW energy = 56.69
@<TRIPOS>ATOM
   1 C1        2.9594     4.6406     8.4458  C.2     1  <O>11      -0.0951
   2 C2        1.7743     5.3830     8.1471  C.2     1  <O>11      -0.0214
   3 C3        1.3780     5.6020     6.7510  C.2     1  <O>11       0.1870
   4 O1        0.2005     5.7717     6.4687  O.2     1  <O>11      -0.2872
   5 C4        2.3804     5.6177     5.7082  C.ar    1  <O>11       0.0407
   6 C5        2.7557     4.4587     5.0342  C.ar    1  <O>11      -0.0088
   7 C6        3.7514     4.5505     4.0543  C.ar    1  <O>11       0.1882
   8 F1        4.1683     3.4300     3.3831  F       1  <O>11      -0.1998
   9 C7        4.3183     5.7899     3.7622  C.ar    1  <O>11       0.2870
  10 O2        5.3106     5.8502     2.7649  O.2     1  <O>11      -0.2645
  11 N1        3.9428     6.9087     4.4029  N.ar    1  <O>11      -0.3078
  12 C8        4.5032     8.2060     4.1213  C.3     1  <O>11       0.0519
  13 C9        3.4557     9.2464     4.2975  C.ar    1  <O>11      -0.0170
  14 C10       2.6370     9.6275     3.2057  C.ar    1  <O>11      -0.0561
  15 C11       1.6341    10.5984     3.3533  C.ar    1  <O>11      -0.0594
  16 C12       1.4606    11.2023     4.6194  C.ar    1  <O>11      -0.0363
  17 C13       2.3159    10.8511     5.6859  C.ar    1  <O>11       0.0660
  18 N2        2.4301    11.2747     7.0144  N.ar    1  <O>11      -0.2770
  19 N3        3.2876    10.4793     7.7162  N.ar    1  <O>11      -0.1812
  20 C14       3.8320     9.6792     6.8047  C.ar    1  <O>11       0.0572
  21 C15       3.2732     9.8497     5.5273  C.ar    1  <O>11       0.0243
  22 C16       2.9941     6.8064     5.3555  C.ar    1  <O>11       0.0193
  23 H1        3.5685     4.2375     7.6367  H       1  <O>11       0.0536
  24 H2        3.2538     4.4779     9.4826  H       1  <O>11       0.0536
  25 H3        1.1653     5.7861     8.9562  H       1  <O>11       0.0650
  26 H4        4.8695     8.2290     3.0952  H       1  <O>11       0.0542
  27 H5        5.3281     8.4029     4.8061  H       1  <O>11       0.0542
  28 H6        1.9362    12.0685     7.3966  H       1  <O>11       0.1889
  29 H7        2.3105     3.5534     5.2518  H       1  <O>11       0.0655
  30 H8        2.7807     9.1833     2.2854  H       1  <O>11       0.0621
  31 H9        1.0368    10.8654     2.5553  H       1  <O>11       0.0618
  32 H10       0.7115    11.8974     4.7635  H       1  <O>11       0.0639
  33 H11       4.5848     9.0048     7.0134  H       1  <O>11       0.0854
  34 H12       2.7088     7.6656     5.8507  H       1  <O>11       0.0817
@<TRIPOS>BOND
     1     1     2    2
     2     2     3    1
     3     3     4    2
     4     3     5    1
     5     5     6   ar
     6     6     7   ar
     7     7     8    1
     8     7     9   ar
     9     9    10    2
    10     9    11   ar
    11    11    12    1
    12    12    13    1
    13    13    14   ar
    14    14    15   ar
    15    15    16   ar
    16    16    17   ar
    17    17    18   ar
    18    18    19   ar
    19    19    20   ar
    20    20    21   ar
    21    13    21   ar
    22    17    21   ar
    23    11    22   ar
    24     5    22   ar
    25     1    23    1
    26     1    24    1
    27     2    25    1
    28    12    26    1
    29    12    27    1
    30    18    28    1
    31     6    29    1
    32    14    30    1
    33    15    31    1
    34    16    32    1
    35    20    33    1
    36    22    34    1
@<TRIPOS>MOLECULE
mol56_1_14
 34 36 0 0 0
SMALL
USER_CHARGES
****
VDW energy = 57.30
@<TRIPOS>ATOM
   1 C1        2.9594     4.6406     8.4458  C.2     1  <O>11      -0.0951
   2 C2        1.7743     5.3830     8.1471  C.2     1  <O>11      -0.0214
   3 C3        1.3780     5.6020     6.7510  C.2     1  <O>11       0.1870
   4 O1        2.1267     6.1962     5.9885  O.2     1  <O>11      -0.2872
   5 C4        0.1015     5.1146     6.2762  C.ar    1  <O>11       0.0407
   6 C5       -0.4308     5.5211     5.0556  C.ar    1  <O>11      -0.0088
   7 C6       -1.6836     5.0243     4.6764  C.ar    1  <O>11       0.1882
   8 F1       -2.2557     5.4171     3.4939  F       1  <O>11      -0.1998
   9 C7       -2.3487     4.1252     5.5083  C.ar    1  <O>11       0.2870
  10 O2       -3.6027     3.6367     5.0940  O.2     1  <O>11      -0.2645
  11 N1       -1.8253     3.7226     6.6776  N.ar    1  <O>11      -0.3078
  12 C8       -2.4827     2.7900     7.5578  C.3     1  <O>11       0.0519
  13 C9       -1.4627     1.9511     8.2408  C.ar    1  <O>11      -0.0170
  14 C10      -1.3636     1.9568     9.6542  C.ar    1  <O>11      -0.0561
  15 C11      -0.4164     1.1630    10.3197  C.ar    1  <O>11      -0.0594
  16 C12       0.4518     0.3583     9.5474  C.ar    1  <O>11      -0.0363
  17 C13       0.3772     0.4000     8.1385  C.ar    1  <O>11       0.0660
  18 N2        1.0929    -0.2268     7.1127  N.ar    1  <O>11      -0.2770
  19 N3        0.5036    -0.0211     5.9000  N.ar    1  <O>11      -0.1812
  20 C14      -0.4640     0.8591     6.1372  C.ar    1  <O>11       0.0572
  21 C15      -0.6037     1.1598     7.5022  C.ar    1  <O>11       0.0243
  22 C16      -0.6254     4.2190     7.0402  C.ar    1  <O>11       0.0193
  23 H1        3.5685     4.2375     7.6367  H       1  <O>11       0.0536
  24 H2        3.2538     4.4779     9.4826  H       1  <O>11       0.0536
  25 H3        1.1653     5.7861     8.9562  H       1  <O>11       0.0650
  26 H4       -3.1498     2.1518     6.9787  H       1  <O>11       0.0542
  27 H5       -3.0597     3.3374     8.3031  H       1  <O>11       0.0542
  28 H6        1.9366    -0.7622     7.2607  H       1  <O>11       0.1889
  29 H7        0.0859     6.1731     4.4448  H       1  <O>11       0.0655
  30 H8       -1.9993     2.5554    10.2043  H       1  <O>11       0.0621
  31 H9       -0.3552     1.1668    11.3499  H       1  <O>11       0.0618
  32 H10       1.1376    -0.2574    10.0118  H       1  <O>11       0.0639
  33 H11      -1.0499     1.2769     5.3975  H       1  <O>11       0.0854
  34 H12      -0.2254     3.9128     7.9409  H       1  <O>11       0.0817
@<TRIPOS>BOND
     1     1     2    2
     2     2     3    1
     3     3     4    2
     4     3     5    1
     5     5     6   ar
     6     6     7   ar
     7     7     8    1
     8     7     9   ar
     9     9    10    2
    10     9    11   ar
    11    11    12    1
    12    12    13    1
    13    13    14   ar
    14    14    15   ar
    15    15    16   ar
    16    16    17   ar
    17    17    18   ar
    18    18    19   ar
    19    19    20   ar
    20    20    21   ar
    21    13    21   ar
    22    17    21   ar
    23    11    22   ar
    24     5    22   ar
    25     1    23    1
    26     1    24    1
    27     2    25    1
    28    12    26    1
    29    12    27    1
    30    18    28    1
    31     6    29    1
    32    14    30    1
    33    15    31    1
    34    16    32    1
    35    20    33    1
    36    22    34    1
@<TRIPOS>MOLECULE
mol56_1_15
 34 36 0 0 0
SMALL
USER_CHARGES
****
VDW energy = 57.76
@<TRIPOS>ATOM
   1 C1        2.9594     4.6406     8.4458  C.2     1  <O>11      -0.0951
   2 C2        1.7743     5.3830     8.1471  C.2     1  <O>11      -0.0214
   3 C3        1.3780     5.6020     6.7510  C.2     1  <O>11       0.1870
   4 O1        1.1468     4.6468     6.0236  O.2     1  <O>11      -0.2872
   5 C4        1.2603     6.9482     6.2349  C.ar    1  <O>11       0.0407
   6 C5        1.1505     7.2036     4.8706  C.ar    1  <O>11      -0.0088
   7 C6        1.0656     8.5352     4.4468  C.ar    1  <O>11       0.1882
   8 F1        0.9805     8.8331     3.1111  F       1  <O>11      -0.1998
   9 C7        1.0671     9.5603     5.3913  C.ar    1  <O>11       0.2870
  10 O2        0.9709    10.8884     4.9332  O.2     1  <O>11      -0.2645
  11 N1        1.1569     9.3099     6.7075  N.ar    1  <O>11      -0.3078
  12 C8        1.1547    10.3446     7.7103  C.3     1  <O>11       0.0519
  13 C9        0.4673     9.8486     8.9318  C.ar    1  <O>11      -0.0170
  14 C10       1.1601     9.7878    10.1662  C.ar    1  <O>11      -0.0561
  15 C11       0.5265     9.3346    11.3339  C.ar    1  <O>11      -0.0594
  16 C12      -0.8242     8.9263    11.2537  C.ar    1  <O>11      -0.0363
  17 C13      -1.4881     8.9433    10.0081  C.ar    1  <O>11       0.0660
  18 N2       -2.7740     8.5814     9.5921  N.ar    1  <O>11      -0.2770
  19 N3       -3.0106     8.9811     8.3097  N.ar    1  <O>11      -0.1812
  20 C14      -1.8387     9.4309     7.8721  C.ar    1  <O>11       0.0572
  21 C15      -0.8523     9.4427     8.8721  C.ar    1  <O>11       0.0243
  22 C16       1.2537     8.0248     7.1038  C.ar    1  <O>11       0.0193
  23 H1        3.5685     4.2375     7.6367  H       1  <O>11       0.0536
  24 H2        3.2538     4.4779     9.4826  H       1  <O>11       0.0536
  25 H3        1.1653     5.7861     8.9562  H       1  <O>11       0.0650
  26 H4        0.6301    11.2202     7.3282  H       1  <O>11       0.0542
  27 H5        2.1814    10.6151     7.9570  H       1  <O>11       0.0542
  28 H6       -3.4361     8.0883    10.1741  H       1  <O>11       0.1889
  29 H7        1.1322     6.4298     4.1881  H       1  <O>11       0.0655
  30 H8        2.1484    10.0821    10.2076  H       1  <O>11       0.0621
  31 H9        1.0356     9.3003    12.2309  H       1  <O>11       0.0618
  32 H10      -1.3232     8.6169    12.1024  H       1  <O>11       0.0639
  33 H11      -1.6715     9.7386     6.9013  H       1  <O>11       0.0854
  34 H12       1.3271     7.8328     8.1151  H       1  <O>11       0.0817
@<TRIPOS>BOND
     1     1     2    2
     2     2     3    1
     3     3     4    2
     4     3     5    1
     5     5     6   ar
     6     6     7   ar
     7     7     8    1
     8     7     9   ar
     9     9    10    2
    10     9    11   ar
    11    11    12    1
    12    12    13    1
    13    13    14   ar
    14    14    15   ar
    15    15    16   ar
    16    16    17   ar
    17    17    18   ar
    18    18    19   ar
    19    19    20   ar
    20    20    21   ar
    21    13    21   ar
    22    17    21   ar
    23    11    22   ar
    24     5    22   ar
    25     1    23    1
    26     1    24    1
    27     2    25    1
    28    12    26    1
    29    12    27    1
    30    18    28    1
    31     6    29    1
    32    14    30    1
    33    15    31    1
    34    16    32    1
    35    20    33    1
    36    22    34    1
@<TRIPOS>MOLECULE
mol56_1_16
 34 36 0 0 0
SMALL
USER_CHARGES
****
VDW energy = 59.92
@<TRIPOS>ATOM
   1 C1        2.9594     4.6406     8.4458  C.2     1  <O>11      -0.0951
   2 C2        1.7743     5.3830     8.1471  C.2     1  <O>11      -0.0214
   3 C3        1.3780     5.6020     6.7510  C.2     1  <O>11       0.1870
   4 O1        2.1267     6.1962     5.9885  O.2     1  <O>11      -0.2872
   5 C4        0.1015     5.1146     6.2762  C.ar    1  <O>11       0.0407
   6 C5       -1.0507     5.8936     6.3398  C.ar    1  <O>11      -0.0088
   7 C6       -2.2538     5.3422     5.8831  C.ar    1  <O>11       0.1882
   8 F1       -3.4167     6.0655     5.9496  F       1  <O>11      -0.1998
   9 C7       -2.2645     4.0511     5.3581  C.ar    1  <O>11       0.2870
  10 O2       -3.4889     3.5289     4.8986  O.2     1  <O>11      -0.2645
  11 N1       -1.1485     3.3081     5.2833  N.ar    1  <O>11      -0.3078
  12 C8       -1.1230     1.9734     4.7407  C.3     1  <O>11       0.0519
  13 C9        0.1745     1.7438     4.0520  C.ar    1  <O>11      -0.0170
  14 C10       0.8010     2.7963     3.3398  C.ar    1  <O>11      -0.0561
  15 C11       2.0320     2.6046     2.6931  C.ar    1  <O>11      -0.0594
  16 C12       2.6361     1.3284     2.7567  C.ar    1  <O>11      -0.0363
  17 C13       1.9775     0.2745     3.4261  C.ar    1  <O>11       0.0660
  18 N2        2.2778    -1.0758     3.6359  N.ar    1  <O>11      -0.2770
  19 N3        1.4185    -1.6411     4.5317  N.ar    1  <O>11      -0.1812
  20 C14       0.4933    -0.7115     4.7484  C.ar    1  <O>11       0.0572
  21 C15       0.7788     0.5020     4.1011  C.ar    1  <O>11       0.0243
  22 C16       0.0018     3.8431     5.7400  C.ar    1  <O>11       0.0193
  23 H1        3.5685     4.2375     7.6367  H       1  <O>11       0.0536
  24 H2        3.2538     4.4779     9.4826  H       1  <O>11       0.0536
  25 H3        1.1653     5.7861     8.9562  H       1  <O>11       0.0650
  26 H4       -1.9389     1.8550     4.0280  H       1  <O>11       0.0542
  27 H5       -1.2377     1.2499     5.5478  H       1  <O>11       0.0542
  28 H6        3.0364    -1.5614     3.1789  H       1  <O>11       0.1889
  29 H7       -1.0186     6.8546     6.7146  H       1  <O>11       0.0655
  30 H8        0.3440     3.7206     3.2957  H       1  <O>11       0.0621
  31 H9        2.4858     3.3781     2.1826  H       1  <O>11       0.0618
  32 H10       3.5551     1.1676     2.3156  H       1  <O>11       0.0639
  33 H11      -0.3453    -0.8650     5.3299  H       1  <O>11       0.0854
  34 H12       0.8585     3.2703     5.6864  H       1  <O>11       0.0817
@<TRIPOS>BOND
     1     1     2    2
     2     2     3    1
     3     3     4    2
     4     3     5    1
     5     5     6   ar
     6     6     7   ar
     7     7     8    1
     8     7     9   ar
     9     9    10    2
    10     9    11   ar
    11    11    12    1
    12    12    13    1
    13    13    14   ar
    14    14    15   ar
    15    15    16   ar
    16    16    17   ar
    17    17    18   ar
    18    18    19   ar
    19    19    20   ar
    20    20    21   ar
    21    13    21   ar
    22    17    21   ar
    23    11    22   ar
    24     5    22   ar
    25     1    23    1
    26     1    24    1
    27     2    25    1
    28    12    26    1
    29    12    27    1
    30    18    28    1
    31     6    29    1
    32    14    30    1
    33    15    31    1
    34    16    32    1
    35    20    33    1
    36    22    34    1
@<TRIPOS>MOLECULE
mol56_1_17
 34 36 0 0 0
SMALL
USER_CHARGES
****
VDW energy = 60.08
@<TRIPOS>ATOM
   1 C1        2.9594     4.6406     8.4458  C.2     1  <O>11      -0.0951
   2 C2        1.7743     5.3830     8.1471  C.2     1  <O>11      -0.0214
   3 C3        1.3780     5.6020     6.7510  C.2     1  <O>11       0.1870
   4 O1        1.1468     4.6468     6.0236  O.2     1  <O>11      -0.2872
   5 C4        1.2603     6.9482     6.2349  C.ar    1  <O>11       0.0407
   6 C5        2.3378     7.6049     5.6464  C.ar    1  <O>11      -0.0088
   7 C6        2.1519     8.9164     5.1931  C.ar    1  <O>11       0.1882
   8 F1        3.1925     9.6085     4.6293  F       1  <O>11      -0.1998
   9 C7        0.9004     9.5173     5.3172  C.ar    1  <O>11       0.2870
  10 O2        0.7436    10.8339     4.8431  O.2     1  <O>11      -0.2645
  11 N1       -0.1412     8.8756     5.8707  N.ar    1  <O>11      -0.3078
  12 C8       -1.4491     9.4645     6.0084  C.3     1  <O>11       0.0519
  13 C9       -2.4856     8.4099     5.8528  C.ar    1  <O>11      -0.0170
  14 C10      -2.2933     7.3499     4.9325  C.ar    1  <O>11      -0.0561
  15 C11      -3.2533     6.3374     4.7790  C.ar    1  <O>11      -0.0594
  16 C12      -4.4308     6.4001     5.5583  C.ar    1  <O>11      -0.0363
  17 C13      -4.6336     7.4882     6.4343  C.ar    1  <O>11       0.0660
  18 N2       -5.6737     7.8571     7.2943  N.ar    1  <O>11      -0.2770
  19 N3       -5.3087     8.8993     8.0947  N.ar    1  <O>11      -0.1812
  20 C14      -4.1261     9.2883     7.6283  C.ar    1  <O>11       0.0572
  21 C15      -3.6443     8.4560     6.6044  C.ar    1  <O>11       0.0243
  22 C16       0.0528     7.6184     6.3177  C.ar    1  <O>11       0.0193
  23 H1        3.5685     4.2375     7.6367  H       1  <O>11       0.0536
  24 H2        3.2538     4.4779     9.4826  H       1  <O>11       0.0536
  25 H3        1.1653     5.7861     8.9562  H       1  <O>11       0.0650
  26 H4       -1.5875    10.2262     5.2414  H       1  <O>11       0.0542
  27 H5       -1.5414     9.9204     6.9941  H       1  <O>11       0.0542
  28 H6       -6.5759     7.4033     7.3137  H       1  <O>11       0.1889
  29 H7        3.2517     7.1359     5.5466  H       1  <O>11       0.0655
  30 H8       -1.4320     7.3218     4.3648  H       1  <O>11       0.0621
  31 H9       -3.1027     5.5645     4.1120  H       1  <O>11       0.0618
  32 H10      -5.1394     5.6532     5.4872  H       1  <O>11       0.0639
  33 H11      -3.6165    10.1135     7.9807  H       1  <O>11       0.0854
  34 H12      -0.7467     7.1270     6.7471  H       1  <O>11       0.0817
@<TRIPOS>BOND
     1     1     2    2
     2     2     3    1
     3     3     4    2
     4     3     5    1
     5     5     6   ar
     6     6     7   ar
     7     7     8    1
     8     7     9   ar
     9     9    10    2
    10     9    11   ar
    11    11    12    1
    12    12    13    1
    13    13    14   ar
    14    14    15   ar
    15    15    16   ar
    16    16    17   ar
    17    17    18   ar
    18    18    19   ar
    19    19    20   ar
    20    20    21   ar
    21    13    21   ar
    22    17    21   ar
    23    11    22   ar
    24     5    22   ar
    25     1    23    1
    26     1    24    1
    27     2    25    1
    28    12    26    1
    29    12    27    1
    30    18    28    1
    31     6    29    1
    32    14    30    1
    33    15    31    1
    34    16    32    1
    35    20    33    1
    36    22    34    1
@<TRIPOS>MOLECULE
mol56_1_18
 34 36 0 0 0
SMALL
USER_CHARGES
****
VDW energy = 60.18
@<TRIPOS>ATOM
   1 C1        2.9594     4.6406     8.4458  C.2     1  <O>11      -0.0951
   2 C2        1.7743     5.3830     8.1471  C.2     1  <O>11      -0.0214
   3 C3        1.3780     5.6020     6.7510  C.2     1  <O>11       0.1870
   4 O1        0.2005     5.7717     6.4687  O.2     1  <O>11      -0.2872
   5 C4        2.3804     5.6177     5.7082  C.ar    1  <O>11       0.0407
   6 C5        3.4252     6.5380     5.7090  C.ar    1  <O>11      -0.0088
   7 C6        4.3420     6.5060     4.6514  C.ar    1  <O>11       0.1882
   8 F1        5.3721     7.4095     4.6000  F       1  <O>11      -0.1998
   9 C7        4.2035     5.5483     3.6482  C.ar    1  <O>11       0.2870
  10 O2        5.1475     5.5366     2.6035  O.2     1  <O>11      -0.2645
  11 N1        3.2040     4.6517     3.6588  N.ar    1  <O>11      -0.3078
  12 C8        3.0354     3.6448     2.6418  C.3     1  <O>11       0.0519
  13 C9        2.4783     2.4103     3.2552  C.ar    1  <O>11      -0.0170
  14 C10       2.8698     2.0220     4.5603  C.ar    1  <O>11      -0.0561
  15 C11       2.3467     0.8672     5.1629  C.ar    1  <O>11      -0.0594
  16 C12       1.4218     0.0856     4.4340  C.ar    1  <O>11      -0.0363
  17 C13       1.0786     0.4550     3.1156  C.ar    1  <O>11       0.0660
  18 N2        0.2467    -0.1042     2.1395  N.ar    1  <O>11      -0.2770
  19 N3        0.0807     0.7442     1.0846  N.ar    1  <O>11      -0.1812
  20 C14       0.9281     1.7424     1.3146  C.ar    1  <O>11       0.0572
  21 C15       1.5747     1.6322     2.5567  C.ar    1  <O>11       0.0243
  22 C16       2.3178     4.7011     4.6737  C.ar    1  <O>11       0.0193
  23 H1        3.5685     4.2375     7.6367  H       1  <O>11       0.0536
  24 H2        3.2538     4.4779     9.4826  H       1  <O>11       0.0536
  25 H3        1.1653     5.7861     8.9562  H       1  <O>11       0.0650
  26 H4        4.0005     3.4215     2.1876  H       1  <O>11       0.0542
  27 H5        2.3499     4.0105     1.8773  H       1  <O>11       0.0542
  28 H6       -0.1737    -1.0195     2.2153  H       1  <O>11       0.1889
  29 H7        3.5214     7.2273     6.4710  H       1  <O>11       0.0655
  30 H8        3.5520     2.5986     5.0772  H       1  <O>11       0.0621
  31 H9        2.6310     0.5950     6.1168  H       1  <O>11       0.0618
  32 H10       0.9990    -0.7519     4.8639  H       1  <O>11       0.0639
  33 H11       1.0931     2.5157     0.6514  H       1  <O>11       0.0854
  34 H12       1.5472     4.0148     4.6793  H       1  <O>11       0.0817
@<TRIPOS>BOND
     1     1     2    2
     2     2     3    1
     3     3     4    2
     4     3     5    1
     5     5     6   ar
     6     6     7   ar
     7     7     8    1
     8     7     9   ar
     9     9    10    2
    10     9    11   ar
    11    11    12    1
    12    12    13    1
    13    13    14   ar
    14    14    15   ar
    15    15    16   ar
    16    16    17   ar
    17    17    18   ar
    18    18    19   ar
    19    19    20   ar
    20    20    21   ar
    21    13    21   ar
    22    17    21   ar
    23    11    22   ar
    24     5    22   ar
    25     1    23    1
    26     1    24    1
    27     2    25    1
    28    12    26    1
    29    12    27    1
    30    18    28    1
    31     6    29    1
    32    14    30    1
    33    15    31    1
    34    16    32    1
    35    20    33    1
    36    22    34    1
@<TRIPOS>MOLECULE
mol56_1_19
 34 36 0 0 0
SMALL
USER_CHARGES
****
VDW energy = 60.46
@<TRIPOS>ATOM
   1 C1        2.9594     4.6406     8.4458  C.2     1  <O>11      -0.0951
   2 C2        1.7743     5.3830     8.1471  C.2     1  <O>11      -0.0214
   3 C3        1.3780     5.6020     6.7510  C.2     1  <O>11       0.1870
   4 O1        2.1267     6.1962     5.9885  O.2     1  <O>11      -0.2872
   5 C4        0.1015     5.1146     6.2762  C.ar    1  <O>11       0.0407
   6 C5       -1.1002     5.5390     6.8368  C.ar    1  <O>11      -0.0088
   7 C6       -2.2938     5.0024     6.3393  C.ar    1  <O>11       0.1882
   8 F1       -3.4983     5.3743     6.8785  F       1  <O>11      -0.1998
   9 C7       -2.2525     4.0863     5.2897  C.ar    1  <O>11       0.2870
  10 O2       -3.4709     3.5723     4.8057  O.2     1  <O>11      -0.2645
  11 N1       -1.0927     3.6911     4.7402  N.ar    1  <O>11      -0.3078
  12 C8       -1.0146     2.7515     3.6506  C.3     1  <O>11       0.0519
  13 C9        0.1302     3.1074     2.7712  C.ar    1  <O>11      -0.0170
  14 C10       0.4597     4.4664     2.5429  C.ar    1  <O>11      -0.0561
  15 C11       1.5440     4.8242     1.7265  C.ar    1  <O>11      -0.0594
  16 C12       2.3020     3.7957     1.1221  C.ar    1  <O>11      -0.0363
  17 C13       1.9326     2.4472     1.3162  C.ar    1  <O>11       0.0660
  18 N2        2.4353     1.2291     0.8462  N.ar    1  <O>11      -0.2770
  19 N3        1.8575     0.1737     1.4886  N.ar    1  <O>11      -0.1812
  20 C14       0.8890     0.7118     2.2233  C.ar    1  <O>11       0.0572
  21 C15       0.8812     2.1154     2.1698  C.ar    1  <O>11       0.0243
  22 C16       0.0516     4.2024     5.2372  C.ar    1  <O>11       0.0193
  23 H1        3.5685     4.2375     7.6367  H       1  <O>11       0.0536
  24 H2        3.2538     4.4779     9.4826  H       1  <O>11       0.0536
  25 H3        1.1653     5.7861     8.9562  H       1  <O>11       0.0650
  26 H4       -1.9394     2.7847     3.0748  H       1  <O>11       0.0542
  27 H5       -0.8687     1.7463     4.0461  H       1  <O>11       0.0542
  28 H6        3.1371     1.1507     0.1240  H       1  <O>11       0.1889
  29 H7       -1.1108     6.2325     7.6010  H       1  <O>11       0.0655
  30 H8       -0.1077     5.2065     2.9848  H       1  <O>11       0.0621
  31 H9        1.7824     5.8162     1.5709  H       1  <O>11       0.0618
  32 H10       3.1222     4.0296     0.5412  H       1  <O>11       0.0639
  33 H11       0.2150     0.1575     2.7740  H       1  <O>11       0.0854
  34 H12       0.9430     3.8952     4.8177  H       1  <O>11       0.0817
@<TRIPOS>BOND
     1     1     2    2
     2     2     3    1
     3     3     4    2
     4     3     5    1
     5     5     6   ar
     6     6     7   ar
     7     7     8    1
     8     7     9   ar
     9     9    10    2
    10     9    11   ar
    11    11    12    1
    12    12    13    1
    13    13    14   ar
    14    14    15   ar
    15    15    16   ar
    16    16    17   ar
    17    17    18   ar
    18    18    19   ar
    19    19    20   ar
    20    20    21   ar
    21    13    21   ar
    22    17    21   ar
    23    11    22   ar
    24     5    22   ar
    25     1    23    1
    26     1    24    1
    27     2    25    1
    28    12    26    1
    29    12    27    1
    30    18    28    1
    31     6    29    1
    32    14    30    1
    33    15    31    1
    34    16    32    1
    35    20    33    1
    36    22    34    1
@<TRIPOS>MOLECULE
mol56_1_20
 34 36 0 0 0
SMALL
USER_CHARGES
****
VDW energy = 60.51
@<TRIPOS>ATOM
   1 C1        2.9594     4.6406     8.4458  C.2     1  <O>11      -0.0951
   2 C2        1.7743     5.3830     8.1471  C.2     1  <O>11      -0.0214
   3 C3        1.3780     5.6020     6.7510  C.2     1  <O>11       0.1870
   4 O1        1.1468     4.6468     6.0236  O.2     1  <O>11      -0.2872
   5 C4        1.2603     6.9482     6.2349  C.ar    1  <O>11       0.0407
   6 C5        2.3421     7.8245     6.2182  C.ar    1  <O>11      -0.0088
   7 C6        2.1428     9.1198     5.7258  C.ar    1  <O>11       0.1882
   8 F1        3.1747    10.0226     5.7135  F       1  <O>11      -0.1998
   9 C7        0.8874     9.4888     5.2458  C.ar    1  <O>11       0.2870
  10 O2        0.7220    10.7958     4.7486  O.2     1  <O>11      -0.2645
  11 N1       -0.1501     8.6362     5.2484  N.ar    1  <O>11      -0.3078
  12 C8       -1.4584     8.9828     4.7540  C.3     1  <O>11       0.0519
  13 C9       -2.0863     7.7860     4.1343  C.ar    1  <O>11      -0.0170
  14 C10      -1.2952     6.8557     3.4158  C.ar    1  <O>11      -0.0561
  15 C11      -1.8656     5.7129     2.8337  C.ar    1  <O>11      -0.0594
  16 C12      -3.2578     5.5100     2.9692  C.ar    1  <O>11      -0.0363
  17 C13      -4.0430     6.4698     3.6435  C.ar    1  <O>11       0.0660
  18 N2       -5.4111     6.5839     3.9135  N.ar    1  <O>11      -0.2770
  19 N3       -5.6605     7.6007     4.7877  N.ar    1  <O>11      -0.1812
  20 C14      -4.4934     8.2213     4.9291  C.ar    1  <O>11       0.0572
  21 C15      -3.4464     7.5722     4.2542  C.ar    1  <O>11       0.0243
  22 C16       0.0489     7.3962     5.7389  C.ar    1  <O>11       0.0193
  23 H1        3.5685     4.2375     7.6367  H       1  <O>11       0.0536
  24 H2        3.2538     4.4779     9.4826  H       1  <O>11       0.0536
  25 H3        1.1653     5.7861     8.9562  H       1  <O>11       0.0650
  26 H4       -1.3681     9.7729     4.0089  H       1  <O>11       0.0542
  27 H5       -2.0793     9.3310     5.5795  H       1  <O>11       0.0542
  28 H6       -6.1166     5.9848     3.5091  H       1  <O>11       0.1889
  29 H7        3.2688     7.5262     6.5607  H       1  <O>11       0.0655
  30 H8       -0.2812     7.0214     3.3188  H       1  <O>11       0.0621
  31 H9       -1.2816     5.0360     2.3183  H       1  <O>11       0.0618
  32 H10      -3.6985     4.6634     2.5768  H       1  <O>11       0.0639
  33 H11      -4.3698     9.0875     5.4763  H       1  <O>11       0.0854
  34 H12      -0.7496     6.7425     5.7448  H       1  <O>11       0.0817
@<TRIPOS>BOND
     1     1     2    2
     2     2     3    1
     3     3     4    2
     4     3     5    1
     5     5     6   ar
     6     6     7   ar
     7     7     8    1
     8     7     9   ar
     9     9    10    2
    10     9    11   ar
    11    11    12    1
    12    12    13    1
    13    13    14   ar
    14    14    15   ar
    15    15    16   ar
    16    16    17   ar
    17    17    18   ar
    18    18    19   ar
    19    19    20   ar
    20    20    21   ar
    21    13    21   ar
    22    17    21   ar
    23    11    22   ar
    24     5    22   ar
    25     1    23    1
    26     1    24    1
    27     2    25    1
    28    12    26    1
    29    12    27    1
    30    18    28    1
    31     6    29    1
    32    14    30    1
    33    15    31    1
    34    16    32    1
    35    20    33    1
    36    22    34    1
@<TRIPOS>MOLECULE
mol56_1_21
 34 36 0 0 0
SMALL
USER_CHARGES
****
VDW energy = 60.63
@<TRIPOS>ATOM
   1 C1        2.9594     4.6406     8.4458  C.2     1  <O>11      -0.0951
   2 C2        1.7743     5.3830     8.1471  C.2     1  <O>11      -0.0214
   3 C3        1.3780     5.6020     6.7510  C.2     1  <O>11       0.1870
   4 O1        0.2005     5.7717     6.4687  O.2     1  <O>11      -0.2872
   5 C4        2.3804     5.6177     5.7082  C.ar    1  <O>11       0.0407
   6 C5        2.7557     4.4587     5.0342  C.ar    1  <O>11      -0.0088
   7 C6        3.7514     4.5505     4.0543  C.ar    1  <O>11       0.1882
   8 F1        4.1683     3.4300     3.3831  F       1  <O>11      -0.1998
   9 C7        4.3183     5.7899     3.7622  C.ar    1  <O>11       0.2870
  10 O2        5.3106     5.8502     2.7649  O.2     1  <O>11      -0.2645
  11 N1        3.9428     6.9087     4.4029  N.ar    1  <O>11      -0.3078
  12 C8        4.5032     8.2060     4.1213  C.3     1  <O>11       0.0519
  13 C9        3.4557     9.2464     4.2975  C.ar    1  <O>11      -0.0170
  14 C10       2.1126     8.9757     3.9368  C.ar    1  <O>11      -0.0561
  15 C11       1.1060     9.9392     4.1066  C.ar    1  <O>11      -0.0594
  16 C12       1.4611    11.1995     4.6387  C.ar    1  <O>11      -0.0363
  17 C13       2.8109    11.4746     4.9464  C.ar    1  <O>11       0.0660
  18 N2        3.4811    12.5994     5.4395  N.ar    1  <O>11      -0.2770
  19 N3        4.7715    12.3032     5.7673  N.ar    1  <O>11      -0.1812
  20 C14       4.9575    11.0624     5.3281  C.ar    1  <O>11       0.0572
  21 C15       3.7846    10.4853     4.8140  C.ar    1  <O>11       0.0243
  22 C16       2.9941     6.8064     5.3555  C.ar    1  <O>11       0.0193
  23 H1        3.5685     4.2375     7.6367  H       1  <O>11       0.0536
  24 H2        3.2538     4.4779     9.4826  H       1  <O>11       0.0536
  25 H3        1.1653     5.7861     8.9562  H       1  <O>11       0.0650
  26 H4        4.8695     8.2290     3.0952  H       1  <O>11       0.0542
  27 H5        5.3281     8.4029     4.8061  H       1  <O>11       0.0542
  28 H6        3.0555    13.5102     5.5377  H       1  <O>11       0.1889
  29 H7        2.3105     3.5534     5.2518  H       1  <O>11       0.0655
  30 H8        1.8699     8.0535     3.5423  H       1  <O>11       0.0621
  31 H9        0.1285     9.7320     3.8485  H       1  <O>11       0.0618
  32 H10       0.7363    11.9159     4.8017  H       1  <O>11       0.0639
  33 H11       5.8666    10.5751     5.3612  H       1  <O>11       0.0854
  34 H12       2.7088     7.6656     5.8507  H       1  <O>11       0.0817
@<TRIPOS>BOND
     1     1     2    2
     2     2     3    1
     3     3     4    2
     4     3     5    1
     5     5     6   ar
     6     6     7   ar
     7     7     8    1
     8     7     9   ar
     9     9    10    2
    10     9    11   ar
    11    11    12    1
    12    12    13    1
    13    13    14   ar
    14    14    15   ar
    15    15    16   ar
    16    16    17   ar
    17    17    18   ar
    18    18    19   ar
    19    19    20   ar
    20    20    21   ar
    21    13    21   ar
    22    17    21   ar
    23    11    22   ar
    24     5    22   ar
    25     1    23    1
    26     1    24    1
    27     2    25    1
    28    12    26    1
    29    12    27    1
    30    18    28    1
    31     6    29    1
    32    14    30    1
    33    15    31    1
    34    16    32    1
    35    20    33    1
    36    22    34    1
@<TRIPOS>MOLECULE
mol56_1_22
 34 36 0 0 0
SMALL
USER_CHARGES
****
VDW energy = 61.26
@<TRIPOS>ATOM
   1 C1        2.9594     4.6406     8.4458  C.2     1  <O>11      -0.0951
   2 C2        1.7743     5.3830     8.1471  C.2     1  <O>11      -0.0214
   3 C3        1.3780     5.6020     6.7510  C.2     1  <O>11       0.1870
   4 O1        0.2005     5.7717     6.4687  O.2     1  <O>11      -0.2872
   5 C4        2.3804     5.6177     5.7082  C.ar    1  <O>11       0.0407
   6 C5        3.0216     6.7926     5.3248  C.ar    1  <O>11      -0.0088
   7 C6        3.9626     6.7310     4.2901  C.ar    1  <O>11       0.1882
   8 F1        4.5998     7.8680     3.8646  F       1  <O>11      -0.1998
   9 C7        4.2505     5.5050     3.6928  C.ar    1  <O>11       0.2870
  10 O2        5.2086     5.4751     2.6612  O.2     1  <O>11      -0.2645
  11 N1        3.6421     4.3708     4.0757  N.ar    1  <O>11      -0.3078
  12 C8        3.9207     3.0866     3.4845  C.3     1  <O>11       0.0519
  13 C9        3.8018     2.0280     4.5217  C.ar    1  <O>11      -0.0170
  14 C10       4.2112     2.2841     5.8537  C.ar    1  <O>11      -0.0561
  15 C11       4.0960     1.3030     6.8510  C.ar    1  <O>11      -0.0594
  16 C12       3.5691     0.0400     6.4975  C.ar    1  <O>11      -0.0363
  17 C13       3.2124    -0.2195     5.1567  C.ar    1  <O>11       0.0660
  18 N2        2.7101    -1.3417     4.4889  N.ar    1  <O>11      -0.2770
  19 N3        2.3271    -1.0313     3.2172  N.ar    1  <O>11      -0.1812
  20 C14       2.7399     0.2189     3.0334  C.ar    1  <O>11       0.0572
  21 C15       3.2913     0.7862     4.1941  C.ar    1  <O>11       0.0243
  22 C16       2.7264     4.4439     5.0627  C.ar    1  <O>11       0.0193
  23 H1        3.5685     4.2375     7.6367  H       1  <O>11       0.0536
  24 H2        3.2538     4.4779     9.4826  H       1  <O>11       0.0536
  25 H3        1.1653     5.7861     8.9562  H       1  <O>11       0.0650
  26 H4        4.9318     3.0851     3.0778  H       1  <O>11       0.0542
  27 H5        3.2068     2.8914     2.6842  H       1  <O>11       0.0542
  28 H6        2.6425    -2.2602     4.9038  H       1  <O>11       0.1889
  29 H7        2.8082     7.6876     5.7923  H       1  <O>11       0.0655
  30 H8        4.6012     3.2086     6.0950  H       1  <O>11       0.0621
  31 H9        4.3894     1.4995     7.8206  H       1  <O>11       0.0618
  32 H10       3.4457    -0.6896     7.2168  H       1  <O>11       0.0639
  33 H11       2.6636     0.7191     2.1340  H       1  <O>11       0.0854
  34 H12       2.2558     3.5729     5.3538  H       1  <O>11       0.0817
@<TRIPOS>BOND
     1     1     2    2
     2     2     3    1
     3     3     4    2
     4     3     5    1
     5     5     6   ar
     6     6     7   ar
     7     7     8    1
     8     7     9   ar
     9     9    10    2
    10     9    11   ar
    11    11    12    1
    12    12    13    1
    13    13    14   ar
    14    14    15   ar
    15    15    16   ar
    16    16    17   ar
    17    17    18   ar
    18    18    19   ar
    19    19    20   ar
    20    20    21   ar
    21    13    21   ar
    22    17    21   ar
    23    11    22   ar
    24     5    22   ar
    25     1    23    1
    26     1    24    1
    27     2    25    1
    28    12    26    1
    29    12    27    1
    30    18    28    1
    31     6    29    1
    32    14    30    1
    33    15    31    1
    34    16    32    1
    35    20    33    1
    36    22    34    1
@<TRIPOS>MOLECULE
mol56_1_23
 34 36 0 0 0
SMALL
USER_CHARGES
****
VDW energy = 64.81
@<TRIPOS>ATOM
   1 C1        2.9594     4.6406     8.4458  C.2     1  <O>11      -0.0951
   2 C2        1.7743     5.3830     8.1471  C.2     1  <O>11      -0.0214
   3 C3        1.3780     5.6020     6.7510  C.2     1  <O>11       0.1870
   4 O1        2.1267     6.1962     5.9885  O.2     1  <O>11      -0.2872
   5 C4        0.1015     5.1146     6.2762  C.ar    1  <O>11       0.0407
   6 C5       -0.4308     5.5211     5.0556  C.ar    1  <O>11      -0.0088
   7 C6       -1.6836     5.0243     4.6764  C.ar    1  <O>11       0.1882
   8 F1       -2.2557     5.4171     3.4939  F       1  <O>11      -0.1998
   9 C7       -2.3487     4.1252     5.5083  C.ar    1  <O>11       0.2870
  10 O2       -3.6027     3.6367     5.0940  O.2     1  <O>11      -0.2645
  11 N1       -1.8253     3.7226     6.6776  N.ar    1  <O>11      -0.3078
  12 C8       -2.4827     2.7900     7.5578  C.3     1  <O>11       0.0519
  13 C9       -1.4627     1.9511     8.2408  C.ar    1  <O>11      -0.0170
  14 C10      -0.2905     1.5506     7.5531  C.ar    1  <O>11      -0.0561
  15 C11       0.6908     0.7692     8.1830  C.ar    1  <O>11      -0.0594
  16 C12       0.4821     0.3766     9.5246  C.ar    1  <O>11      -0.0363
  17 C13      -0.7130     0.7389    10.1825  C.ar    1  <O>11       0.0660
  18 N2       -1.2293     0.4885    11.4586  N.ar    1  <O>11      -0.2770
  19 N3       -2.3451     1.2357    11.6970  N.ar    1  <O>11      -0.1812
  20 C14      -2.6224     1.8137    10.5324  C.ar    1  <O>11       0.0572
  21 C15      -1.6507     1.5555     9.5515  C.ar    1  <O>11       0.0243
  22 C16      -0.6254     4.2190     7.0402  C.ar    1  <O>11       0.0193
  23 H1        3.5685     4.2375     7.6367  H       1  <O>11       0.0536
  24 H2        3.2538     4.4779     9.4826  H       1  <O>11       0.0536
  25 H3        1.1653     5.7861     8.9562  H       1  <O>11       0.0650
  26 H4       -3.1498     2.1518     6.9787  H       1  <O>11       0.0542
  27 H5       -3.0597     3.3374     8.3031  H       1  <O>11       0.0542
  28 H6       -0.8207    -0.1632    12.1132  H       1  <O>11       0.1889
  29 H7        0.0859     6.1731     4.4448  H       1  <O>11       0.0655
  30 H8       -0.1558     1.8386     6.5713  H       1  <O>11       0.0621
  31 H9        1.5455     0.4877     7.6778  H       1  <O>11       0.0618
  32 H10       1.2007    -0.1729    10.0213  H       1  <O>11       0.0639
  33 H11      -3.4619     2.3906    10.3667  H       1  <O>11       0.0854
  34 H12      -0.2254     3.9128     7.9409  H       1  <O>11       0.0817
@<TRIPOS>BOND
     1     1     2    2
     2     2     3    1
     3     3     4    2
     4     3     5    1
     5     5     6   ar
     6     6     7   ar
     7     7     8    1
     8     7     9   ar
     9     9    10    2
    10     9    11   ar
    11    11    12    1
    12    12    13    1
    13    13    14   ar
    14    14    15   ar
    15    15    16   ar
    16    16    17   ar
    17    17    18   ar
    18    18    19   ar
    19    19    20   ar
    20    20    21   ar
    21    13    21   ar
    22    17    21   ar
    23    11    22   ar
    24     5    22   ar
    25     1    23    1
    26     1    24    1
    27     2    25    1
    28    12    26    1
    29    12    27    1
    30    18    28    1
    31     6    29    1
    32    14    30    1
    33    15    31    1
    34    16    32    1
    35    20    33    1
    36    22    34    1
@<TRIPOS>MOLECULE
mol56_1_24
 34 36 0 0 0
SMALL
USER_CHARGES
****
VDW energy = 64.91
@<TRIPOS>ATOM
   1 C1        2.9594     4.6406     8.4458  C.2     1  <O>11      -0.0951
   2 C2        1.7743     5.3830     8.1471  C.2     1  <O>11      -0.0214
   3 C3        1.3780     5.6020     6.7510  C.2     1  <O>11       0.1870
   4 O1        0.2005     5.7717     6.4687  O.2     1  <O>11      -0.2872
   5 C4        2.3804     5.6177     5.7082  C.ar    1  <O>11       0.0407
   6 C5        3.1949     4.5167     5.4573  C.ar    1  <O>11      -0.0088
   7 C6        4.1591     4.6177     4.4472  C.ar    1  <O>11       0.1882
   8 F1        4.9984     3.5661     4.1830  F       1  <O>11      -0.1998
   9 C7        4.2623     5.7951     3.7084  C.ar    1  <O>11       0.2870
  10 O2        5.2359     5.8614     2.6933  O.2     1  <O>11      -0.2645
  11 N1        3.4644     6.8496     3.9421  N.ar    1  <O>11      -0.3078
  12 C8        3.5398     8.0784     3.1933  C.3     1  <O>11       0.0519
  13 C9        2.1786     8.6617     3.0610  C.ar    1  <O>11      -0.0170
  14 C10       1.6907     9.5650     4.0375  C.ar    1  <O>11      -0.0561
  15 C11       0.4137    10.1368     3.9253  C.ar    1  <O>11      -0.0594
  16 C12      -0.3884     9.7843     2.8163  C.ar    1  <O>11      -0.0363
  17 C13       0.0888     8.8444     1.8775  C.ar    1  <O>11       0.0660
  18 N2       -0.4528     8.2703     0.7222  N.ar    1  <O>11      -0.2770
  19 N3        0.4873     7.5614     0.0337  N.ar    1  <O>11      -0.1812
  20 C14       1.5524     7.5475     0.8291  C.ar    1  <O>11       0.0572
  21 C15       1.3790     8.3268     1.9848  C.ar    1  <O>11       0.0243
  22 C16       2.5496     6.7471     4.9273  C.ar    1  <O>11       0.0193
  23 H1        3.5685     4.2375     7.6367  H       1  <O>11       0.0536
  24 H2        3.2538     4.4779     9.4826  H       1  <O>11       0.0536
  25 H3        1.1653     5.7861     8.9562  H       1  <O>11       0.0650
  26 H4        3.9466     7.8762     2.2027  H       1  <O>11       0.0542
  27 H5        4.1869     8.7836     3.7149  H       1  <O>11       0.0542
  28 H6       -1.4175     8.3737     0.4412  H       1  <O>11       0.1889
  29 H7        3.0904     3.6470     6.0029  H       1  <O>11       0.0655
  30 H8        2.2850     9.8068     4.8458  H       1  <O>11       0.0621
  31 H9        0.0682    10.7997     4.6367  H       1  <O>11       0.0618
  32 H10      -1.3194    10.2124     2.6933  H       1  <O>11       0.0639
  33 H11       2.4146     7.0204     0.6198  H       1  <O>11       0.0854
  34 H12       1.9395     7.5592     5.1096  H       1  <O>11       0.0817
@<TRIPOS>BOND
     1     1     2    2
     2     2     3    1
     3     3     4    2
     4     3     5    1
     5     5     6   ar
     6     6     7   ar
     7     7     8    1
     8     7     9   ar
     9     9    10    2
    10     9    11   ar
    11    11    12    1
    12    12    13    1
    13    13    14   ar
    14    14    15   ar
    15    15    16   ar
    16    16    17   ar
    17    17    18   ar
    18    18    19   ar
    19    19    20   ar
    20    20    21   ar
    21    13    21   ar
    22    17    21   ar
    23    11    22   ar
    24     5    22   ar
    25     1    23    1
    26     1    24    1
    27     2    25    1
    28    12    26    1
    29    12    27    1
    30    18    28    1
    31     6    29    1
    32    14    30    1
    33    15    31    1
    34    16    32    1
    35    20    33    1
    36    22    34    1
@<TRIPOS>MOLECULE
mol56_1_25
 34 36 0 0 0
SMALL
USER_CHARGES
****
VDW energy = 65.40
@<TRIPOS>ATOM
   1 C1        2.9594     4.6406     8.4458  C.2     1  <O>11      -0.0951
   2 C2        1.7743     5.3830     8.1471  C.2     1  <O>11      -0.0214
   3 C3        1.3780     5.6020     6.7510  C.2     1  <O>11       0.1870
   4 O1        0.3649     6.2369     6.4950  O.2     1  <O>11      -0.2872
   5 C4        2.1861     5.0671     5.6770  C.ar    1  <O>11       0.0407
   6 C5        1.9636     3.7957     5.1550  C.ar    1  <O>11      -0.0088
   7 C6        2.8042     3.3386     4.1330  C.ar    1  <O>11       0.1882
   8 F1        2.6359     2.0837     3.6069  F       1  <O>11      -0.1998
   9 C7        3.8156     4.1674     3.6504  C.ar    1  <O>11       0.2870
  10 O2        4.6380     3.6817     2.6157  O.2     1  <O>11      -0.2645
  11 N1        4.0174     5.3994     4.1450  N.ar    1  <O>11      -0.3078
  12 C8        5.0487     6.2840     3.6650  C.3     1  <O>11       0.0519
  13 C9        4.7563     6.6681     2.2587  C.ar    1  <O>11      -0.0170
  14 C10       3.9737     7.8158     1.9799  C.ar    1  <O>11      -0.0561
  15 C11       3.6962     8.2033     0.6596  C.ar    1  <O>11      -0.0594
  16 C12       4.2072     7.4152    -0.3965  C.ar    1  <O>11      -0.0363
  17 C13       4.9423     6.2459    -0.1053  C.ar    1  <O>11       0.0660
  18 N2        5.5388     5.2564    -0.8944  N.ar    1  <O>11      -0.2770
  19 N3        6.3216     4.4292    -0.1439  N.ar    1  <O>11      -0.1812
  20 C14       6.0848     4.7864     1.1145  C.ar    1  <O>11       0.0572
  21 C15       5.2453     5.9082     1.2132  C.ar    1  <O>11       0.0243
  22 C16       3.2120     5.8238     5.1395  C.ar    1  <O>11       0.0193
  23 H1        3.5685     4.2375     7.6367  H       1  <O>11       0.0536
  24 H2        3.2538     4.4779     9.4826  H       1  <O>11       0.0536
  25 H3        1.1653     5.7861     8.9562  H       1  <O>11       0.0650
  26 H4        6.0126     5.7774     3.7106  H       1  <O>11       0.0542
  27 H5        5.0790     7.1792     4.2861  H       1  <O>11       0.0542
  28 H6        5.4024     5.1735    -1.8918  H       1  <O>11       0.1889
  29 H7        1.1973     3.2043     5.5130  H       1  <O>11       0.0655
  30 H8        3.6010     8.3770     2.7617  H       1  <O>11       0.0621
  31 H9        3.1317     9.0448     0.4644  H       1  <O>11       0.0618
  32 H10       4.0435     7.6935    -1.3767  H       1  <O>11       0.0639
  33 H11       6.4760     4.2922     1.9317  H       1  <O>11       0.0854
  34 H12       3.3701     6.7690     5.5223  H       1  <O>11       0.0817
@<TRIPOS>BOND
     1     1     2    2
     2     2     3    1
     3     3     4    2
     4     3     5    1
     5     5     6   ar
     6     6     7   ar
     7     7     8    1
     8     7     9   ar
     9     9    10    2
    10     9    11   ar
    11    11    12    1
    12    12    13    1
    13    13    14   ar
    14    14    15   ar
    15    15    16   ar
    16    16    17   ar
    17    17    18   ar
    18    18    19   ar
    19    19    20   ar
    20    20    21   ar
    21    13    21   ar
    22    17    21   ar
    23    11    22   ar
    24     5    22   ar
    25     1    23    1
    26     1    24    1
    27     2    25    1
    28    12    26    1
    29    12    27    1
    30    18    28    1
    31     6    29    1
    32    14    30    1
    33    15    31    1
    34    16    32    1
    35    20    33    1
    36    22    34    1
@<TRIPOS>MOLECULE
mol56_1_26
 34 36 0 0 0
SMALL
USER_CHARGES
****
VDW energy = 70.07
@<TRIPOS>ATOM
   1 C1        2.9594     4.6406     8.4458  C.2     1  <O>11      -0.0951
   2 C2        1.7743     5.3830     8.1471  C.2     1  <O>11      -0.0214
   3 C3        1.3780     5.6020     6.7510  C.2     1  <O>11       0.1870
   4 O1        0.2005     5.7717     6.4687  O.2     1  <O>11      -0.2872
   5 C4        2.3804     5.6177     5.7082  C.ar    1  <O>11       0.0407
   6 C5        3.1949     4.5167     5.4573  C.ar    1  <O>11      -0.0088
   7 C6        4.1591     4.6177     4.4472  C.ar    1  <O>11       0.1882
   8 F1        4.9984     3.5661     4.1830  F       1  <O>11      -0.1998
   9 C7        4.2623     5.7951     3.7084  C.ar    1  <O>11       0.2870
  10 O2        5.2359     5.8614     2.6933  O.2     1  <O>11      -0.2645
  11 N1        3.4644     6.8496     3.9421  N.ar    1  <O>11      -0.3078
  12 C8        3.5398     8.0784     3.1933  C.3     1  <O>11       0.0519
  13 C9        2.1786     8.6617     3.0610  C.ar    1  <O>11      -0.0170
  14 C10       1.0524     7.8172     2.9003  C.ar    1  <O>11      -0.0561
  15 C11      -0.2427     8.3464     2.7861  C.ar    1  <O>11      -0.0594
  16 C12      -0.4039     9.7501     2.8242  C.ar    1  <O>11      -0.0363
  17 C13       0.7308    10.5824     2.9335  C.ar    1  <O>11       0.0660
  18 N2        0.9144    11.9692     2.9627  N.ar    1  <O>11      -0.2770
  19 N3        2.1976    12.2923     3.2930  N.ar    1  <O>11      -0.1812
  20 C14       2.8485    11.1332     3.3018  C.ar    1  <O>11       0.0572
  21 C15       2.0019    10.0319     3.0935  C.ar    1  <O>11       0.0243
  22 C16       2.5496     6.7471     4.9273  C.ar    1  <O>11       0.0193
  23 H1        3.5685     4.2375     7.6367  H       1  <O>11       0.0536
  24 H2        3.2538     4.4779     9.4826  H       1  <O>11       0.0536
  25 H3        1.1653     5.7861     8.9562  H       1  <O>11       0.0650
  26 H4        3.9466     7.8762     2.2027  H       1  <O>11       0.0542
  27 H5        4.1869     8.7836     3.7149  H       1  <O>11       0.0542
  28 H6        0.1840    12.6380     2.7643  H       1  <O>11       0.1889
  29 H7        3.0904     3.6470     6.0029  H       1  <O>11       0.0655
  30 H8        1.1866     6.7945     2.8665  H       1  <O>11       0.0621
  31 H9       -1.0590     7.7245     2.6768  H       1  <O>11       0.0618
  32 H10      -1.3474    10.1648     2.7724  H       1  <O>11       0.0639
  33 H11       3.8671    11.0512     3.4462  H       1  <O>11       0.0854
  34 H12       1.9395     7.5592     5.1096  H       1  <O>11       0.0817
@<TRIPOS>BOND
     1     1     2    2
     2     2     3    1
     3     3     4    2
     4     3     5    1
     5     5     6   ar
     6     6     7   ar
     7     7     8    1
     8     7     9   ar
     9     9    10    2
    10     9    11   ar
    11    11    12    1
    12    12    13    1
    13    13    14   ar
    14    14    15   ar
    15    15    16   ar
    16    16    17   ar
    17    17    18   ar
    18    18    19   ar
    19    19    20   ar
    20    20    21   ar
    21    13    21   ar
    22    17    21   ar
    23    11    22   ar
    24     5    22   ar
    25     1    23    1
    26     1    24    1
    27     2    25    1
    28    12    26    1
    29    12    27    1
    30    18    28    1
    31     6    29    1
    32    14    30    1
    33    15    31    1
    34    16    32    1
    35    20    33    1
    36    22    34    1
@<TRIPOS>MOLECULE
mol56_1_27
 34 36 0 0 0
SMALL
USER_CHARGES
****
VDW energy = 78.92
@<TRIPOS>ATOM
   1 C1        2.9594     4.6406     8.4458  C.2     1  <O>11      -0.0951
   2 C2        1.7743     5.3830     8.1471  C.2     1  <O>11      -0.0214
   3 C3        1.3780     5.6020     6.7510  C.2     1  <O>11       0.1870
   4 O1        0.2005     5.7717     6.4687  O.2     1  <O>11      -0.2872
   5 C4        2.3804     5.6177     5.7082  C.ar    1  <O>11       0.0407
   6 C5        2.0375     5.5551     4.3603  C.ar    1  <O>11      -0.0088
   7 C6        3.0662     5.5498     3.4106  C.ar    1  <O>11       0.1882
   8 F1        2.7743     5.4649     2.0736  F       1  <O>11      -0.1998
   9 C7        4.3925     5.6321     3.8311  C.ar    1  <O>11       0.2870
  10 O2        5.4033     5.6339     2.8508  O.2     1  <O>11      -0.2645
  11 N1        4.7193     5.7086     5.1314  N.ar    1  <O>11      -0.3078
  12 C8        6.0788     5.8014     5.5998  C.3     1  <O>11       0.0519
  13 C9        6.6668     7.0941     5.1597  C.ar    1  <O>11      -0.0170
  14 C10       7.3411     7.1857     3.9170  C.ar    1  <O>11      -0.0561
  15 C11       7.8924     8.3992     3.4768  C.ar    1  <O>11      -0.0594
  16 C12       7.7711     9.5362     4.3074  C.ar    1  <O>11      -0.0363
  17 C13       7.1420     9.4203     5.5657  C.ar    1  <O>11       0.0660
  18 N2        6.8967    10.3172     6.6111  N.ar    1  <O>11      -0.2770
  19 N3        6.0615     9.7752     7.5433  N.ar    1  <O>11      -0.1812
  20 C14       5.9237     8.5043     7.1783  C.ar    1  <O>11       0.0572
  21 C15       6.5602     8.2159     5.9597  C.ar    1  <O>11       0.0243
  22 C16       3.7216     5.6975     6.0382  C.ar    1  <O>11       0.0193
  23 H1        3.5685     4.2375     7.6367  H       1  <O>11       0.0536
  24 H2        3.2538     4.4779     9.4826  H       1  <O>11       0.0536
  25 H3        1.1653     5.7861     8.9562  H       1  <O>11       0.0650
  26 H4        6.6623     4.9779     5.1885  H       1  <O>11       0.0542
  27 H5        6.0934     5.7488     6.6885  H       1  <O>11       0.0542
  28 H6        7.2910    11.2458     6.6604  H       1  <O>11       0.1889
  29 H7        1.0485     5.5137     4.0681  H       1  <O>11       0.0655
  30 H8        7.4284     6.3450     3.3248  H       1  <O>11       0.0621
  31 H9        8.3756     8.4597     2.5669  H       1  <O>11       0.0618
  32 H10       8.1411    10.4477     3.9953  H       1  <O>11       0.0639
  33 H11       5.4046     7.8044     7.7311  H       1  <O>11       0.0854
  34 H12       3.9733     5.7518     7.0375  H       1  <O>11       0.0817
@<TRIPOS>BOND
     1     1     2    2
     2     2     3    1
     3     3     4    2
     4     3     5    1
     5     5     6   ar
     6     6     7   ar
     7     7     8    1
     8     7     9   ar
     9     9    10    2
    10     9    11   ar
    11    11    12    1
    12    12    13    1
    13    13    14   ar
    14    14    15   ar
    15    15    16   ar
    16    16    17   ar
    17    17    18   ar
    18    18    19   ar
    19    19    20   ar
    20    20    21   ar
    21    13    21   ar
    22    17    21   ar
    23    11    22   ar
    24     5    22   ar
    25     1    23    1
    26     1    24    1
    27     2    25    1
    28    12    26    1
    29    12    27    1
    30    18    28    1
    31     6    29    1
    32    14    30    1
    33    15    31    1
    34    16    32    1
    35    20    33    1
    36    22    34    1
@<TRIPOS>MOLECULE
mol56_1_28
 34 36 0 0 0
SMALL
USER_CHARGES
****
VDW energy = 86.38
@<TRIPOS>ATOM
   1 C1        2.9594     4.6406     8.4458  C.2     1  <O>11      -0.0951
   2 C2        1.7743     5.3830     8.1471  C.2     1  <O>11      -0.0214
   3 C3        1.3780     5.6020     6.7510  C.2     1  <O>11       0.1870
   4 O1        0.2005     5.7717     6.4687  O.2     1  <O>11      -0.2872
   5 C4        2.3804     5.6177     5.7082  C.ar    1  <O>11       0.0407
   6 C5        2.0375     5.5551     4.3603  C.ar    1  <O>11      -0.0088
   7 C6        3.0662     5.5498     3.4106  C.ar    1  <O>11       0.1882
   8 F1        2.7743     5.4649     2.0736  F       1  <O>11      -0.1998
   9 C7        4.3925     5.6321     3.8311  C.ar    1  <O>11       0.2870
  10 O2        5.4033     5.6339     2.8508  O.2     1  <O>11      -0.2645
  11 N1        4.7193     5.7086     5.1314  N.ar    1  <O>11      -0.3078
  12 C8        6.0788     5.8014     5.5998  C.3     1  <O>11       0.0519
  13 C9        6.1241     6.6448     6.8235  C.ar    1  <O>11      -0.0170
  14 C10       5.2666     7.7654     6.9505  C.ar    1  <O>11      -0.0561
  15 C11       5.2842     8.5674     8.1024  C.ar    1  <O>11      -0.0594
  16 C12       6.1883     8.2406     9.1385  C.ar    1  <O>11      -0.0363
  17 C13       7.0729     7.1523     8.9784  C.ar    1  <O>11       0.0660
  18 N2        8.0839     6.6021     9.7739  N.ar    1  <O>11      -0.2770
  19 N3        8.5208     5.4133     9.2679  N.ar    1  <O>11      -0.1812
  20 C14       7.9185     5.3042     8.0878  C.ar    1  <O>11       0.0572
  21 C15       7.0033     6.3420     7.8458  C.ar    1  <O>11       0.0243
  22 C16       3.7216     5.6975     6.0382  C.ar    1  <O>11       0.0193
  23 H1        3.5685     4.2375     7.6367  H       1  <O>11       0.0536
  24 H2        3.2538     4.4779     9.4826  H       1  <O>11       0.0536
  25 H3        1.1653     5.7861     8.9562  H       1  <O>11       0.0650
  26 H4        6.7005     6.2505     4.8255  H       1  <O>11       0.0542
  27 H5        6.4526     4.8044     5.8331  H       1  <O>11       0.0542
  28 H6        8.4379     7.0363    10.6144  H       1  <O>11       0.1889
  29 H7        1.0485     5.5137     4.0681  H       1  <O>11       0.0655
  30 H8        4.6172     7.9962     6.1823  H       1  <O>11       0.0621
  31 H9        4.6513     9.3777     8.1907  H       1  <O>11       0.0618
  32 H10       6.2016     8.7953    10.0086  H       1  <O>11       0.0639
  33 H11       8.1035     4.5389     7.4208  H       1  <O>11       0.0854
  34 H12       3.9733     5.7518     7.0375  H       1  <O>11       0.0817
@<TRIPOS>BOND
     1     1     2    2
     2     2     3    1
     3     3     4    2
     4     3     5    1
     5     5     6   ar
     6     6     7   ar
     7     7     8    1
     8     7     9   ar
     9     9    10    2
    10     9    11   ar
    11    11    12    1
    12    12    13    1
    13    13    14   ar
    14    14    15   ar
    15    15    16   ar
    16    16    17   ar
    17    17    18   ar
    18    18    19   ar
    19    19    20   ar
    20    20    21   ar
    21    13    21   ar
    22    17    21   ar
    23    11    22   ar
    24     5    22   ar
    25     1    23    1
    26     1    24    1
    27     2    25    1
    28    12    26    1
    29    12    27    1
    30    18    28    1
    31     6    29    1
    32    14    30    1
    33    15    31    1
    34    16    32    1
    35    20    33    1
    36    22    34    1
@<TRIPOS>MOLECULE
mol56_1_29
 34 36 0 0 0
SMALL
USER_CHARGES
****
VDW energy = 92.97
@<TRIPOS>ATOM
   1 C1        2.9594     4.6406     8.4458  C.2     1  <O>11      -0.0951
   2 C2        1.7743     5.3830     8.1471  C.2     1  <O>11      -0.0214
   3 C3        1.3780     5.6020     6.7510  C.2     1  <O>11       0.1870
   4 O1        2.1267     6.1962     5.9885  O.2     1  <O>11      -0.2872
   5 C4        0.1015     5.1146     6.2762  C.ar    1  <O>11       0.0407
   6 C5       -1.0507     5.8936     6.3398  C.ar    1  <O>11      -0.0088
   7 C6       -2.2538     5.3422     5.8831  C.ar    1  <O>11       0.1882
   8 F1       -3.4167     6.0655     5.9496  F       1  <O>11      -0.1998
   9 C7       -2.2645     4.0511     5.3581  C.ar    1  <O>11       0.2870
  10 O2       -3.4889     3.5289     4.8986  O.2     1  <O>11      -0.2645
  11 N1       -1.1485     3.3081     5.2833  N.ar    1  <O>11      -0.3078
  12 C8       -1.1230     1.9734     4.7407  C.3     1  <O>11       0.0519
  13 C9       -1.4391     2.0234     3.2888  C.ar    1  <O>11      -0.0170
  14 C10      -2.3837     2.9570     2.7952  C.ar    1  <O>11      -0.0561
  15 C11      -2.6875     3.0295     1.4268  C.ar    1  <O>11      -0.0594
  16 C12      -2.0363     2.1393     0.5429  C.ar    1  <O>11      -0.0363
  17 C13      -1.1355     1.1798     1.0532  C.ar    1  <O>11       0.0660
  18 N2       -0.3747     0.1606     0.4701  N.ar    1  <O>11      -0.2770
  19 N3        0.5095    -0.3702     1.3628  N.ar    1  <O>11      -0.1812
  20 C14       0.1913     0.1855     2.5278  C.ar    1  <O>11       0.0572
  21 C15      -0.8142     1.1592     2.4099  C.ar    1  <O>11       0.0243
  22 C16       0.0018     3.8431     5.7400  C.ar    1  <O>11       0.0193
  23 H1        3.5685     4.2375     7.6367  H       1  <O>11       0.0536
  24 H2        3.2538     4.4779     9.4826  H       1  <O>11       0.0536
  25 H3        1.1653     5.7861     8.9562  H       1  <O>11       0.0650
  26 H4       -1.8628     1.3585     5.2529  H       1  <O>11       0.0542
  27 H5       -0.1319     1.5420     4.8810  H       1  <O>11       0.0542
  28 H6       -0.4737    -0.1368    -0.4901  H       1  <O>11       0.1889
  29 H7       -1.0186     6.8546     6.7146  H       1  <O>11       0.0655
  30 H8       -2.8568     3.5953     3.4538  H       1  <O>11       0.0621
  31 H9       -3.3711     3.7173     1.0739  H       1  <O>11       0.0618
  32 H10      -2.2185     2.1907    -0.4716  H       1  <O>11       0.0639
  33 H11       0.6355    -0.0712     3.4232  H       1  <O>11       0.0854
  34 H12       0.8585     3.2703     5.6864  H       1  <O>11       0.0817
@<TRIPOS>BOND
     1     1     2    2
     2     2     3    1
     3     3     4    2
     4     3     5    1
     5     5     6   ar
     6     6     7   ar
     7     7     8    1
     8     7     9   ar
     9     9    10    2
    10     9    11   ar
    11    11    12    1
    12    12    13    1
    13    13    14   ar
    14    14    15   ar
    15    15    16   ar
    16    16    17   ar
    17    17    18   ar
    18    18    19   ar
    19    19    20   ar
    20    20    21   ar
    21    13    21   ar
    22    17    21   ar
    23    11    22   ar
    24     5    22   ar
    25     1    23    1
    26     1    24    1
    27     2    25    1
    28    12    26    1
    29    12    27    1
    30    18    28    1
    31     6    29    1
    32    14    30    1
    33    15    31    1
    34    16    32    1
    35    20    33    1
    36    22    34    1
@<TRIPOS>MOLECULE
mol56_1_30
 34 36 0 0 0
SMALL
USER_CHARGES
****
VDW energy = 95.43
@<TRIPOS>ATOM
   1 C1        2.9594     4.6406     8.4458  C.2     1  <O>11      -0.0951
   2 C2        1.7743     5.3830     8.1471  C.2     1  <O>11      -0.0214
   3 C3        1.3780     5.6020     6.7510  C.2     1  <O>11       0.1870
   4 O1        0.2005     5.7717     6.4687  O.2     1  <O>11      -0.2872
   5 C4        2.3804     5.6177     5.7082  C.ar    1  <O>11       0.0407
   6 C5        2.0375     5.5551     4.3603  C.ar    1  <O>11      -0.0088
   7 C6        3.0662     5.5498     3.4106  C.ar    1  <O>11       0.1882
   8 F1        2.7743     5.4649     2.0736  F       1  <O>11      -0.1998
   9 C7        4.3925     5.6321     3.8311  C.ar    1  <O>11       0.2870
  10 O2        5.4033     5.6339     2.8508  O.2     1  <O>11      -0.2645
  11 N1        4.7193     5.7086     5.1314  N.ar    1  <O>11      -0.3078
  12 C8        6.0788     5.8014     5.5998  C.3     1  <O>11       0.0519
  13 C9        6.1241     6.6448     6.8235  C.ar    1  <O>11      -0.0170
  14 C10       6.3168     8.0446     6.7192  C.ar    1  <O>11      -0.0561
  15 C11       6.3502     8.8608     7.8607  C.ar    1  <O>11      -0.0594
  16 C12       6.1973     8.2547     9.1284  C.ar    1  <O>11      -0.0363
  17 C13       6.0572     6.8533     9.2222  C.ar    1  <O>11       0.0660
  18 N2        5.9248     5.9637    10.2939  N.ar    1  <O>11      -0.2770
  19 N3        5.6087     4.7096     9.8607  N.ar    1  <O>11      -0.1812
  20 C14       5.7104     4.7716     8.5367  C.ar    1  <O>11       0.0572
  21 C15       5.9790     6.0695     8.0716  C.ar    1  <O>11       0.0243
  22 C16       3.7216     5.6975     6.0382  C.ar    1  <O>11       0.0193
  23 H1        3.5685     4.2375     7.6367  H       1  <O>11       0.0536
  24 H2        3.2538     4.4779     9.4826  H       1  <O>11       0.0536
  25 H3        1.1653     5.7861     8.9562  H       1  <O>11       0.0650
  26 H4        6.7005     6.2505     4.8255  H       1  <O>11       0.0542
  27 H5        6.4526     4.8044     5.8331  H       1  <O>11       0.0542
  28 H6        6.0481     6.2257    11.2616  H       1  <O>11       0.1889
  29 H7        1.0485     5.5137     4.0681  H       1  <O>11       0.0655
  30 H8        6.4347     8.4718     5.7872  H       1  <O>11       0.0621
  31 H9        6.4835     9.8806     7.7763  H       1  <O>11       0.0618
  32 H10       6.1881     8.8344     9.9821  H       1  <O>11       0.0639
  33 H11       5.6035     3.9535     7.9168  H       1  <O>11       0.0854
  34 H12       3.9733     5.7518     7.0375  H       1  <O>11       0.0817
@<TRIPOS>BOND
     1     1     2    2
     2     2     3    1
     3     3     4    2
     4     3     5    1
     5     5     6   ar
     6     6     7   ar
     7     7     8    1
     8     7     9   ar
     9     9    10    2
    10     9    11   ar
    11    11    12    1
    12    12    13    1
    13    13    14   ar
    14    14    15   ar
    15    15    16   ar
    16    16    17   ar
    17    17    18   ar
    18    18    19   ar
    19    19    20   ar
    20    20    21   ar
    21    13    21   ar
    22    17    21   ar
    23    11    22   ar
    24     5    22   ar
    25     1    23    1
    26     1    24    1
    27     2    25    1
    28    12    26    1
    29    12    27    1
    30    18    28    1
    31     6    29    1
    32    14    30    1
    33    15    31    1
    34    16    32    1
    35    20    33    1
    36    22    34    1
